# generated using pymatgen
data_ZnH24C28(NO4)2
_symmetry_space_group_name_H-M   'P 1'
_cell_length_a   9.40876520
_cell_length_b   10.86052754
_cell_length_c   23.81427576
_cell_angle_alpha   89.68545663
_cell_angle_beta   89.52693520
_cell_angle_gamma   87.49719655
_symmetry_Int_Tables_number   1
_chemical_formula_structural   ZnH24C28(NO4)2
_chemical_formula_sum   'Zn2 H48 C56 N4 O16'
_cell_volume   2431.00540913
_cell_formula_units_Z   2
loop_
 _symmetry_equiv_pos_site_id
 _symmetry_equiv_pos_as_xyz
  1  'x, y, z'
loop_
 _atom_site_type_symbol
 _atom_site_label
 _atom_site_symmetry_multiplicity
 _atom_site_fract_x
 _atom_site_fract_y
 _atom_site_fract_z
 _atom_site_occupancy
 _atom_site_pbe_bader_charge
 _atom_site_pbe_bader_spin_density
 _atom_site_pbe_cm5_charge
 _atom_site_pbe_ddec_charge
 _atom_site_pbe_ddec_spin_density
 _atom_site_pbe_ddec_sum_bond_order
 _atom_site_pbe_magmom
Zn  Zn0  1  0.64512523  0.49385926  0.49937275  1  1.273459  0  0.66071  0.784841  0  2.494424  0
Zn  Zn1  1  0.35683423  0.50595939  0.50046377  1  1.249733  0  0.660495  0.783959  0  2.491067  0
H  H2  1  0.43552091  0.82915566  0.94548552  1  0.121992  0  0.118939  0.124003  0  0.977515  0
H  H3  1  0.56569950  0.21496426  0.94829286  1  0.108067  0  0.118664  0.123743  0  0.977925  0
H  H4  1  0.73046039  0.51540823  0.21327083  1  0.072216  0  0.107857  0.113025  0  0.983144  0
H  H5  1  0.27008128  0.53059247  0.78671188  1  0.075487  0  0.108369  0.113995  0  0.981395  0
H  H6  1  0.73027813  0.50541379  0.31887230  1  0.090133  0  0.104481  0.104403  0  1.00619  0
H  H7  1  0.27058015  0.52411323  0.68112555  1  0.094254  0  0.105448  0.106633  0  1.003289  0
H  H8  1  0.27454676  0.52176917  0.32079560  1  0.08634  0  0.104805  0.105734  0  1.002306  0
H  H9  1  0.72622356  0.49745285  0.67958491  1  0.110728  0  0.104552  0.10576  0  1.004624  0
H  H10  1  0.27310274  0.53187237  0.21518837  1  0.065338  0  0.10768  0.113581  0  0.983693  0
H  H11  1  0.72738594  0.50473111  0.78515509  1  0.056377  0  0.10776  0.114057  0  0.982634  0
H  H12  1  0.73068889  0.07281275  0.46522968  1  0.070876  0  0.098377  0.110458  0  1.012354  0
H  H13  1  0.56541255  0.21634625  0.05484332  1  0.116334  0  0.119249  0.124651  0  0.976259  0
H  H14  1  0.27152769  0.92687695  0.53484170  1  0.054391  0  0.099967  0.111299  0  1.013077  0
H  H15  1  0.51519317  0.04577244  0.68478217  1  0.044042  0  0.102891  0.068038  0  0.962204  0
H  H16  1  0.50355241  0.91983919  0.63784451  1  0.029676  0  0.103456  0.071008  0  0.989462  0
H  H17  1  0.25243162  0.07697422  0.68541298  1  0.060539  0  0.090348  0.083038  0  0.980738  0
H  H18  1  0.23668050  0.95454462  0.63753704  1  0.014247  0  0.087451  0.079473  0  0.998322  0
H  H19  1  0.34465525  0.80409798  0.70789543  1  0.038453  0  0.082616  0.11168  0  1.019633  0
H  H20  1  0.19308929  0.88340327  0.73721718  1  0.022062  0  0.083047  0.107779  0  1.00666  0
H  H21  1  0.36619336  0.92523469  0.75613887  1  0.031783  0  0.087123  0.119322  0  0.998273  0
H  H22  1  0.67813218  0.03115399  0.35994569  1  0.01485  0  0.089234  0.043123  0  1.000087  0
H  H23  1  0.49155369  0.06075576  0.35067422  1  0.030265  0  0.098162  0.063038  0  0.983606  0
H  H24  1  0.88977524  0.60426424  0.57963070  1  0.118494  0  0.126835  0.111584  0  0.959345  0
H  H25  1  0.66373451  0.84109629  0.29999060  1  0.002385  0  0.088612  0.08003  0  0.981268  0
H  H26  1  0.48138185  0.87638180  0.28902532  1  0.040067  0  0.092946  0.087571  0  0.972061  0
H  H27  1  0.54451329  0.08093173  0.24309447  1  0.018205  0  0.086088  0.117238  0  0.99982  0
H  H28  1  0.62138705  0.95140500  0.20733408  1  0.053637  0  0.085266  0.117871  0  1.006526  0
H  H29  1  0.72727436  0.03970451  0.25218292  1  0.017994  0  0.079871  0.100699  0  1.012286  0
H  H30  1  0.80588572  0.95364823  0.64141639  1  0.03964  0  0.100612  0.065251  0  0.962891  0
H  H31  1  0.72329261  0.07778456  0.60315258  1  0.05983  0  0.104823  0.073447  0  0.989987  0
H  H32  1  0.00021322  0.93369376  0.57152879  1  0.013972  0  0.086143  0.07516  0  0.991927  0
H  H33  1  0.91264425  0.04262911  0.52696612  1  0.017153  0  0.086358  0.072083  0  1.027075  0
H  H34  1  0.93402983  0.20802785  0.59923814  1  0.013885  0  0.084482  0.108814  0  1.017844  0
H  H35  1  0.11241273  0.39629637  0.41994773  1  0.11279  0  0.127215  0.111791  0  0.961754  0
H  H36  1  0.10606766  0.14173922  0.58303612  1  0.034599  0  0.090026  0.124093  0  1.007055  0
H  H37  1  0.01804964  0.10093808  0.64596626  1  0.017237  0  0.086691  0.11244  0  1.016555  0
H  H38  1  0.08649733  0.12232090  0.41033561  1  0.037142  0  0.09927  0.061588  0  0.971832  0
H  H39  1  0.11589380  0.04600936  0.47586817  1  0.022681  0  0.092247  0.048479  0  1.026186  0
H  H40  1  0.18773673  0.93503868  0.36019158  1  0.018418  0  0.093976  0.092035  0  0.968479  0
H  H41  1  0.21084991  0.85763624  0.42499899  1  0.06602  0  0.091905  0.094262  0  0.990381  0
H  H42  1  0.94387074  0.87826853  0.44349933  1  0.03221  0  0.085336  0.11122  0  1.016687  0
H  H43  1  0.98002671  0.80202506  0.37895247  1  0.012791  0  0.086696  0.112208  0  1.010385  0
H  H44  1  0.92114045  0.95892319  0.37919455  1  0.004549  0  0.084612  0.107597  0  1.018992  0
H  H45  1  0.08392426  0.70808726  0.49789156  1  0.117943  0  0.123925  0.106663  0  0.97882  0
H  H46  1  0.91814643  0.29204053  0.50159108  1  0.135347  0  0.123354  0.10781  0  0.97729  0
H  H47  1  0.89487722  0.59805844  0.41770283  1  0.134825  0  0.1253  0.107049  0  0.972161  0
H  H48  1  0.10679105  0.40199928  0.58199960  1  0.136163  0  0.126358  0.110018  0  0.964992  0
H  H49  1  0.43774286  0.83099496  0.05191007  1  0.11704  0  0.118714  0.123782  0  0.977263  0
C  C50  1  0.49783560  0.73935091  0.49971760  1  1.603278  0  0.216975  0.622638  0  4.153829  0
C  C51  1  0.62722319  0.50517093  0.70359483  1  -0.042782  0  -0.078431  -0.073914  0  3.971704  0
C  C52  1  0.37275180  0.52637798  0.23826849  1  -0.005143  0  -0.085511  -0.156334  0  3.985345  0
C  C53  1  0.62783062  0.50931931  0.76199634  1  -0.013528  0  -0.085719  -0.155126  0  3.983351  0
C  C54  1  0.50178066  0.52402747  0.20903012  1  0.33296  0  0.088162  0.190545  0  4.026111  0
C  C55  1  0.49878720  0.51820075  0.79118577  1  0.332057  0  0.089227  0.197442  0  4.022304  0
C  C56  1  0.60775247  0.95419369  0.53411565  1  0.568815  0  0.07888  0.169284  0  3.740346  0
C  C57  1  0.39414459  0.04568983  0.46607912  1  0.565977  0  0.084484  0.178216  0  3.703583  0
C  C58  1  0.47620934  0.04322393  0.55307717  1  0.569711  0  0.083103  0.174444  0  3.743813  0
C  C59  1  0.52568032  0.95668353  0.44732714  1  0.586379  0  0.085146  0.179101  0  3.73738  0
C  C60  1  0.50262552  0.12455804  0.49931042  1  -0.04233  0  -0.018955  -0.12649  0  3.697367  0
C  C61  1  0.50414237  0.26076858  0.50070748  1  1.592764  0  0.216492  0.625961  0  4.15051  0
C  C62  1  0.50025870  0.87565923  0.50137413  1  -0.035195  0  -0.015103  -0.11767  0  3.692881  0
C  C63  1  0.63043621  0.03813030  0.48080682  1  -0.093016  0  -0.102365  -0.220159  0  3.681972  0
C  C64  1  0.37160424  0.96232777  0.51945088  1  -0.064826  0  -0.098079  -0.218184  0  3.682367  0
C  C65  1  0.50338331  0.50359177  0.38855687  1  1.573199  0  0.213959  0.589608  0  4.183805  0
C  C66  1  0.49796272  0.50559142  0.61144181  1  1.583361  0  0.213324  0.588868  0  4.184592  0
C  C67  1  0.03937180  0.61693549  0.49872581  1  0.22696  0  0.031729  0.035353  0  3.543883  0
C  C68  1  0.96261961  0.38324229  0.50086819  1  0.176281  0  0.029472  0.030131  0  3.552748  0
C  C69  1  0.94659176  0.55851938  0.54483929  1  0.204452  0  0.031605  0.032173  0  3.547277  0
C  C70  1  0.05548428  0.44168877  0.45480582  1  0.214838  0  0.031579  0.029975  0  3.547917  0
C  C71  1  0.94952790  0.55516868  0.45355949  1  0.186866  0  0.031476  0.032979  0  3.546693  0
C  C72  1  0.63113994  0.51750017  0.23719534  1  0.039641  0  -0.08416  -0.152706  0  3.985754  0
C  C73  1  0.05243448  0.44496117  0.54608833  1  0.206771  0  0.031096  0.029419  0  3.55228  0
C  C74  1  0.52393653  0.40600712  0.87940339  1  1.380917  0  0.243389  0.437618  0  4.104732  0
C  C75  1  0.47952416  0.63943752  0.12103071  1  1.362668  0  0.244161  0.432159  0  4.102828  0
C  C76  1  0.47502069  0.63540762  0.87815633  1  1.329379  0  0.244229  0.436365  0  4.101376  0
C  C77  1  0.52401967  0.40952646  0.12190836  1  1.313887  0  0.243921  0.431341  0  4.102003  0
C  C78  1  0.47628254  0.63455276  0.94050036  1  -0.033888  0  -0.003896  -0.057906  0  3.980809  0
C  C79  1  0.52450897  0.41089424  0.05964814  1  0.060768  0  -0.003739  -0.058803  0  3.985419  0
C  C80  1  0.50051307  0.52235429  0.97020151  1  -0.062926  0  0.004198  0.030087  0  4.003151  0
C  C81  1  0.50104319  0.52329936  0.03004283  1  0.041493  0  0.003993  0.028977  0  4.003045  0
C  C82  1  0.52414554  0.40919923  0.94164068  1  -0.11351  0  -0.004275  -0.058748  0  3.98507  0
C  C83  1  0.36952726  0.52352828  0.76290720  1  -0.083488  0  -0.083974  -0.153215  0  3.981473  0
C  C84  1  0.47819676  0.63650871  0.05870374  1  -0.047481  0  -0.003551  -0.058822  0  3.983602  0
C  C85  1  0.45381404  0.74439643  0.96959365  1  0.052318  0  -0.062765  -0.070025  0  3.930904  0
C  C86  1  0.54750780  0.30105198  0.03065238  1  -0.047057  0  -0.061831  -0.0687  0  3.931075  0
C  C87  1  0.45509116  0.74543754  0.02859655  1  -0.036749  0  -0.062119  -0.069718  0  3.931039  0
C  C88  1  0.54751579  0.30025641  0.97169544  1  -0.00578  0  -0.062485  -0.069473  0  3.934096  0
C  C89  1  0.45111240  0.00772567  0.65104832  1  0.403475  0  -0.068185  0.033046  0  3.88063  0
C  C90  1  0.30109043  0.98760276  0.67228362  1  -0.023424  0  -0.171473  -0.137434  0  3.992964  0
C  C91  1  0.30133618  0.89524950  0.72096562  1  -0.084259  0  -0.245149  -0.351975  0  3.97818  0
C  C92  1  0.57648905  0.98744651  0.35142880  1  0.407935  0  -0.069024  0.038723  0  3.90255  0
C  C93  1  0.58415670  0.91813018  0.29629184  1  0.031645  0  -0.167706  -0.128625  0  3.991198  0
C  C94  1  0.63108818  0.51174540  0.29557991  1  -0.065162  0  -0.076869  -0.072854  0  3.973587  0
C  C95  1  0.62136323  0.00217511  0.24709393  1  -0.073211  0  -0.244051  -0.352105  0  3.978324  0
C  C96  1  0.78877460  0.99161975  0.59891278  1  0.403272  0  -0.068955  0.03467  0  3.883567  0
C  C97  1  0.93078041  0.01810885  0.57126197  1  -0.022886  0  -0.173202  -0.144623  0  4.004779  0
C  C98  1  0.00160007  0.12292570  0.60134301  1  -0.047587  0  -0.246035  -0.368531  0  3.988706  0
C  C99  1  0.15403730  0.05198683  0.43203872  1  0.448091  0  -0.068524  0.039316  0  3.934009  0
C  C100  1  0.14384963  0.92794937  0.40301252  1  -0.036172  0  -0.17217  -0.147528  0  3.974863  0
C  C101  1  0.98935943  0.88960325  0.40117295  1  -0.056452  0  -0.243507  -0.352007  0  3.977234  0
C  C102  1  0.36972461  0.51979607  0.70448547  1  0.051286  0  -0.078055  -0.077395  0  3.980152  0
C  C103  1  0.50248066  0.51248713  0.32561382  1  -0.013122  0  -0.01093  -0.024882  0  3.946655  0
C  C104  1  0.49835118  0.51028157  0.67449319  1  0.001967  0  -0.012008  -0.026237  0  3.949487  0
C  C105  1  0.37346769  0.52068313  0.29667674  1  -0.023776  0  -0.076625  -0.07139  0  3.968866  0
N  N106  1  0.49921243  0.52020318  0.85184442  1  -1.207013  0  -0.230544  -0.227338  0  3.589835  0
N  N107  1  0.50161943  0.52481250  0.14835967  1  -1.181671  0  -0.229996  -0.210607  0  3.572059  0
N  N108  1  0.85881272  0.49641605  0.49966988  1  -0.84955  0  -0.311659  -0.169849  0  3.079552  0
N  N109  1  0.14320777  0.50368230  0.49999383  1  -0.848252  0  -0.312077  -0.169078  0  3.07764  0
O  O110  1  0.61767770  0.68070940  0.49906468  1  -1.150087  0  -0.314094  -0.52923  0  2.31757  0
O  O111  1  0.46268103  0.73513778  0.14801755  1  -1.102778  0  -0.270365  -0.429393  0  2.074156  0
O  O112  1  0.45473482  0.72994968  0.85026102  1  -1.093286  0  -0.270014  -0.429709  0  2.075947  0
O  O113  1  0.54163521  0.31451370  0.14967828  1  -1.093991  0  -0.269703  -0.428038  0  2.075278  0
O  O114  1  0.45422064  0.09646618  0.60515128  1  -1.060483  0  -0.213455  -0.247848  0  2.472025  0
O  O115  1  0.54783768  0.90098335  0.39609216  1  -1.065671  0  -0.206595  -0.235553  0  2.496059  0
O  O116  1  0.71056342  0.90103850  0.56897793  1  -1.062329  0  -0.214107  -0.247535  0  2.483952  0
O  O117  1  0.29323712  0.10089765  0.43106538  1  -1.07905  0  -0.210629  -0.240454  0  2.51808  0
O  O118  1  0.38435008  0.31901063  0.50514363  1  -1.149109  0  -0.316218  -0.535349  0  2.309372  0
O  O119  1  0.37585930  0.69259042  0.49844281  1  -1.162695  0  -0.318973  -0.551005  0  2.318986  0
O  O120  1  0.62567090  0.30835581  0.49782902  1  -1.155894  0  -0.321637  -0.549004  0  2.311797  0
O  O121  1  0.62433731  0.49787518  0.41212349  1  -1.157662  0  -0.318149  -0.549482  0  2.316999  0
O  O122  1  0.37725864  0.51428895  0.58768821  1  -1.168717  0  -0.319335  -0.549499  0  2.310761  0
O  O123  1  0.38309356  0.50192619  0.41344510  1  -1.161766  0  -0.318548  -0.551465  0  2.309758  0
O  O124  1  0.61832525  0.49388953  0.58675232  1  -1.16668  0  -0.319395  -0.553089  0  2.306961  0
O  O125  1  0.54342394  0.31036581  0.85259173  1  -1.089634  0  -0.275026  -0.430759  0  2.063419  0
