# generated using pymatgen
data_FeH6C2(NO2)2
_symmetry_space_group_name_H-M   'P 1'
_cell_length_a   6.58516739
_cell_length_b   7.43146717
_cell_length_c   7.59302405
_cell_angle_alpha   72.76034046
_cell_angle_beta   64.29464589
_cell_angle_gamma   63.70329948
_symmetry_Int_Tables_number   1
_chemical_formula_structural   FeH6C2(NO2)2
_chemical_formula_sum   'Fe2 H12 C4 N4 O8'
_cell_volume   297.65291141
_cell_formula_units_Z   2
loop_
 _symmetry_equiv_pos_site_id
 _symmetry_equiv_pos_as_xyz
  1  'x, y, z'
loop_
 _atom_site_type_symbol
 _atom_site_label
 _atom_site_symmetry_multiplicity
 _atom_site_fract_x
 _atom_site_fract_y
 _atom_site_fract_z
 _atom_site_occupancy
 _atom_site_pbe_cm5_charge
 _atom_site_pbe_ddec_charge
 _atom_site_pbe_ddec_spin_density
 _atom_site_pbe_ddec_sum_bond_order
 _atom_site_pbe_magmom
Fe  Fe0  1  0.74232321  0.25004949  0.74996064  1  0.584522  0.647537  0.037169  3.081015  0.037
Fe  Fe1  1  0.24687220  0.75000269  0.25005776  1  0.670138  0.915222  3.89083  2.470491  3.631
H  H2  1  0.95693350  0.49473984  0.71002190  1  0.289128  0.317572  -0.0002  0.963836  0.0
H  H3  1  0.16165800  0.00515435  0.78973676  1  0.289336  0.318877  -0.000192  0.962984  0.0
H  H4  1  0.05547041  0.47597912  0.28577633  1  0.281808  0.320129  0.001006  0.991057  0.003
H  H5  1  0.81713531  0.02371852  0.21430849  1  0.282709  0.322786  0.001017  0.99042  0.003
H  H6  1  0.82747860  0.42016576  0.94527675  1  0.297244  0.327629  -1.1e-05  0.929739  0.0
H  H7  1  0.19281490  0.07955240  0.55448392  1  0.296662  0.326794  -1.1e-05  0.931213  0.0
H  H8  1  0.18234719  0.54399077  0.04816677  1  0.286928  0.326802  0.000376  0.963105  0.001
H  H9  1  0.77420064  0.95585261  0.45194419  1  0.286705  0.326397  0.00034  0.964444  0.001
H  H10  1  0.66240305  0.58943261  0.82062854  1  0.291635  0.318238  -0.000123  0.961357  0.0
H  H11  1  0.07210694  0.91047923  0.67941645  1  0.291925  0.319254  -0.000128  0.959316  0.0
H  H12  1  0.35096670  0.39073067  0.17520627  1  0.287136  0.319448  8.3e-05  0.974847  0.001
H  H13  1  0.91660590  0.10914374  0.32487529  1  0.287429  0.320379  6.4e-05  0.974343  0.001
C  C14  1  0.38250666  0.53438037  0.59191903  1  0.200961  0.441845  -0.017062  4.209281  -0.008
C  C15  1  0.50844427  0.96581410  0.90813337  1  0.201041  0.441171  -0.01767  4.212462  -0.008
C  C16  1  0.61754574  0.47231480  0.41955790  1  0.192527  0.428002  -0.019959  4.217596  -0.01
C  C17  1  0.50918385  0.02788150  0.08044369  1  0.194671  0.43226  -0.020175  4.210546  -0.011
N  N18  1  0.81110765  0.45666376  0.80931085  1  -0.777664  -0.763858  -3.8e-05  3.22804  0.0
N  N19  1  0.07694854  0.04323283  0.69054355  1  -0.777852  -0.765463  -4e-05  3.227559  0.0
N  N20  1  0.19724159  0.51787442  0.18334685  1  -0.788692  -0.846909  0.030783  3.137086  0.036
N  N21  1  0.89824123  0.98194351  0.31678769  1  -0.789778  -0.850631  0.030515  3.139579  0.036
O  O22  1  0.38967698  0.46480825  0.76465064  1  -0.282308  -0.462512  -0.004156  2.33101  -0.003
O  O23  1  0.61872666  0.03548371  0.73538650  1  -0.282007  -0.462469  -0.004824  2.331943  -0.003
O  O24  1  0.61449192  0.53257758  0.24618401  1  -0.30264  -0.514658  0.022616  2.306107  0.04
O  O25  1  0.39280934  0.96777307  0.25386332  1  -0.302676  -0.515111  0.022755  2.303527  0.04
O  O26  1  0.19016568  0.65209751  0.55321656  1  -0.307163  -0.521349  0.031957  2.348534  0.048
O  O27  1  0.39513974  0.84808831  0.94683442  1  -0.307936  -0.522015  0.03196  2.350221  0.048
O  O28  1  0.80828313  0.35724858  0.46469305  1  -0.295789  -0.470992  -0.008249  2.428529  -0.006
O  O29  1  0.63016976  0.14282872  0.03525668  1  -0.297999  -0.474375  -0.008634  2.425869  -0.007
