# generated using pymatgen
data_SnH12C11N2O5
_symmetry_space_group_name_H-M   'P 1'
_cell_length_a   7.33874585
_cell_length_b   11.47849120
_cell_length_c   17.91181026
_cell_angle_alpha   70.16929648
_cell_angle_beta   78.20816314
_cell_angle_gamma   71.34651966
_symmetry_Int_Tables_number   1
_chemical_formula_structural   SnH12C11N2O5
_chemical_formula_sum   'Sn4 H48 C44 N8 O20'
_cell_volume   1337.01528954
_cell_formula_units_Z   4
loop_
 _symmetry_equiv_pos_site_id
 _symmetry_equiv_pos_as_xyz
  1  'x, y, z'
loop_
 _atom_site_type_symbol
 _atom_site_label
 _atom_site_symmetry_multiplicity
 _atom_site_fract_x
 _atom_site_fract_y
 _atom_site_fract_z
 _atom_site_occupancy
 _atom_site_pbe_bader_charge
 _atom_site_pbe_bader_spin_density
 _atom_site_pbe_cm5_charge
 _atom_site_pbe_ddec_charge
 _atom_site_pbe_ddec_spin_density
 _atom_site_pbe_ddec_sum_bond_order
 _atom_site_pbe_magmom
Sn  Sn0  1  0.22615796  0.44624537  0.15491428  1  1.906947  0  0.603515  1.350847  0  3.315578  0
Sn  Sn1  1  0.82668787  0.05385683  0.34502852  1  1.90827  0  0.604163  1.352239  0  3.314815  0
Sn  Sn2  1  0.77383611  0.55376372  0.84508263  1  1.906834  0  0.603503  1.350735  0  3.315311  0
Sn  Sn3  1  0.17331994  0.94614782  0.65497867  1  1.908049  0  0.60413  1.3521  0  3.315007  0
H  H4  1  0.59377358  0.45635871  0.64434934  1  0.490862  0  0.345319  0.305013  0  0.890677  0
H  H5  1  0.69504473  0.04403014  0.85532706  1  0.491035  0  0.344692  0.303547  0  0.893112  0
H  H6  1  0.40622745  0.54365023  0.35564820  1  0.490614  0  0.345313  0.305054  0  0.8906  0
H  H7  1  0.30492607  0.95595537  0.14468239  1  0.490923  0  0.344707  0.303445  0  0.893102  0
H  H8  1  0.10643466  0.69505560  0.03156207  1  0.62504  0  0.285507  0.347892  0  1.012293  0
H  H9  1  0.83267075  0.80499752  0.46830274  1  0.622608  0  0.285691  0.347738  0  1.012897  0
H  H10  1  0.89356367  0.30493086  0.96844355  1  0.625002  0  0.285477  0.347842  0  1.012359  0
H  H11  1  0.16733019  0.19500011  0.53169169  1  0.62257  0  0.285683  0.347811  0  1.012803  0
H  H12  1  0.34017103  0.63212657  0.01524515  1  0.657758  0  0.294012  0.385368  0  0.95659  0
H  H13  1  0.98726832  0.86776561  0.48466679  1  0.652808  0  0.293184  0.383517  0  0.959128  0
H  H14  1  0.65982429  0.36786986  0.98475775  1  0.657731  0  0.294043  0.385371  0  0.956562  0
H  H15  1  0.01273568  0.13223696  0.51533020  1  0.652791  0  0.293207  0.383584  0  0.959038  0
H  H16  1  0.61913186  0.67818489  0.62751217  1  0.189395  0  0.143333  0.106635  0  1.015465  0
H  H17  1  0.92574870  0.82213354  0.87228932  1  0.17198  0  0.143611  0.106723  0  1.014495  0
H  H18  1  0.38086760  0.32182172  0.37248352  1  0.189719  0  0.143337  0.106682  0  1.015339  0
H  H19  1  0.07421535  0.17786106  0.12771724  1  0.172006  0  0.143676  0.106827  0  1.014642  0
H  H20  1  0.88601561  0.67591865  0.34695926  1  0.118327  0  0.115088  0.143807  0  0.99471  0
H  H21  1  0.90853047  0.82420523  0.15300895  1  0.152342  0  0.114671  0.142551  0  0.996337  0
H  H22  1  0.11399315  0.32408866  0.65303736  1  0.118321  0  0.115114  0.14384  0  0.994789  0
H  H23  1  0.09146266  0.17578769  0.84698947  1  0.152324  0  0.114626  0.142537  0  0.996339  0
H  H24  1  0.69902129  0.28584719  0.54145399  1  0.105643  0  0.115902  0.134068  0  0.985707  0
H  H25  1  0.52582873  0.21432759  0.95836750  1  0.107722  0  0.115446  0.133783  0  0.985778  0
H  H26  1  0.30095667  0.71416396  0.45854215  1  0.105519  0  0.115944  0.134159  0  0.985661  0
H  H27  1  0.47416586  0.78567665  0.04163392  1  0.107635  0  0.115429  0.133776  0  0.985815  0
H  H28  1  0.55865043  0.50638059  0.14054839  1  0.056283  0  0.092712  0.186032  0  1.028378  0
H  H29  1  0.20501044  0.99320478  0.35948915  1  0.075018  0  0.093071  0.1863  0  1.027742  0
H  H30  1  0.44135397  0.49362464  0.85944541  1  0.056435  0  0.092696  0.186029  0  1.028284  0
H  H31  1  0.79499374  0.00680850  0.64051328  1  0.075245  0  0.09308  0.186327  0  1.027591  0
H  H32  1  0.53804532  0.38677469  0.23450158  1  0.086496  0  0.093107  0.192753  0  1.045978  0
H  H33  1  0.15895057  0.11275168  0.26544750  1  0.09018  0  0.092573  0.191194  0  1.046929  0
H  H34  1  0.46197957  0.61323898  0.76549928  1  0.08636  0  0.093055  0.192681  0  1.046073  0
H  H35  1  0.84105482  0.88724745  0.73455207  1  0.090175  0  0.092598  0.19122  0  1.046922  0
H  H36  1  0.39698702  0.55234112  0.22160844  1  0.025707  0  0.080911  0.154746  0  1.049881  0
H  H37  1  0.16997009  0.94722568  0.27848795  1  0.024182  0  0.080328  0.154023  0  1.049594  0
H  H38  1  0.60301372  0.44766957  0.77838213  1  0.025975  0  0.080917  0.154817  0  1.049862  0
H  H39  1  0.83005352  0.05276872  0.72151935  1  0.024219  0  0.080321  0.153991  0  1.049623  0
H  H40  1  0.88901752  0.53158797  0.09419779  1  0.061706  0  0.091605  0.178472  0  1.032198  0
H  H41  1  0.51432647  0.96868632  0.40574750  1  0.06471  0  0.091829  0.17787  0  1.032516  0
H  H42  1  0.11098927  0.46841614  0.90580784  1  0.06164  0  0.091624  0.178579  0  1.032248  0
H  H43  1  0.48567216  0.03131694  0.59424301  1  0.064745  0  0.091806  0.177823  0  1.032474  0
H  H44  1  0.91551493  0.36899782  0.15695945  1  0.09105  0  0.096858  0.194494  0  1.018646  0
H  H45  1  0.44068256  0.13134959  0.34315022  1  0.083958  0  0.096641  0.193788  0  1.019089  0
H  H46  1  0.08448356  0.63099109  0.84304754  1  0.091079  0  0.096837  0.19447  0  1.018761  0
H  H47  1  0.55933042  0.86865572  0.65683955  1  0.083525  0  0.096578  0.193752  0  1.019113  0
H  H48  1  0.03852311  0.40141395  0.05688716  1  0.055597  0  0.088707  0.172325  0  1.062276  0
H  H49  1  0.49650663  0.09863120  0.44323207  1  0.05515  0  0.089142  0.173035  0  1.061658  0
H  H50  1  0.96148731  0.59858322  0.94311285  1  0.055449  0  0.088701  0.172336  0  1.062363  0
H  H51  1  0.50348972  0.90137077  0.55675990  1  0.054424  0  0.089199  0.173067  0  1.061674  0
C  C52  1  0.66053039  0.63256256  0.58038230  1  1.015724  0  0.168624  0.193881  0  3.943224  0
C  C53  1  0.87411015  0.86779410  0.91942154  1  1.033586  0  0.168544  0.19494  0  3.940177  0
C  C54  1  0.33947161  0.36744374  0.41961833  1  1.015115  0  0.168677  0.194043  0  3.942976  0
C  C55  1  0.12585478  0.13219845  0.08058576  1  1.032978  0  0.168376  0.194649  0  3.939738  0
C  C56  1  0.71788601  0.47966299  0.52225916  1  0.38509  0  0.094912  0.139871  0  4.048816  0
C  C57  1  0.71987159  0.02060645  0.97753634  1  0.365608  0  0.095087  0.140809  0  4.04741  0
C  C58  1  0.28210834  0.52033593  0.47774125  1  0.385024  0  0.094945  0.140013  0  4.048613  0
C  C59  1  0.28012501  0.97938382  0.02246893  1  0.365308  0  0.095001  0.140913  0  4.047575  0
C  C60  1  0.76576928  0.59101074  0.46765928  1  0.370656  0  0.088191  0.135022  0  4.058565  0
C  C61  1  0.82449374  0.90926073  0.03221149  1  0.386003  0  0.088024  0.135771  0  4.057345  0
C  C62  1  0.23423456  0.40899795  0.53233922  1  0.370914  0  0.088229  0.135052  0  4.058915  0
C  C63  1  0.17550071  0.09073083  0.96779604  1  0.385788  0  0.088042  0.135694  0  4.05745  0
C  C64  1  0.84391955  0.59245646  0.38944301  1  0.025414  0  -0.079342  -0.163765  0  3.919971  0
C  C65  1  0.82554359  0.90771818  0.11050247  1  -0.040099  0  -0.078553  -0.16212  0  3.919651  0
C  C66  1  0.15608580  0.40754296  0.61055540  1  0.025447  0  -0.079351  -0.163736  0  3.919929  0
C  C67  1  0.17444446  0.09227864  0.88950261  1  -0.040121  0  -0.078494  -0.162084  0  3.91946  0
C  C68  1  0.87442734  0.48113204  0.36769007  1  0.00942  0  -0.020762  -0.064039  0  3.980759  0
C  C69  1  0.72268185  0.01896584  0.13226521  1  -0.025287  0  -0.020378  -0.0639  0  3.980525  0
C  C70  1  0.12557409  0.51887609  0.63230699  1  0.009227  0  -0.020828  -0.064094  0  3.980825  0
C  C71  1  0.27732132  0.98102825  0.86773967  1  -0.024876  0  -0.020372  -0.063792  0  3.979697  0
C  C72  1  0.81859080  0.37178254  0.42220902  1  0.010145  0  -0.014464  -0.056574  0  3.973584  0
C  C73  1  0.61206615  0.12829437  0.07766926  1  -0.00206  0  -0.014633  -0.055262  0  3.971953  0
C  C74  1  0.18140768  0.62821992  0.57778838  1  0.010032  0  -0.014459  -0.056532  0  3.973457  0
C  C75  1  0.38794663  0.87169009  0.92234063  1  -0.002078  0  -0.014693  -0.055362  0  3.971807  0
C  C76  1  0.74074711  0.37006933  0.50038403  1  -0.056549  0  -0.084638  -0.178867  0  3.980912  0
C  C77  1  0.61090502  0.13010866  0.99944460  1  0.007038  0  -0.084682  -0.180201  0  3.981031  0
C  C78  1  0.25924508  0.62994113  0.49961115  1  -0.056678  0  -0.084696  -0.179005  0  3.980632  0
C  C79  1  0.38908925  0.86988061  0.00056096  1  0.007246  0  -0.084585  -0.180183  0  3.981098  0
C  C80  1  0.99330029  0.47383351  0.29019622  1  1.542934  0  0.209653  0.550226  0  4.205914  0
C  C81  1  0.75647238  0.02618985  0.20983900  1  1.534685  0  0.209368  0.549574  0  4.206968  0
C  C82  1  0.00670297  0.52617024  0.70980350  1  1.543123  0  0.209534  0.549922  0  4.206243  0
C  C83  1  0.24352981  0.97379844  0.79015933  1  1.53471  0  0.20942  0.549409  0  4.206592  0
C  C84  1  0.82796599  0.25734925  0.39773824  1  1.559869  0  0.219925  0.564205  0  4.188989  0
C  C85  1  0.48254994  0.24269766  0.10219333  1  1.564722  0  0.220526  0.562697  0  4.191459  0
C  C86  1  0.17203052  0.74266359  0.60225859  1  1.560082  0  0.220035  0.56429  0  4.188678  0
C  C87  1  0.51744411  0.75729802  0.89781259  1  1.564824  0  0.220438  0.562642  0  4.191602  0
C  C88  1  0.46033971  0.47522729  0.19321827  1  -0.419331  0  -0.324651  -0.73488  0  3.707218  0
C  C89  1  0.12807439  0.02447501  0.30679335  1  -0.440892  0  -0.32401  -0.732961  0  3.706227  0
C  C90  1  0.53966776  0.52477776  0.80677250  1  -0.419575  0  -0.324552  -0.734832  0  3.707157  0
C  C91  1  0.87193141  0.97552842  0.69321131  1  -0.441136  0  -0.324032  -0.732951  0  3.706107  0
C  C92  1  0.98763785  0.43454476  0.10988758  1  -0.457287  0  -0.323083  -0.744609  0  3.699892  0
C  C93  1  0.53162566  0.06568028  0.39013078  1  -0.453014  0  -0.323612  -0.744498  0  3.700778  0
C  C94  1  0.01238564  0.56545037  0.89011681  1  -0.457041  0  -0.323104  -0.744669  0  3.699968  0
C  C95  1  0.46837956  0.93432334  0.60986204  1  -0.451754  0  -0.323588  -0.744406  0  3.700831  0
N  N96  1  0.72765503  0.68450808  0.50609109  1  -1.210411  0  -0.321532  -0.339273  0  3.301765  0
N  N97  1  0.91869453  0.81580502  0.99375861  1  -1.188245  0  -0.32053  -0.339544  0  3.299723  0
N  N98  1  0.27234836  0.31549825  0.49390944  1  -1.210502  0  -0.321619  -0.339527  0  3.301803  0
N  N99  1  0.08127932  0.18419402  0.00623763  1  -1.187679  0  -0.320508  -0.33946  0  3.299444  0
N  N100  1  0.65172876  0.51012428  0.59313407  1  -1.268081  0  -0.374476  -0.273187  0  3.623511  0
N  N101  1  0.75532301  0.99019405  0.90662511  1  -1.266175  0  -0.375098  -0.273676  0  3.62328  0
N  N102  1  0.34826987  0.48988409  0.40686203  1  -1.267577  0  -0.374443  -0.273293  0  3.62319  0
N  N103  1  0.24466869  0.00979235  0.09337704  1  -1.265911  0  -0.37487  -0.273315  0  3.623052  0
O  O104  1  0.10843686  0.36442316  0.28633494  1  -1.162474  0  -0.281385  -0.528036  0  2.202387  0
O  O105  1  0.75840730  0.13555291  0.21374423  1  -1.158323  0  -0.280702  -0.526955  0  2.203333  0
O  O106  1  0.89157452  0.63559018  0.71366356  1  -1.162433  0  -0.281329  -0.527904  0  2.202341  0
O  O107  1  0.24160116  0.86443086  0.78625363  1  -1.158519  0  -0.280659  -0.526805  0  2.203288  0
O  O108  1  0.98988109  0.57505725  0.23111331  1  -1.180285  0  -0.295667  -0.537912  0  2.132875  0
O  O109  1  0.79512022  0.92499130  0.26892440  1  -1.180756  0  -0.295481  -0.538159  0  2.134514  0
O  O110  1  0.01011151  0.42494562  0.76888617  1  -1.180274  0  -0.295639  -0.537787  0  2.132868  0
O  O111  1  0.20488663  0.07501074  0.73107471  1  -1.180605  0  -0.295498  -0.538108  0  2.134394  0
O  O112  1  0.76852662  0.27344148  0.33188183  1  -1.161653  0  -0.276347  -0.52535  0  2.221669  0
O  O113  1  0.37343872  0.22665460  0.16801595  1  -1.170671  0  -0.276336  -0.523908  0  2.222291  0
O  O114  1  0.23148235  0.72655277  0.66811866  1  -1.161519  0  -0.276412  -0.525375  0  2.221415  0
O  O115  1  0.62656847  0.77333019  0.83199262  1  -1.170598  0  -0.276251  -0.523827  0  2.222339  0
O  O116  1  0.88410250  0.14422077  0.44587733  1  -1.181709  0  -0.282383  -0.534464  0  2.193653  0
O  O117  1  0.47402503  0.35582479  0.05413133  1  -1.182788  0  -0.282536  -0.534389  0  2.195783  0
O  O118  1  0.11588049  0.85578495  0.55412194  1  -1.181858  0  -0.282432  -0.534507  0  2.193713  0
O  O119  1  0.52596257  0.64417313  0.94587308  1  -1.182973  0  -0.282551  -0.534419  0  2.195882  0
O  O120  1  0.22589075  0.63279797  0.05718040  1  -1.29078  0  -0.549748  -0.755291  0  2.182235  0
O  O121  1  0.91562305  0.86712097  0.44268461  1  -1.284747  0  -0.549474  -0.753998  0  2.18345  0
O  O122  1  0.77410072  0.36719154  0.94282421  1  -1.290732  0  -0.54982  -0.75532  0  2.182095  0
O  O123  1  0.08439285  0.13286817  0.55731035  1  -1.284737  0  -0.549481  -0.754123  0  2.183482  0
