# generated using pymatgen
data_AlH12C33(NO4)3
_symmetry_space_group_name_H-M   'P 1'
_cell_length_a   3.97738214
_cell_length_b   20.42237267
_cell_length_c   20.48894676
_cell_angle_alpha   60.06727894
_cell_angle_beta   87.28345500
_cell_angle_gamma   87.18404626
_symmetry_Int_Tables_number   1
_chemical_formula_structural   AlH12C33(NO4)3
_chemical_formula_sum   'Al1 H12 C33 N3 O12'
_cell_volume   1440.02916749
_cell_formula_units_Z   1
loop_
 _symmetry_equiv_pos_site_id
 _symmetry_equiv_pos_as_xyz
  1  'x, y, z'
loop_
 _atom_site_type_symbol
 _atom_site_label
 _atom_site_symmetry_multiplicity
 _atom_site_fract_x
 _atom_site_fract_y
 _atom_site_fract_z
 _atom_site_occupancy
 _atom_site_pbe_bader_charge
 _atom_site_pbe_bader_spin_density
 _atom_site_pbe_cm5_charge
 _atom_site_pbe_ddec_charge
 _atom_site_pbe_ddec_spin_density
 _atom_site_pbe_ddec_sum_bond_order
 _atom_site_pbe_magmom
Al  Al0  1  0.02853893  0.49947629  0.49995159  1  2.505132  0  0.427616  1.593962  0  2.576757  0
H  H1  1  0.81962822  0.30724765  0.70600865  1  0.09598  0  0.112681  0.118263  0  0.98272  0
H  H2  1  0.80310919  0.23413424  0.84696511  1  0.082852  0  0.114884  0.124337  0  0.97313  0
H  H3  1  0.23873338  0.70900086  0.30640353  1  0.101424  0  0.112892  0.118294  0  0.982072  0
H  H4  1  0.24586456  0.85042953  0.23405839  1  0.080365  0  0.114692  0.124002  0  0.975901  0
H  H5  1  0.27315893  0.30790655  0.48532180  1  0.073943  0  0.112541  0.118113  0  0.983332  0
H  H6  1  0.29718929  0.23455363  0.41718336  1  0.094097  0  0.114555  0.123162  0  0.975351  0
H  H7  1  0.77733842  0.70690471  0.48454325  1  0.119325  0  0.112981  0.118505  0  0.983179  0
H  H8  1  0.75692775  0.84841775  0.41619313  1  0.088616  0  0.114622  0.123335  0  0.975994  0
H  H9  1  0.20607492  0.48478602  0.70971622  1  0.11416  0  0.11257  0.117463  0  0.982854  0
H  H10  1  0.21833545  0.41599606  0.85057246  1  0.103555  0  0.114954  0.124302  0  0.973898  0
H  H11  1  0.86565512  0.48087396  0.30727328  1  0.110781  0  0.11264  0.117968  0  0.98328  0
H  H12  1  0.86297148  0.41184484  0.23502853  1  0.126921  0  0.114907  0.124552  0  0.973705  0
C  C13  1  0.51626808  0.44183157  0.61601760  1  1.607713  0  0.275335  0.647454  0  4.064353  0
C  C14  1  0.55536362  0.44101229  0.44185928  1  1.543482  0  0.274604  0.645883  0  4.066708  0
C  C15  1  0.51430125  0.61591667  0.44155450  1  1.607709  0  0.275225  0.647036  0  4.067051  0
C  C16  1  0.68330081  0.32966827  0.73834740  1  0.149067  0  -0.074644  -0.085805  0  3.975869  0
C  C17  1  0.67617167  0.28930506  0.81650368  1  -0.122127  0  -0.071714  -0.117365  0  3.93453  0
C  C18  1  0.35610676  0.74017499  0.32916545  1  -0.115554  0  -0.07419  -0.084738  0  3.97495  0
C  C19  1  0.35808352  0.81857104  0.28924304  1  0.084602  0  -0.071977  -0.118218  0  3.933289  0
C  C20  1  0.40749806  0.32915056  0.43130156  1  -0.048859  0  -0.074993  -0.086569  0  3.976813  0
C  C21  1  0.41923455  0.28863719  0.39339743  1  0.054303  0  -0.071849  -0.115297  0  3.932888  0
C  C22  1  0.65607059  0.73904587  0.43041468  1  -0.095488  0  -0.074455  -0.085393  0  3.976042  0
C  C23  1  0.64644681  0.81744295  0.39240298  1  0.065166  0  -0.072268  -0.11721  0  3.933981  0
C  C24  1  0.34073412  0.43056234  0.74037151  1  -0.055768  0  -0.074153  -0.085026  0  3.974516  0
C  C25  1  0.34548635  0.39221873  0.81851143  1  -0.009293  0  -0.07159  -0.116618  0  3.931321  0
C  C26  1  0.73727809  0.42762236  0.33006254  1  -0.070917  0  -0.074867  -0.086172  0  3.976311  0
C  C27  1  0.73782648  0.38912637  0.29018002  1  0.035485  0  -0.071276  -0.116809  0  3.932736  0
C  C28  1  0.51255005  0.39998143  0.69982390  1  -0.113939  0  -0.005602  -0.032198  0  3.949751  0
C  C29  1  0.51014236  0.32061981  0.85751410  1  0.040489  0  0.006863  0.122826  0  4.110416  0
C  C30  1  0.51044660  0.28075663  0.93698173  1  -0.404175  0  -0.003102  -0.017147  0  4.005081  0
C  C31  1  0.51171139  0.24666893  0.00562702  1  0.257873  0  -0.046044  -0.102218  0  4.126788  0
C  C32  1  0.51668024  0.20736439  0.08481403  1  0.181731  0  0.022523  0.070665  0  4.103162  0
C  C33  1  0.50805395  0.69998200  0.39951396  1  -0.075974  0  -0.005092  -0.031963  0  3.949284  0
C  C34  1  0.50046218  0.85814604  0.32084740  1  0.060037  0  0.008426  0.1247  0  4.107827  0
C  C35  1  0.49910493  0.93782647  0.28107731  1  0.014783  0  -0.002589  -0.015541  0  3.995871  0
C  C36  1  0.50017124  0.00666389  0.24647035  1  -0.160571  0  -0.043356  -0.097415  0  4.122959  0
C  C37  1  0.50901893  0.08593101  0.20652549  1  0.136785  0  0.022973  0.070209  0  4.112074  0
C  C38  1  0.56833620  0.39848619  0.40027566  1  0.00803  0  -0.004316  -0.030676  0  3.947484  0
C  C39  1  0.58031423  0.31884973  0.32170551  1  0.014005  0  0.006873  0.122414  0  4.111884  0
C  C40  1  0.57777433  0.27957273  0.28137897  1  -0.138669  0  -0.003389  -0.017567  0  4.000535  0
C  C41  1  0.56910128  0.24657427  0.24570850  1  -0.084992  0  -0.043301  -0.098454  0  4.123691  0
C  C42  1  0.55047085  0.20748239  0.20576644  1  0.211362  0  0.022243  0.07073  0  4.10861  0
C  C43  1  0.49599848  0.12774607  0.12698713  1  0.172495  0  0.091976  -0.012132  0  3.808129  0
C  C44  1  0.53412103  0.12784926  0.24382825  1  0.257534  0  0.091639  -0.01238  0  3.814146  0
C  C45  1  0.54473457  0.24541884  0.12609965  1  0.250422  0  0.091785  -0.011717  0  3.803793  0
N  N46  1  0.54451912  0.08638937  0.32659058  1  0.395991  0  0.059224  0.525353  0  4.214376  0
N  N47  1  0.57021471  0.32811425  0.08455386  1  0.367199  0  0.056682  0.519835  0  4.208954  0
N  N48  1  0.45689108  0.08611352  0.08654677  1  0.390272  0  0.057882  0.523426  0  4.210471  0
O  O49  1  0.28965264  0.58269886  0.42713916  1  -1.254198  0  -0.23693  -0.594836  0  2.363237  0
O  O50  1  0.27561257  0.48940810  0.58313473  1  -1.256127  0  -0.236633  -0.593304  0  2.35924  0
O  O51  1  0.31393064  0.42698983  0.49002585  1  -1.255162  0  -0.238448  -0.599115  0  2.376763  0
O  O52  1  0.74485092  0.58224322  0.48964152  1  -1.261068  0  -0.237701  -0.59796  0  2.373572  0
O  O53  1  0.78396882  0.48857768  0.42710312  1  -1.249341  0  -0.236721  -0.592473  0  2.358754  0
O  O54  1  0.76142768  0.42720545  0.58223081  1  -1.259361  0  -0.238991  -0.598993  0  2.373014  0
O  O55  1  0.75230236  0.03318724  0.35552299  1  -0.431595  0  -0.115759  -0.311757  0  1.931346  0
O  O56  1  0.34520287  0.10793006  0.36062240  1  -0.42436  0  -0.113089  -0.307138  0  1.92836  0
O  O57  1  0.77184981  0.35537679  0.10810212  1  -0.436771  0  -0.119831  -0.316431  0  1.951075  0
O  O58  1  0.39010341  0.36432892  0.02936841  1  -0.420965  0  -0.115421  -0.307317  0  1.942896  0
O  O59  1  0.63811064  0.10344126  0.02994335  1  -0.417382  0  -0.113334  -0.304559  0  1.932438  0
O  O60  1  0.24232733  0.03669609  0.11252222  1  -0.441031  0  -0.11916  -0.318276  0  1.947055  0
