# generated using pymatgen
data_BaH14C10(NO3)4
_symmetry_space_group_name_H-M   'P 1'
_cell_length_a   6.39313632
_cell_length_b   10.49139458
_cell_length_c   13.86827559
_cell_angle_alpha   93.01246207
_cell_angle_beta   103.30785861
_cell_angle_gamma   107.72546003
_symmetry_Int_Tables_number   1
_chemical_formula_structural   BaH14C10(NO3)4
_chemical_formula_sum   'Ba2 H28 C20 N8 O24'
_cell_volume   854.65501407
_cell_formula_units_Z   2
loop_
 _symmetry_equiv_pos_site_id
 _symmetry_equiv_pos_as_xyz
  1  'x, y, z'
loop_
 _atom_site_type_symbol
 _atom_site_label
 _atom_site_symmetry_multiplicity
 _atom_site_fract_x
 _atom_site_fract_y
 _atom_site_fract_z
 _atom_site_occupancy
 _atom_site_hle17_bader_spin_density
 _atom_site_hle17_ddec_charge
 _atom_site_hle17_ddec_spin_density
 _atom_site_hle17_ddec_sum_bond_order
 _atom_site_hle17_magmom
 _atom_site_hse06_10hf_bader_spin_density
 _atom_site_hse06_10hf_ddec_charge
 _atom_site_hse06_10hf_ddec_spin_density
 _atom_site_hse06_10hf_ddec_sum_bond_order
 _atom_site_hse06_10hf_magmom
 _atom_site_hse06_bader_spin_density
 _atom_site_hse06_ddec_charge
 _atom_site_hse06_ddec_spin_density
 _atom_site_hse06_ddec_sum_bond_order
 _atom_site_hse06_magmom
 _atom_site_pbe_bader_spin_density
 _atom_site_pbe_cm5_charge
 _atom_site_pbe_ddec_charge
 _atom_site_pbe_ddec_spin_density
 _atom_site_pbe_ddec_sum_bond_order
 _atom_site_pbe_magmom
Ba  Ba0  1  0.46790962  0.25004526  0.25006233  1  0  1.597976  0  1.157066  0  0  1.423917  0  1.576666  0  0  1.463783  0  1.531317  0  0  0.914803  1.394601  0  1.609144  0
Ba  Ba1  1  0.53209284  0.74995473  0.74993854  1  0  1.598015  0  1.157029  0  0  1.423935  0  1.57667  0  0  1.4638  0  1.531322  0  0  0.914822  1.394617  0  1.609148  0
H  H2  1  0.26059847  0.03328717  0.02715783  1  0  0.411948  0  0.880725  0  0  0.375735  0  0.963176  0  0  0.390405  0  0.946695  0  0  0.305991  0.365451  0  0.973729  0
H  H3  1  0.29984296  0.53312183  0.52700090  1  0  0.412996  0  0.87836  0  0  0.376499  0  0.961344  0  0  0.391188  0  0.945385  0  0  0.306341  0.366227  0  0.971913  0
H  H4  1  0.73940179  0.96670878  0.97284268  1  0  0.411989  0  0.880684  0  0  0.375862  0  0.96297  0  0  0.390543  0  0.946488  0  0  0.306032  0.365563  0  0.973559  0
H  H5  1  0.70016053  0.46688016  0.47299853  1  0  0.413002  0  0.878345  0  0  0.376502  0  0.96133  0  0  0.391193  0  0.945376  0  0  0.306356  0.366231  0  0.971898  0
H  H6  1  0.05540024  0.29587911  0.33733553  1  0  0.399923  0  0.915203  0  0  0.374694  0  0.971212  0  0  0.385326  0  0.955647  0  0  0.295131  0.366975  0  0.982491  0
H  H7  1  0.07769993  0.79597294  0.83735848  1  0  0.402102  0  0.912518  0  0  0.376831  0  0.968398  0  0  0.387522  0  0.952778  0  0  0.296095  0.369258  0  0.979446  0
H  H8  1  0.94460127  0.70412187  0.66266400  1  0  0.399932  0  0.915189  0  0  0.374704  0  0.971197  0  0  0.385336  0  0.955631  0  0  0.295129  0.366985  0  0.982475  0
H  H9  1  0.92230110  0.20402705  0.16264258  1  0  0.40216  0  0.912449  0  0  0.376892  0  0.968323  0  0  0.387581  0  0.952704  0  0  0.296096  0.369319  0  0.97937  0
H  H10  1  0.16949590  0.24234567  0.43091866  1  0  0.432611  0  0.867657  0  0  0.401357  0  0.930873  0  0  0.412549  0  0.914476  0  0  0.294556  0.393466  0  0.942436  0
H  H11  1  0.00346257  0.74240186  0.93091442  1  0  0.43261  0  0.867724  0  0  0.401643  0  0.930528  0  0  0.412795  0  0.914162  0  0  0.294558  0.393779  0  0.942054  0
H  H12  1  0.83050846  0.75765530  0.56908051  1  0  0.432578  0  0.867704  0  0  0.401314  0  0.930939  0  0  0.412506  0  0.914542  0  0  0.294532  0.393423  0  0.942502  0
H  H13  1  0.99653865  0.25759713  0.06908726  1  0  0.432601  0  0.867758  0  0  0.401635  0  0.930562  0  0  0.412787  0  0.914194  0  0  0.294523  0.393772  0  0.942086  0
H  H14  1  0.72152844  0.01073537  0.16661215  1  0  0.428038  0  0.872786  0  0  0.392454  0  0.943827  0  0  0.403755  0  0.927398  0  0  0.295865  0.38443  0  0.955498  0
H  H15  1  0.95600973  0.51082241  0.66659749  1  0  0.427968  0  0.872822  0  0  0.392113  0  0.944378  0  0  0.403432  0  0.927918  0  0  0.295506  0.384055  0  0.95612  0
H  H16  1  0.27847440  0.98926262  0.83338998  1  0  0.428042  0  0.872766  0  0  0.392464  0  0.9438  0  0  0.403766  0  0.927368  0  0  0.295877  0.38444  0  0.95547  0
H  H17  1  0.04399321  0.48917857  0.33340185  1  0  0.427986  0  0.872806  0  0  0.392133  0  0.94436  0  0  0.403449  0  0.927905  0  0  0.295505  0.384076  0  0.9561  0
H  H18  1  0.87555698  0.09956128  0.27405999  1  0  0.426366  0  0.865582  0  0  0.397917  0  0.92772  0  0  0.408731  0  0.911693  0  0  0.305395  0.39016  0  0.939255  0
H  H19  1  0.99817765  0.59963543  0.77405163  1  0  0.426655  0  0.865396  0  0  0.398318  0  0.927428  0  0  0.409159  0  0.911331  0  0  0.305085  0.390602  0  0.938894  0
H  H20  1  0.12444418  0.90043769  0.72594007  1  0  0.426353  0  0.865623  0  0  0.397903  0  0.927745  0  0  0.408717  0  0.911719  0  0  0.305393  0.390145  0  0.939283  0
H  H21  1  0.00182277  0.40036353  0.22594771  1  0  0.426638  0  0.86542  0  0  0.3983  0  0.927454  0  0  0.409142  0  0.911357  0  0  0.305076  0.390585  0  0.938918  0
H  H22  1  0.33974734  0.99759589  0.44465183  1  0  0.303004  0  0.85335  0  0  0.283295  0  0.9126  0  0  0.291244  0  0.905865  0  0  0.350877  0.277455  0  0.917896  0
H  H23  1  0.60208235  0.49776849  0.94443177  1  0  0.304253  0  0.853639  0  0  0.283952  0  0.91351  0  0  0.291934  0  0.906741  0  0  0.351203  0.278155  0  0.918674  0
H  H24  1  0.66025608  0.00240714  0.55535022  1  0  0.303  0  0.853398  0  0  0.283232  0  0.91271  0  0  0.291179  0  0.905986  0  0  0.350869  0.277395  0  0.918001  0
H  H25  1  0.39791554  0.50222846  0.05556758  1  0  0.304231  0  0.853704  0  0  0.283923  0  0.913573  0  0  0.291907  0  0.906804  0  0  0.351187  0.278126  0  0.918738  0
H  H26  1  0.13692255  0.65027932  0.23232108  1  0  0.140059  0  0.946665  0  0  0.149371  0  1.005277  0  0  0.153085  0  1.003313  0  0  0.119281  0.146438  0  1.007337  0
H  H27  1  0.24535026  0.15024563  0.73227706  1  0  0.14057  0  0.946017  0  0  0.148984  0  1.005717  0  0  0.152733  0  1.003689  0  0  0.118889  0.1462  0  1.007401  0
H  H28  1  0.86306960  0.34972271  0.76768142  1  0  0.140011  0  0.946692  0  0  0.14938  0  1.005248  0  0  0.153047  0  1.003339  0  0  0.119291  0.146451  0  1.007298  0
H  H29  1  0.75465430  0.84975328  0.26771850  1  0  0.140561  0  0.946105  0  0  0.14899  0  1.005767  0  0  0.152745  0  1.003742  0  0  0.11889  0.146204  0  1.00745  0
C  C30  1  0.17693357  0.88457421  0.11735389  1  0  0.668288  0  3.835643  0  0  0.612546  0  4.141302  0  0  0.646987  0  4.130345  0  0  0.243982  0.589071  0  4.148302  0
C  C31  1  0.32510061  0.38444305  0.61723386  1  0  0.66679  0  3.836901  0  0  0.610733  0  4.142748  0  0  0.645166  0  4.131884  0  0  0.244351  0.587275  0  4.149781  0
C  C32  1  0.82306622  0.11542479  0.88264797  1  0  0.668347  0  3.835543  0  0  0.612615  0  4.141174  0  0  0.647058  0  4.130219  0  0  0.244017  0.589139  0  4.148175  0
C  C33  1  0.67490246  0.61555690  0.38276450  1  0  0.666718  0  3.836907  0  0  0.610639  0  4.142766  0  0  0.645075  0  4.1319  0  0  0.244272  0.587183  0  4.1498  0
C  C34  1  0.20288724  0.87032712  0.22421116  1  0  0.013658  0  3.808437  0  0  0.013803  0  4.076153  0  0  0.010616  0  4.095005  0  0  0.090327  0.016019  0  4.063138  0
C  C35  1  0.39180228  0.37021093  0.72405729  1  0  0.013065  0  3.810204  0  0  0.013636  0  4.077312  0  0  0.010431  0  4.096221  0  0  0.088987  0.015704  0  4.064571  0
C  C36  1  0.79711495  0.12967491  0.77579169  1  0  0.013567  0  3.80851  0  0  0.01379  0  4.07611  0  0  0.010601  0  4.094954  0  0  0.090314  0.016006  0  4.063102  0
C  C37  1  0.60820024  0.62978802  0.27594097  1  0  0.01311  0  3.81027  0  0  0.013716  0  4.077334  0  0  0.010511  0  4.096242  0  0  0.089062  0.015783  0  4.064595  0
C  C38  1  0.18346572  0.75185060  0.26954776  1  0  -0.180724  0  3.704307  0  0  -0.218765  0  3.970451  0  0  -0.222689  0  3.991401  0  0  -0.089823  -0.216098  0  3.95668  0
C  C39  1  0.33778821  0.25181709  0.76945638  1  0  -0.179816  0  3.703736  0  0  -0.217618  0  3.969648  0  0  -0.221526  0  3.990526  0  0  -0.087933  -0.214912  0  3.955553  0
C  C40  1  0.81653106  0.24815343  0.73045366  1  0  -0.180826  0  3.704294  0  0  -0.218905  0  3.970446  0  0  -0.222787  0  3.991423  0  0  -0.089911  -0.216238  0  3.956679  0
C  C41  1  0.66221214  0.74818185  0.23054134  1  0  -0.17988  0  3.703984  0  0  -0.217698  0  3.96988  0  0  -0.221614  0  3.990773  0  0  -0.087998  -0.214992  0  3.955781  0
C  C42  1  0.24177780  0.79460278  0.37161026  1  0  0.043055  0  3.706669  0  0  0.027002  0  3.978065  0  0  0.026829  0  3.995053  0  0  0.091045  0.027181  0  3.966477  0
C  C43  1  0.42422289  0.29467237  0.87150538  1  0  0.042292  0  3.706798  0  0  0.027381  0  3.976234  0  0  0.027208  0  3.993244  0  0  0.090505  0.027539  0  3.964654  0
C  C44  1  0.75821525  0.20540227  0.62839180  1  0  0.043267  0  3.706412  0  0  0.027129  0  3.977985  0  0  0.02696  0  3.994959  0  0  0.091124  0.027312  0  3.966395  0
C  C45  1  0.57577493  0.70532455  0.12849234  1  0  0.042324  0  3.706952  0  0  0.027403  0  3.976406  0  0  0.027211  0  3.993449  0  0  0.090509  0.027562  0  3.964819  0
C  C46  1  0.40602229  0.22298074  0.96026182  1  0  0.651619  0  3.934678  0  0  0.597061  0  4.243922  0  0  0.631356  0  4.234614  0  0  0.221495  0.573803  0  4.249532  0
C  C47  1  0.27674282  0.72279160  0.46031275  1  0  0.650053  0  3.933721  0  0  0.595781  0  4.243093  0  0  0.630054  0  4.233801  0  0  0.221623  0.572568  0  4.248587  0
C  C48  1  0.59397812  0.77701822  0.03973752  1  0  0.651733  0  3.93439  0  0  0.597141  0  4.24369  0  0  0.63144  0  4.234383  0  0  0.221548  0.573882  0  4.249297  0
C  C49  1  0.72324885  0.27720838  0.53968705  1  0  0.650037  0  3.93382  0  0  0.595731  0  4.243281  0  0  0.630007  0  4.233991  0  0  0.221606  0.572518  0  4.248773  0
N  N50  1  0.26646655  0.97940064  0.29351973  1  0  -0.234088  0  3.011746  0  0  -0.215194  0  3.286148  0  0  -0.219318  0  3.300471  0  0  -0.256551  -0.211884  0  3.276611  0
N  N51  1  0.50662308  0.47933041  0.79331126  1  0  -0.234051  0  3.012055  0  0  -0.215287  0  3.28631  0  0  -0.219432  0  3.300645  0  0  -0.256827  -0.21199  0  3.276457  0
N  N52  1  0.73353585  0.02060040  0.70648375  1  0  -0.233958  0  3.011657  0  0  -0.215043  0  3.286  0  0  -0.219164  0  3.300325  0  0  -0.256478  -0.211731  0  3.276466  0
N  N53  1  0.49338073  0.52066955  0.20668781  1  0  -0.23406  0  3.012125  0  0  -0.215323  0  3.286365  0  0  -0.219465  0  3.300695  0  0  -0.256832  -0.212029  0  3.276517  0
N  N54  1  0.28704736  0.93137013  0.38078050  1  0  -0.122415  0  3.48079  0  0  -0.066134  0  3.720642  0  0  -0.075285  0  3.735138  0  0  -0.248472  -0.060112  0  3.711238  0
N  N55  1  0.52506829  0.43140451  0.88061199  1  0  -0.123857  0  3.481827  0  0  -0.067175  0  3.720993  0  0  -0.076362  0  3.735468  0  0  -0.248544  -0.061096  0  3.711341  0
N  N56  1  0.71294745  0.06863289  0.61922101  1  0  -0.122531  0  3.480672  0  0  -0.066209  0  3.720671  0  0  -0.075365  0  3.735166  0  0  -0.248513  -0.060189  0  3.711271  0
N  N57  1  0.47493300  0.56859343  0.11938708  1  0  -0.123815  0  3.482048  0  0  -0.067102  0  3.721195  0  0  -0.076284  0  3.735674  0  0  -0.248492  -0.061022  0  3.711543  0
O  O58  1  0.23560599  0.01141991  0.09943070  1  0  -0.598483  0  2.16312  0  0  -0.538563  0  2.404523  0  0  -0.56346  0  2.388303  0  0  -0.336872  -0.521152  0  2.414675  0
O  O59  1  0.37534664  0.51125132  0.59926597  1  0  -0.599187  0  2.162528  0  0  -0.539111  0  2.40427  0  0  -0.563947  0  2.38832  0  0  -0.337551  -0.521651  0  2.414304  0
O  O60  1  0.76439721  0.98858009  0.90057090  1  0  -0.598518  0  2.163028  0  0  -0.538671  0  2.404373  0  0  -0.563573  0  2.388159  0  0  -0.336908  -0.521251  0  2.414543  0
O  O61  1  0.62465487  0.48874965  0.40073356  1  0  -0.599162  0  2.162509  0  0  -0.539076  0  2.404242  0  0  -0.563911  0  2.388293  0  0  -0.33753  -0.521612  0  2.414267  0
O  O62  1  0.11067323  0.78272533  0.05463373  1  0  -0.562576  0  1.959366  0  0  -0.515327  0  2.173363  0  0  -0.536207  0  2.162787  0  0  -0.283567  -0.501003  0  2.180555  0
O  O63  1  0.22661975  0.28253072  0.55452406  1  0  -0.56214  0  1.958696  0  0  -0.51454  0  2.172578  0  0  -0.53542  0  2.162  0  0  -0.28362  -0.500254  0  2.1798  0
O  O64  1  0.88932725  0.21727472  0.94537147  1  0  -0.562597  0  1.959258  0  0  -0.515367  0  2.173265  0  0  -0.536247  0  2.162686  0  0  -0.283594  -0.501039  0  2.180455  0
O  O65  1  0.77338312  0.71747023  0.44547367  1  0  -0.562123  0  1.958595  0  0  -0.514524  0  2.172496  0  0  -0.535405  0  2.161918  0  0  -0.28363  -0.500237  0  2.179717  0
O  O66  1  0.46910296  0.29241616  0.04477223  1  0  -0.644076  0  1.916704  0  0  -0.596505  0  2.152088  0  0  -0.619646  0  2.141782  0  0  -0.337483  -0.58027  0  2.158836  0
O  O67  1  0.36706150  0.79215545  0.54487391  1  0  -0.643076  0  1.914125  0  0  -0.595468  0  2.149434  0  0  -0.618652  0  2.139234  0  0  -0.337793  -0.579145  0  2.156096  0
O  O68  1  0.53089738  0.70758277  0.95522550  1  0  -0.644152  0  1.916536  0  0  -0.596568  0  2.151943  0  0  -0.61971  0  2.141634  0  0  -0.337539  -0.580333  0  2.158684  0
O  O69  1  0.63293042  0.20784355  0.45512814  1  0  -0.643045  0  1.914189  0  0  -0.595452  0  2.149569  0  0  -0.618638  0  2.139371  0  0  -0.337793  -0.57913  0  2.156229  0
O  O70  1  0.31822716  0.09295362  0.94204209  1  0  -0.62071  0  2.017504  0  0  -0.551886  0  2.232627  0  0  -0.578447  0  2.221208  0  0  -0.300603  -0.533424  0  2.239863  0
O  O71  1  0.21672597  0.59278982  0.44199697  1  0  -0.619799  0  2.017356  0  0  -0.550755  0  2.23271  0  0  -0.577272  0  2.221339  0  0  -0.299889  -0.532368  0  2.240084  0
O  O72  1  0.68177338  0.90704432  0.05795626  1  0  -0.620762  0  2.017431  0  0  -0.551958  0  2.232536  0  0  -0.578518  0  2.221098  0  0  -0.300616  -0.533492  0  2.239784  0
O  O73  1  0.78327084  0.40720913  0.55800201  1  0  -0.619803  0  2.017408  0  0  -0.550721  0  2.232766  0  0  -0.577245  0  2.2214  0  0  -0.299874  -0.532333  0  2.240138  0
O  O74  1  0.12637177  0.22549169  0.35660288  1  0  -0.883633  0  1.85415  0  0  -0.825973  0  2.024291  0  0  -0.847112  0  1.992512  0  0  -0.616427  -0.810821  0  2.047002  0
O  O75  1  0.95565588  0.72554485  0.85660681  1  0  -0.885939  0  1.852801  0  0  -0.828729  0  2.023544  0  0  -0.849821  0  1.991526  0  0  -0.617376  -0.813519  0  2.045764  0
O  O76  1  0.87362994  0.77450829  0.64339728  1  0  -0.883615  0  1.854176  0  0  -0.825953  0  2.024325  0  0  -0.847093  0  1.992547  0  0  -0.6164  -0.810801  0  2.047036  0
O  O77  1  0.04434602  0.27445413  0.14339398  1  0  -0.885992  0  1.852758  0  0  -0.82878  0  2.023483  0  0  -0.849875  0  1.991475  0  0  -0.617343  -0.813569  0  2.045702  0
O  O78  1  0.74208009  0.08788410  0.21703930  1  0  -0.87065  0  1.863199  0  0  -0.808898  0  2.039927  0  0  -0.830745  0  2.008842  0  0  -0.601656  -0.793355  0  2.061706  0
O  O79  1  0.06303035  0.58792958  0.71703015  1  0  -0.870699  0  1.862918  0  0  -0.809086  0  2.039371  0  0  -0.830928  0  2.008288  0  0  -0.600913  -0.793362  0  2.06152  0
O  O80  1  0.25792052  0.91211386  0.78296068  1  0  -0.870649  0  1.863222  0  0  -0.8089  0  2.039941  0  0  -0.830748  0  2.008855  0  0  -0.601666  -0.793355  0  2.06172  0
O  O81  1  0.93697042  0.41207139  0.28296866  1  0  -0.870696  0  1.86291  0  0  -0.809093  0  2.039368  0  0  -0.830936  0  2.008289  0  0  -0.600906  -0.793365  0  2.061515  0
