# generated using pymatgen
data_ZnH12C18(N3O2)2
_symmetry_space_group_name_H-M   'P 1'
_cell_length_a   8.03503771
_cell_length_b   11.74261771
_cell_length_c   11.82122103
_cell_angle_alpha   114.14300538
_cell_angle_beta   102.20144964
_cell_angle_gamma   104.98528078
_symmetry_Int_Tables_number   1
_chemical_formula_structural   ZnH12C18(N3O2)2
_chemical_formula_sum   'Zn2 H24 C36 N12 O8'
_cell_volume   917.36220938
_cell_formula_units_Z   2
loop_
 _symmetry_equiv_pos_site_id
 _symmetry_equiv_pos_as_xyz
  1  'x, y, z'
loop_
 _atom_site_type_symbol
 _atom_site_label
 _atom_site_symmetry_multiplicity
 _atom_site_fract_x
 _atom_site_fract_y
 _atom_site_fract_z
 _atom_site_occupancy
 _atom_site_hle17_bader_spin_density
 _atom_site_hle17_ddec_charge
 _atom_site_hle17_ddec_spin_density
 _atom_site_hle17_ddec_sum_bond_order
 _atom_site_hle17_magmom
 _atom_site_hse06_10hf_bader_spin_density
 _atom_site_hse06_10hf_ddec_charge
 _atom_site_hse06_10hf_ddec_spin_density
 _atom_site_hse06_10hf_ddec_sum_bond_order
 _atom_site_hse06_10hf_magmom
 _atom_site_hse06_bader_spin_density
 _atom_site_hse06_ddec_charge
 _atom_site_hse06_ddec_spin_density
 _atom_site_hse06_ddec_sum_bond_order
 _atom_site_hse06_magmom
 _atom_site_pbe_bader_spin_density
 _atom_site_pbe_cm5_charge
 _atom_site_pbe_ddec_charge
 _atom_site_pbe_ddec_spin_density
 _atom_site_pbe_ddec_sum_bond_order
 _atom_site_pbe_magmom
Zn  Zn0  1  0.72061954  0.02742752  0.23112298  1  0  1.02616  0  1.8715  0  0  0.837629  0  2.353101  0  0  0.883453  0  2.297971  0  0  0.713028  0.805264  0  2.391552  0
Zn  Zn1  1  0.98939186  0.79639139  0.76908383  1  0  1.02547  0  1.873219  0  0  0.836953  0  2.355151  0  0  0.882833  0  2.299934  0  0  0.713252  0.804858  0  2.393401  0
H  H2  1  0.89271105  0.38628600  0.22795465  1  0  0.101359  0  0.961078  0  0  0.111053  0  1.02182  0  0  0.114036  0  1.01972  0  0  0.104895  0.108855  0  1.023426  0
H  H3  1  0.16448253  0.15833040  0.77195795  1  0  0.102097  0  0.960103  0  0  0.11137  0  1.021294  0  0  0.11434  0  1.01921  0  0  0.104904  0.109105  0  1.023018  0
H  H4  1  0.95104092  0.59043745  0.19789065  1  0  0.113692  0  0.941555  0  0  0.122331  0  1.001861  0  0  0.125798  0  1.000325  0  0  0.108682  0.119935  0  1.002914  0
H  H5  1  0.25263380  0.39256459  0.80205130  1  0  0.113367  0  0.942158  0  0  0.122297  0  1.002087  0  0  0.125652  0  1.000677  0  0  0.108529  0.119859  0  1.003234  0
H  H6  1  0.69229233  0.32838872  0.77334745  1  0  0.103322  0  1.009517  0  0  0.104124  0  1.085914  0  0  0.108285  0  1.083294  0  0  0.100777  0.101018  0  1.088005  0
H  H7  1  0.41853205  0.55519488  0.22657088  1  0  0.102837  0  1.010694  0  0  0.103895  0  1.086762  0  0  0.108099  0  1.084101  0  0  0.100711  0.100899  0  1.08877  0
H  H8  1  0.64307204  0.12722774  0.80510515  1  0  0.089114  0  0.962632  0  0  0.098138  0  1.026761  0  0  0.100633  0  1.025658  0  0  0.101267  0.096477  0  1.027381  0
H  H9  1  0.33796352  0.32227214  0.19478901  1  0  0.090442  0  0.963138  0  0  0.09923  0  1.027231  0  0  0.101644  0  1.026238  0  0  0.101847  0.09757  0  1.027895  0
H  H10  1  0.92510502  0.89180682  0.05756832  1  0  0.1145  0  0.929491  0  0  0.120714  0  0.994188  0  0  0.123946  0  0.989919  0  0  0.141916  0.118131  0  0.997734  0
H  H11  1  0.36748872  0.83450926  0.94266421  1  0  0.11446  0  0.928685  0  0  0.120827  0  0.993306  0  0  0.124072  0  0.989016  0  0  0.14161  0.118201  0  0.99692  0
H  H12  1  0.89668127  0.51582418  0.77607527  1  0  0.120475  0  0.934224  0  0  0.125711  0  1.003051  0  0  0.129013  0  0.998562  0  0  0.150224  0.12318  0  1.006401  0
H  H13  1  0.62063801  0.73969461  0.22373342  1  0  0.120153  0  0.933659  0  0  0.125388  0  1.002458  0  0  0.128727  0  0.997931  0  0  0.150142  0.122959  0  1.005581  0
H  H14  1  0.96562147  0.34175399  0.38997268  1  0  0.104652  0  0.971465  0  0  0.110176  0  1.041168  0  0  0.114007  0  1.037765  0  0  0.103541  0.107349  0  1.043754  0
H  H15  1  0.07564080  0.95143864  0.60994440  1  0  0.105198  0  0.969057  0  0  0.11058  0  1.038987  0  0  0.114388  0  1.035583  0  0  0.103379  0.107754  0  1.041617  0
H  H16  1  0.15583335  0.20676915  0.32553363  1  0  0.124682  0  0.958174  0  0  0.132042  0  1.022129  0  0  0.135849  0  1.019958  0  0  0.110266  0.129308  0  1.02374  0
H  H17  1  0.33004168  0.88066091  0.67418221  1  0  0.125623  0  0.957847  0  0  0.132344  0  1.022545  0  0  0.136131  0  1.020398  0  0  0.110243  0.129618  0  1.024165  0
H  H18  1  0.63023077  0.52792705  0.66344855  1  0  0.099031  0  0.996466  0  0  0.103532  0  1.072113  0  0  0.106549  0  1.070187  0  0  0.101924  0.101358  0  1.073578  0
H  H19  1  0.46695533  0.86431949  0.33656210  1  0  0.098691  0  0.995324  0  0  0.103259  0  1.070722  0  0  0.106255  0  1.068845  0  0  0.101404  0.101006  0  1.072361  0
H  H20  1  0.43672852  0.66252713  0.72969911  1  0  0.102275  0  0.951283  0  0  0.111534  0  1.014068  0  0  0.114347  0  1.012661  0  0  0.104146  0.109567  0  1.015048  0
H  H21  1  0.20726842  0.93271785  0.27037897  1  0  0.102215  0  0.950715  0  0  0.111612  0  1.013556  0  0  0.114328  0  1.012213  0  0  0.104032  0.109666  0  1.014522  0
H  H22  1  0.80876417  0.17201631  0.55200783  1  0  0.109581  0  0.927271  0  0  0.122264  0  0.979739  0  0  0.124605  0  0.977519  0  0  0.141174  0.120486  0  0.981389  0
H  H23  1  0.75703060  0.61984868  0.44811773  1  0  0.108694  0  0.928935  0  0  0.12126  0  0.981491  0  0  0.123606  0  0.979254  0  0  0.140999  0.119523  0  0.98307  0
H  H24  1  0.42153759  0.17167674  0.24878947  1  0  0.12784  0  0.971341  0  0  0.133285  0  1.03989  0  0  0.137757  0  1.034172  0  0  0.142852  0.129866  0  1.044152  0
H  H25  1  0.67287447  0.92294828  0.75111889  1  0  0.127997  0  0.970849  0  0  0.133492  0  1.039377  0  0  0.137944  0  1.033755  0  0  0.142737  0.130124  0  1.04357  0
C  C26  1  0.76736568  0.24381738  0.01847703  1  0  -0.063268  0  3.73386  0  0  -0.042124  0  3.964137  0  0  -0.051691  0  3.989295  0  0  -0.015147  -0.035878  0  3.947291  0
C  C27  1  0.24880652  0.22544987  0.98144626  1  0  -0.063857  0  3.736171  0  0  -0.042233  0  3.965916  0  0  -0.051905  0  3.991207  0  0  -0.014678  -0.035971  0  3.948917  0
C  C28  1  0.85122689  0.37468099  0.12885848  1  0  -0.045407  0  3.726083  0  0  -0.066234  0  3.968189  0  0  -0.065315  0  3.988848  0  0  -0.078164  -0.066602  0  3.954136  0
C  C29  1  0.22209793  0.24585594  0.87105088  1  0  -0.045253  0  3.726342  0  0  -0.066022  0  3.968522  0  0  -0.065054  0  3.989211  0  0  -0.078434  -0.066352  0  3.954462  0
C  C30  1  0.88318260  0.48844823  0.11290534  1  0  -0.141828  0  3.736  0  0  -0.163654  0  3.994935  0  0  -0.167983  0  4.013982  0  0  -0.088491  -0.16065  0  3.981626  0
C  C31  1  0.26988456  0.37558142  0.88701295  1  0  -0.143251  0  3.738725  0  0  -0.165234  0  3.997576  0  0  -0.169474  0  4.016612  0  0  -0.088638  -0.162184  0  3.984312  0
C  C32  1  0.82775717  0.46997467  0.98429452  1  0  0.168555  0  3.77892  0  0  0.144191  0  4.03318  0  0  0.149838  0  4.055303  0  0  0.095019  0.140937  0  4.017606  0
C  C33  1  0.34307215  0.48575404  0.01563419  1  0  0.170465  0  3.779302  0  0  0.145819  0  4.033345  0  0  0.151602  0  4.05528  0  0  0.09537  0.142486  0  4.017893  0
C  C34  1  0.74056488  0.34090762  0.87278975  1  0  -0.156125  0  3.74324  0  0  -0.172866  0  3.99652  0  0  -0.178817  0  4.017848  0  0  -0.094309  -0.168778  0  3.982023  0
C  C35  1  0.36742697  0.46825068  0.12714066  1  0  -0.15538  0  3.74399  0  0  -0.172368  0  3.997323  0  0  -0.178313  0  4.018526  0  0  -0.094777  -0.168385  0  3.982887  0
C  C36  1  0.71252684  0.22855605  0.89089479  1  0  -0.042974  0  3.736198  0  0  -0.06318  0  3.976305  0  0  -0.062641  0  3.998276  0  0  -0.078058  -0.063375  0  3.961292  0
C  C37  1  0.32150792  0.33780959  0.10902877  1  0  -0.044106  0  3.738163  0  0  -0.064323  0  3.978506  0  0  -0.063719  0  4.000561  0  0  -0.077976  -0.0645  0  3.963467  0
C  C38  1  0.73356850  0.12121293  0.03689795  1  0  0.653321  0  3.923479  0  0  0.60624  0  4.214476  0  0  0.640983  0  4.206552  0  0  0.207173  0.582507  0  4.219175  0
C  C39  1  0.19659490  0.08445657  0.96312472  1  0  0.653333  0  3.924513  0  0  0.606059  0  4.215446  0  0  0.640833  0  4.207529  0  0  0.206693  0.582416  0  4.220021  0
C  C40  1  0.90665079  0.78625753  0.00819474  1  0  0.2196  0  3.668536  0  0  0.166033  0  3.957954  0  0  0.178255  0  3.969028  0  0  0.158241  0.157925  0  3.950781  0
C  C41  1  0.39838247  0.77829126  0.99196632  1  0  0.21861  0  3.666266  0  0  0.164651  0  3.955769  0  0  0.176891  0  3.966823  0  0  0.157565  0.156506  0  3.948604  0
C  C42  1  0.89356332  0.59626043  0.86284094  1  0  0.188999  0  3.625886  0  0  0.108841  0  3.89486  0  0  0.125338  0  3.902827  0  0  0.17306  0.098543  0  3.888954  0
C  C43  1  0.53065603  0.73346144  0.13708711  1  0  0.190743  0  3.625115  0  0  0.110146  0  3.894141  0  0  0.126683  0  3.902118  0  0  0.173701  0.099832  0  3.888101  0
C  C44  1  0.18874714  0.50977143  0.56473412  1  0  -0.06613  0  3.758584  0  0  -0.043024  0  3.987417  0  0  -0.051988  0  4.011613  0  0  -0.021059  -0.037319  0  3.971197  0
C  C45  1  0.12413439  0.94487769  0.43528402  1  0  -0.068709  0  3.760859  0  0  -0.045037  0  3.989312  0  0  -0.054074  0  4.013473  0  0  -0.02018  -0.039293  0  3.97308  0
C  C46  1  0.11165763  0.38300500  0.44947958  1  0  -0.056586  0  3.731873  0  0  -0.078297  0  3.976402  0  0  -0.077699  0  3.996808  0  0  -0.081683  -0.07833  0  3.962455  0
C  C47  1  0.16219256  0.93322822  0.55044235  1  0  -0.057074  0  3.72867  0  0  -0.078755  0  3.97299  0  0  -0.07807  0  3.993349  0  0  -0.082518  -0.078889  0  3.959165  0
C  C48  1  0.21803725  0.30752909  0.41230456  1  0  -0.147982  0  3.729958  0  0  -0.168469  0  3.984646  0  0  -0.173529  0  4.005521  0  0  -0.088999  -0.165049  0  3.970287  0
C  C49  1  0.30562176  0.89478582  0.58751304  1  0  -0.147704  0  3.729109  0  0  -0.167408  0  3.983435  0  0  -0.172542  0  4.004555  0  0  -0.087952  -0.164035  0  3.969095  0
C  C50  1  0.40292907  0.36007182  0.49360319  1  0  0.167827  0  3.777534  0  0  0.147854  0  4.023099  0  0  0.15298  0  4.045601  0  0  0.099881  0.144822  0  4.007415  0
C  C51  1  0.40936645  0.86617996  0.50629521  1  0  0.165976  0  3.781808  0  0  0.146096  0  4.027451  0  0  0.150901  0  4.050381  0  0  0.098438  0.143136  0  4.011717  0
C  C52  1  0.48401592  0.48818434  0.60641862  1  0  -0.136861  0  3.743128  0  0  -0.160387  0  4.004164  0  0  -0.1645  0  4.024417  0  0  -0.092881  -0.157624  0  3.99033  0
C  C53  1  0.37769582  0.88153898  0.39354700  1  0  -0.136448  0  3.744083  0  0  -0.159554  0  4.004945  0  0  -0.16374  0  4.025377  0  0  -0.091818  -0.156771  0  3.991195  0
C  C54  1  0.37673988  0.56291439  0.64154291  1  0  -0.057729  0  3.741619  0  0  -0.084096  0  3.994001  0  0  -0.083289  0  4.014968  0  0  -0.085906  -0.084463  0  3.979873  0
C  C55  1  0.23533885  0.92119330  0.35847465  1  0  -0.056763  0  3.742659  0  0  -0.083661  0  3.995407  0  0  -0.08264  0  4.016252  0  0  -0.08593  -0.084073  0  3.981219  0
C  C56  1  0.06791601  0.58407753  0.60802561  1  0  0.629596  0  3.93696  0  0  0.583831  0  4.225964  0  0  0.617903  0  4.218748  0  0  0.198043  0.560742  0  4.230084  0
C  C57  1  0.96014499  0.97609075  0.39219661  1  0  0.631399  0  3.937095  0  0  0.585501  0  4.225941  0  0  0.619622  0  4.21869  0  0  0.198047  0.562397  0  4.230009  0
C  C58  1  0.70705845  0.19850726  0.50312494  1  0  0.212662  0  3.69316  0  0  0.155988  0  3.981263  0  0  0.167756  0  3.993653  0  0  0.157144  0.148449  0  3.972446  0
C  C59  1  0.70413320  0.69522933  0.49691333  1  0  0.215568  0  3.693628  0  0  0.159285  0  3.981383  0  0  0.171029  0  3.993932  0  0  0.15776  0.151688  0  3.972619  0
C  C60  1  0.51070436  0.19540972  0.34605273  1  0  0.192832  0  3.562724  0  0  0.114457  0  3.821428  0  0  0.129918  0  3.829369  0  0  0.176504  0.104702  0  3.815885  0
C  C61  1  0.66476632  0.84932003  0.65388863  1  0  0.191834  0  3.561594  0  0  0.113893  0  3.820361  0  0  0.129073  0  3.828531  0  0  0.176695  0.104172  0  3.814734  0
N  N62  1  0.86174855  0.58516066  0.96590035  1  0  0.019888  0  3.573044  0  0  0.136915  0  3.753305  0  0  0.126905  0  3.774239  0  0  -0.111306  0.142288  0  3.740987  0
N  N63  1  0.39551273  0.61936675  0.03409169  1  0  0.017302  0  3.573594  0  0  0.135287  0  3.753024  0  0  0.12495  0  3.774494  0  0  -0.111649  0.140682  0  3.740789  0
N  N64  1  0.87040337  0.70593313  0.05987957  1  0  -0.25649  0  2.839204  0  0  -0.258979  0  3.109516  0  0  -0.267764  0  3.123895  0  0  -0.212362  -0.252842  0  3.099835  0
N  N65  1  0.31018079  0.64628955  0.94026333  1  0  -0.254876  0  2.837911  0  0  -0.257569  0  3.108099  0  0  -0.26628  0  3.12248  0  0  -0.211734  -0.251467  0  3.098495  0
N  N66  1  0.92133216  0.72256088  0.88663834  1  0  -0.418547  0  3.269916  0  0  -0.337089  0  3.582357  0  0  -0.359187  0  3.589371  0  0  -0.349979  -0.322207  0  3.577535  0
N  N67  1  0.53478778  0.83604449  0.11341195  1  0  -0.41846  0  3.269307  0  0  -0.336469  0  3.581326  0  0  -0.358575  0  3.588343  0  0  -0.349414  -0.321507  0  3.576408  0
N  N68  1  0.51138606  0.28094596  0.46467083  1  0  0.024788  0  3.575837  0  0  0.141499  0  3.753352  0  0  0.131761  0  3.774442  0  0  -0.108741  0.14677  0  3.740685  0
N  N69  1  0.54680420  0.81605701  0.53524487  1  0  0.029238  0  3.572271  0  0  0.144568  0  3.751615  0  0  0.135983  0  3.770736  0  0  -0.107524  0.149824  0  3.738954  0
N  N70  1  0.63642351  0.28415394  0.56558129  1  0  -0.253542  0  2.887027  0  0  -0.247024  0  3.15316  0  0  -0.256109  0  3.166325  0  0  -0.207312  -0.240534  0  3.144245  0
N  N71  1  0.57100116  0.71830796  0.43438458  1  0  -0.257004  0  2.886965  0  0  -0.250162  0  3.153272  0  0  -0.259588  0  3.166504  0  0  -0.208132  -0.24385  0  3.144405  0
N  N72  1  0.63398500  0.14182343  0.36802194  1  0  -0.409122  0  3.269729  0  0  -0.327941  0  3.581093  0  0  -0.349971  0  3.589629  0  0  -0.346542  -0.313113  0  3.575042  0
N  N73  1  0.76617667  0.77383211  0.63200288  1  0  -0.409294  0  3.269034  0  0  -0.328491  0  3.580588  0  0  -0.350639  0  3.589351  0  0  -0.346631  -0.313737  0  3.574494  0
O  O74  1  0.77038862  0.15009251  0.15999853  1  0  -0.662599  0  2.091678  0  0  -0.585126  0  2.370869  0  0  -0.614865  0  2.354625  0  0  -0.337955  -0.564247  0  2.38145  0
O  O75  1  0.11078782  0.99009300  0.84003022  1  0  -0.662871  0  2.093792  0  0  -0.584963  0  2.372782  0  0  -0.614706  0  2.356502  0  0  -0.338103  -0.564262  0  2.383246  0
O  O76  1  0.67444569  0.00476435  0.93944983  1  0  -0.62103  0  1.899299  0  0  -0.578873  0  2.117168  0  0  -0.601972  0  2.107294  0  0  -0.330653  -0.562691  0  2.123672  0
O  O77  1  0.23444744  0.06557830  0.06065757  1  0  -0.620762  0  1.898711  0  0  -0.578685  0  2.116785  0  0  -0.60178  0  2.106885  0  0  -0.330499  -0.562519  0  2.123299  0
O  O78  1  0.15393088  0.70919585  0.70310287  1  0  -0.6572  0  2.066118  0  0  -0.579768  0  2.33868  0  0  -0.608914  0  2.32357  0  0  -0.332837  -0.559188  0  2.348207  0
O  O79  1  0.95099710  0.00610393  0.29711137  1  0  -0.656941  0  2.066149  0  0  -0.579494  0  2.339065  0  0  -0.608576  0  2.323723  0  0  -0.332159  -0.558918  0  2.348668  0
O  O80  1  0.89576477  0.52462998  0.55542854  1  0  -0.621628  0  1.923825  0  0  -0.581599  0  2.150627  0  0  -0.604041  0  2.142722  0  0  -0.327709  -0.565881  0  2.15556  0
O  O81  1  0.84078156  0.96947005  0.44497857  1  0  -0.622663  0  1.921052  0  0  -0.583034  0  2.148374  0  0  -0.605554  0  2.140498  0  0  -0.328974  -0.567272  0  2.153283  0
