# generated using pymatgen
data_BaH6C2N10O3
_symmetry_space_group_name_H-M   'P 1'
_cell_length_a   8.46064990
_cell_length_b   9.08608289
_cell_length_c   9.05229554
_cell_angle_alpha   120.12427547
_cell_angle_beta   114.99672587
_cell_angle_gamma   90.00135388
_symmetry_Int_Tables_number   1
_chemical_formula_structural   BaH6C2N10O3
_chemical_formula_sum   'Ba2 H12 C4 N20 O6'
_cell_volume   525.17475984
_cell_formula_units_Z   2
loop_
 _symmetry_equiv_pos_site_id
 _symmetry_equiv_pos_as_xyz
  1  'x, y, z'
loop_
 _atom_site_type_symbol
 _atom_site_label
 _atom_site_symmetry_multiplicity
 _atom_site_fract_x
 _atom_site_fract_y
 _atom_site_fract_z
 _atom_site_occupancy
 _atom_site_hle17_bader_spin_density
 _atom_site_hle17_ddec_charge
 _atom_site_hle17_ddec_spin_density
 _atom_site_hle17_ddec_sum_bond_order
 _atom_site_hle17_magmom
 _atom_site_hse06_10hf_bader_spin_density
 _atom_site_hse06_10hf_ddec_charge
 _atom_site_hse06_10hf_ddec_spin_density
 _atom_site_hse06_10hf_ddec_sum_bond_order
 _atom_site_hse06_10hf_magmom
 _atom_site_hse06_bader_spin_density
 _atom_site_hse06_ddec_charge
 _atom_site_hse06_ddec_spin_density
 _atom_site_hse06_ddec_sum_bond_order
 _atom_site_hse06_magmom
 _atom_site_pbe_bader_spin_density
 _atom_site_pbe_cm5_charge
 _atom_site_pbe_ddec_charge
 _atom_site_pbe_ddec_spin_density
 _atom_site_pbe_ddec_sum_bond_order
 _atom_site_pbe_magmom
Ba  Ba0  1  0.75000032  0.08629167  0.00000206  1  0  1.538421  0  1.247539  0  0  1.3393  0  1.692201  0  0  1.378865  0  1.64986  0  0  0.914154  1.310636  0  1.72158  0
Ba  Ba1  1  0.24999754  0.91370331  0.99999901  1  0  1.538394  0  1.247611  0  0  1.339299  0  1.692232  0  0  1.378844  0  1.649927  0  0  0.914135  1.310631  0  1.721608  0
H  H2  1  0.80463499  0.52333233  0.11522783  1  0  0.427074  0  0.842264  0  0  0.395399  0  0.91547  0  0  0.405295  0  0.900603  0  0  0.310701  0.388315  0  0.926136  0
H  H3  1  0.30461573  0.59184015  0.11512294  1  0  0.427267  0  0.841833  0  0  0.395598  0  0.915146  0  0  0.405497  0  0.90027  0  0  0.310778  0.388511  0  0.92582  0
H  H4  1  0.19536365  0.47666529  0.88477376  1  0  0.427069  0  0.842269  0  0  0.395397  0  0.915471  0  0  0.405291  0  0.900607  0  0  0.310685  0.388313  0  0.926136  0
H  H5  1  0.69538629  0.40816008  0.88487910  1  0  0.427254  0  0.841879  0  0  0.395587  0  0.915169  0  0  0.405486  0  0.900293  0  0  0.310777  0.388499  0  0.925843  0
H  H6  1  0.46146183  0.26616298  0.08304840  1  0  0.415039  0  0.853533  0  0  0.391045  0  0.917276  0  0  0.400407  0  0.906297  0  0  0.320747  0.384387  0  0.925139  0
H  H7  1  0.96145628  0.81688439  0.08304902  1  0  0.415068  0  0.853423  0  0  0.39107  0  0.917177  0  0  0.400434  0  0.906195  0  0  0.320748  0.384411  0  0.92504  0
H  H8  1  0.53854128  0.73383192  0.91694810  1  0  0.415075  0  0.853544  0  0  0.39109  0  0.917249  0  0  0.400451  0  0.906276  0  0  0.320791  0.384436  0  0.9251  0
H  H9  1  0.03854461  0.18311186  0.91694948  1  0  0.415047  0  0.853489  0  0  0.39105  0  0.917237  0  0  0.400414  0  0.906256  0  0  0.320736  0.384391  0  0.9251  0
H  H10  1  0.35272647  0.17410253  0.85048186  1  0  0.394556  0  0.929968  0  0  0.349561  0  1.016099  0  0  0.361516  0  0.999106  0  0  0.290982  0.341183  0  1.027969  0
H  H11  1  0.85272016  0.67637483  0.85047660  1  0  0.394533  0  0.930008  0  0  0.349539  0  1.016143  0  0  0.361494  0  0.999151  0  0  0.29097  0.341161  0  1.028012  0
H  H12  1  0.64727051  0.82589378  0.14951621  1  0  0.394535  0  0.93  0  0  0.349524  0  1.016154  0  0  0.361481  0  0.99916  0  0  0.290967  0.341147  0  1.028023  0
H  H13  1  0.14727760  0.32362412  0.14952199  1  0  0.394554  0  0.929981  0  0  0.349556  0  1.016119  0  0  0.361511  0  0.999129  0  0  0.290965  0.341178  0  1.02799  0
C  C14  1  0.32057218  0.08698403  0.51944741  1  0  0.377052  0  3.841563  0  0  0.337779  0  4.134817  0  0  0.345651  0  4.152301  0  0  0.321656  0.33255  0  4.122978  0
C  C15  1  0.82057353  0.43246152  0.51944306  1  0  0.37692  0  3.841396  0  0  0.337684  0  4.134607  0  0  0.34556  0  4.152091  0  0  0.321632  0.332458  0  4.12277  0
C  C16  1  0.67942267  0.91300966  0.48055512  1  0  0.377064  0  3.841362  0  0  0.337814  0  4.134585  0  0  0.345686  0  4.15207  0  0  0.321678  0.332585  0  4.122748  0
C  C17  1  0.17942606  0.56754801  0.48055383  1  0  0.37721  0  3.841285  0  0  0.337903  0  4.134577  0  0  0.345775  0  4.152064  0  0  0.321796  0.332677  0  4.122738  0
N  N18  1  0.48377066  0.04367007  0.57079760  1  0  -0.176391  0  3.029137  0  0  -0.149398  0  3.316402  0  0  -0.147338  0  3.320366  0  0  -0.124637  -0.150656  0  3.313737  0
N  N19  1  0.98378468  0.52713759  0.57079787  1  0  -0.176225  0  3.028997  0  0  -0.149228  0  3.316221  0  0  -0.147169  0  3.320187  0  0  -0.124519  -0.1505  0  3.313564  0
N  N20  1  0.51622498  0.95632627  0.42920546  1  0  -0.176236  0  3.028985  0  0  -0.149238  0  3.316201  0  0  -0.147175  0  3.320164  0  0  -0.124579  -0.150498  0  3.313537  0
N  N21  1  0.01623009  0.47288367  0.42920657  1  0  -0.176298  0  3.029222  0  0  -0.149269  0  3.316467  0  0  -0.14721  0  3.320434  0  0  -0.124665  -0.150542  0  3.31381  0
N  N22  1  0.26704023  0.17619089  0.65398230  1  0  -0.31688  0  3.072607  0  0  -0.266055  0  3.341533  0  0  -0.278401  0  3.354459  0  0  -0.191396  -0.257696  0  3.332788  0
N  N23  1  0.76703499  0.47778424  0.65397151  1  0  -0.316829  0  3.072634  0  0  -0.266027  0  3.341579  0  0  -0.278375  0  3.354507  0  0  -0.191362  -0.257668  0  3.332835  0
N  N24  1  0.73294853  0.82380421  0.34601628  1  0  -0.316948  0  3.07246  0  0  -0.266115  0  3.341364  0  0  -0.278461  0  3.354289  0  0  -0.191418  -0.257754  0  3.332618  0
N  N25  1  0.23296877  0.52221727  0.34602526  1  0  -0.316971  0  3.072516  0  0  -0.266132  0  3.341451  0  0  -0.27848  0  3.35438  0  0  -0.191396  -0.257774  0  3.332709  0
N  N26  1  0.10745889  0.19697989  0.56081652  1  0  -0.084088  0  2.940869  0  0  -0.089823  0  3.245274  0  0  -0.090619  0  3.259056  0  0  -0.095924  -0.089001  0  3.235842  0
N  N27  1  0.60744511  0.36382881  0.56079441  1  0  -0.084184  0  2.940946  0  0  -0.089937  0  3.245362  0  0  -0.090736  0  3.259149  0  0  -0.096042  -0.089122  0  3.235935  0
N  N28  1  0.89253352  0.80302312  0.43918196  1  0  -0.084054  0  2.940788  0  0  -0.089794  0  3.245192  0  0  -0.090591  0  3.258974  0  0  -0.095898  -0.088974  0  3.23576  0
N  N29  1  0.39256395  0.63616867  0.43920798  1  0  -0.084073  0  2.940923  0  0  -0.089832  0  3.245327  0  0  -0.090632  0  3.259114  0  0  -0.095982  -0.089016  0  3.2359  0
N  N30  1  0.06478509  0.12253387  0.37359130  1  0  -0.111755  0  3.003702  0  0  -0.086164  0  3.302375  0  0  -0.091393  0  3.319291  0  0  -0.098513  -0.082252  0  3.290711  0
N  N31  1  0.56478292  0.25104708  0.37357496  1  0  -0.111704  0  3.00364  0  0  -0.086079  0  3.302275  0  0  -0.091309  0  3.319191  0  0  -0.098533  -0.082174  0  3.290617  0
N  N32  1  0.93520669  0.87746252  0.62640582  1  0  -0.111781  0  3.003598  0  0  -0.086198  0  3.30228  0  0  -0.091424  0  3.319195  0  0  -0.098552  -0.082285  0  3.290616  0
N  N33  1  0.43522433  0.74895307  0.62642583  1  0  -0.111722  0  3.003756  0  0  -0.086098  0  3.302408  0  0  -0.091329  0  3.319325  0  0  -0.098557  -0.082194  0  3.290749  0
N  N34  1  0.19606637  0.05250419  0.34394714  1  0  -0.373672  0  3.04367  0  0  -0.326954  0  3.313226  0  0  -0.340029  0  3.331114  0  0  -0.24295  -0.31802  0  3.301086  0
N  N35  1  0.69607171  0.29143785  0.34394215  1  0  -0.373653  0  3.04365  0  0  -0.32695  0  3.313198  0  0  -0.340029  0  3.331088  0  0  -0.242946  -0.31802  0  3.301065  0
N  N36  1  0.80392953  0.94749745  0.65605536  1  0  -0.373648  0  3.043542  0  0  -0.326929  0  3.313077  0  0  -0.340006  0  3.330964  0  0  -0.242929  -0.317995  0  3.300937  0
N  N37  1  0.30393083  0.70857297  0.65606099  1  0  -0.373741  0  3.043573  0  0  -0.327026  0  3.313144  0  0  -0.340101  0  3.331033  0  0  -0.242978  -0.318095  0  3.30101  0
O  O38  1  0.74999763  0.40224651  0.00004984  1  0  -0.848143  0  1.790723  0  0  -0.795757  0  1.970471  0  0  -0.812073  0  1.93929  0  0  -0.603735  -0.78425  0  1.992517  0
O  O39  1  0.25000272  0.59775241  0.99994977  1  0  -0.848154  0  1.790708  0  0  -0.795765  0  1.970478  0  0  -0.812078  0  1.939296  0  0  -0.603712  -0.784256  0  1.992523  0
O  O40  1  0.41216122  0.15189798  0.95877996  1  0  -0.896265  0  1.934327  0  0  -0.827387  0  2.148988  0  0  -0.848703  0  2.121115  0  0  -0.645923  -0.812211  0  2.168199  0
O  O41  1  0.91216846  0.80688119  0.95878288  1  0  -0.896249  0  1.934212  0  0  -0.827361  0  2.14886  0  0  -0.848678  0  2.120987  0  0  -0.645916  -0.812185  0  2.16807  0
O  O42  1  0.58783555  0.84809302  0.04121094  1  0  -0.896234  0  1.934295  0  0  -0.827338  0  2.14896  0  0  -0.848658  0  2.121085  0  0  -0.645949  -0.812164  0  2.168172  0
O  O43  1  0.08783450  0.19311769  0.04121666  1  0  -0.896234  0  1.934247  0  0  -0.827345  0  2.148896  0  0  -0.848661  0  2.121023  0  0  -0.645886  -0.812168  0  2.168105  0
