# generated using pymatgen
data_AgH8C10(NO2)3
_symmetry_space_group_name_H-M   'P 1'
_cell_length_a   7.38730329
_cell_length_b   9.18956449
_cell_length_c   18.05181290
_cell_angle_alpha   89.99975152
_cell_angle_beta   90.00003188
_cell_angle_gamma   110.18939644
_symmetry_Int_Tables_number   1
_chemical_formula_structural   AgH8C10(NO2)3
_chemical_formula_sum   'Ag4 H32 C40 N12 O24'
_cell_volume   1150.17068642
_cell_formula_units_Z   4
loop_
 _symmetry_equiv_pos_site_id
 _symmetry_equiv_pos_as_xyz
  1  'x, y, z'
loop_
 _atom_site_type_symbol
 _atom_site_label
 _atom_site_symmetry_multiplicity
 _atom_site_fract_x
 _atom_site_fract_y
 _atom_site_fract_z
 _atom_site_occupancy
 _atom_site_hle17_bader_spin_density
 _atom_site_hle17_ddec_charge
 _atom_site_hle17_ddec_spin_density
 _atom_site_hle17_ddec_sum_bond_order
 _atom_site_hle17_magmom
 _atom_site_hse06_10hf_bader_spin_density
 _atom_site_hse06_10hf_ddec_charge
 _atom_site_hse06_10hf_ddec_spin_density
 _atom_site_hse06_10hf_ddec_sum_bond_order
 _atom_site_hse06_10hf_magmom
 _atom_site_hse06_bader_spin_density
 _atom_site_hse06_ddec_charge
 _atom_site_hse06_ddec_spin_density
 _atom_site_hse06_ddec_sum_bond_order
 _atom_site_hse06_magmom
 _atom_site_pbe_bader_spin_density
 _atom_site_pbe_cm5_charge
 _atom_site_pbe_ddec_charge
 _atom_site_pbe_ddec_spin_density
 _atom_site_pbe_ddec_sum_bond_order
 _atom_site_pbe_magmom
Ag  Ag0  1  0.54831927  0.16834075  0.82547264  1  0  0.589335  0  1.30814  0  0  0.454338  0  1.733211  0  0  0.482537  0  1.686542  0  0  0.470587  0.436057  0  1.765087  0
Ag  Ag1  1  0.45168191  0.33166216  0.32547392  1  0  0.589333  0  1.308119  0  0  0.454343  0  1.733186  0  0  0.482541  0  1.686518  0  0  0.470589  0.436227  0  1.765009  0
Ag  Ag2  1  0.45168121  0.83165870  0.17452676  1  0  0.589312  0  1.308115  0  0  0.454299  0  1.733209  0  0  0.4825  0  1.68654  0  0  0.470569  0.436139  0  1.765003  0
Ag  Ag3  1  0.54831379  0.66834193  0.67452881  1  0  0.589322  0  1.308156  0  0  0.454317  0  1.733227  0  0  0.482513  0  1.686557  0  0  0.470592  0.436036  0  1.765098  0
H  H4  1  0.61133811  0.37112985  0.95093240  1  0  0.083159  0  0.960894  0  0  0.089497  0  1.029122  0  0  0.092488  0  1.025372  0  0  0.113908  0.087297  0  1.031552  0
H  H5  1  0.38866310  0.12886957  0.45093466  1  0  0.083158  0  0.960885  0  0  0.08951  0  1.029113  0  0  0.092496  0  1.02538  0  0  0.113898  0.087307  0  1.031537  0
H  H6  1  0.38866592  0.62886844  0.04906534  1  0  0.083108  0  0.961007  0  0  0.089505  0  1.029178  0  0  0.092494  0  1.025434  0  0  0.113905  0.087336  0  1.031556  0
H  H7  1  0.61133687  0.87112872  0.54906695  1  0  0.083195  0  0.960877  0  0  0.089532  0  1.029109  0  0  0.092521  0  1.025369  0  0  0.113923  0.087336  0  1.031529  0
H  H8  1  0.53845923  0.39158350  0.08425931  1  0  0.112201  0  0.950483  0  0  0.123057  0  1.008347  0  0  0.125854  0  1.007991  0  0  0.111993  0.121151  0  1.008485  0
H  H9  1  0.46154499  0.10841469  0.58426036  1  0  0.112225  0  0.950528  0  0  0.123028  0  1.008447  0  0  0.125822  0  1.008097  0  0  0.112012  0.121118  0  1.008593  0
H  H10  1  0.46154125  0.60841596  0.91573899  1  0  0.112196  0  0.950525  0  0  0.123037  0  1.008409  0  0  0.125832  0  1.008056  0  0  0.111988  0.121124  0  1.00856  0
H  H11  1  0.53845720  0.89158245  0.41574070  1  0  0.112197  0  0.950495  0  0  0.123052  0  1.008357  0  0  0.125848  0  1.008002  0  0  0.111998  0.12114  0  1.008508  0
H  H12  1  0.30549799  0.16018566  0.14813789  1  0  0.117197  0  0.958979  0  0  0.123615  0  1.024124  0  0  0.127149  0  1.021365  0  0  0.107833  0.120858  0  1.02634  0
H  H13  1  0.69450286  0.33981077  0.64814236  1  0  0.117243  0  0.958906  0  0  0.123646  0  1.024066  0  0  0.127181  0  1.021308  0  0  0.107846  0.120871  0  1.02632  0
H  H14  1  0.69450113  0.83981379  0.85185819  1  0  0.117246  0  0.958902  0  0  0.12362  0  1.024086  0  0  0.127154  0  1.02133  0  0  0.10785  0.120845  0  1.026343  0
H  H15  1  0.30549847  0.66018752  0.35186147  1  0  0.117201  0  0.958934  0  0  0.123616  0  1.024093  0  0  0.127151  0  1.021333  0  0  0.107832  0.120854  0  1.026317  0
H  H16  1  0.07976325  0.89617846  0.14102309  1  0  0.130968  0  0.958816  0  0  0.138237  0  1.024897  0  0  0.141912  0  1.022273  0  0  0.111192  0.135309  0  1.027422  0
H  H17  1  0.92023675  0.60382133  0.64102536  1  0  0.130896  0  0.958858  0  0  0.138167  0  1.024946  0  0  0.141841  0  1.022325  0  0  0.111143  0.135242  0  1.027463  0
H  H18  1  0.92023637  0.10382215  0.85897465  1  0  0.130912  0  0.95886  0  0  0.138187  0  1.024936  0  0  0.141862  0  1.022311  0  0  0.111151  0.135262  0  1.027454  0
H  H19  1  0.07976273  0.39617580  0.35897626  1  0  0.130983  0  0.958797  0  0  0.138255  0  1.024878  0  0  0.141931  0  1.022253  0  0  0.111189  0.135345  0  1.027372  0
H  H20  1  0.98373818  0.65056354  0.93211076  1  0  0.152371  0  0.948348  0  0  0.154128  0  1.018221  0  0  0.159371  0  1.013271  0  0  0.121818  0.150355  0  1.021627  0
H  H21  1  0.01626221  0.84943935  0.43211190  1  0  0.152361  0  0.948383  0  0  0.154134  0  1.018229  0  0  0.159381  0  1.01328  0  0  0.121825  0.150359  0  1.021634  0
H  H22  1  0.01626229  0.34943591  0.06788754  1  0  0.152413  0  0.948297  0  0  0.154164  0  1.01816  0  0  0.159406  0  1.01321  0  0  0.121832  0.150425  0  1.021508  0
H  H23  1  0.98373470  0.15056127  0.56789027  1  0  0.152332  0  0.948381  0  0  0.154102  0  1.018235  0  0  0.159341  0  1.013289  0  0  0.1218  0.150332  0  1.021633  0
H  H24  1  0.99191369  0.64903123  0.18048819  1  0  0.094362  0  0.960436  0  0  0.105931  0  1.036068  0  0  0.10683  0  1.034855  0  0  0.095737  0.105174  0  1.036978  0
H  H25  1  0.00809041  0.85097167  0.68049083  1  0  0.094353  0  0.960418  0  0  0.105921  0  1.036054  0  0  0.106821  0  1.034838  0  0  0.095761  0.105149  0  1.036991  0
H  H26  1  0.00808778  0.35097054  0.81950844  1  0  0.094357  0  0.960407  0  0  0.105923  0  1.036054  0  0  0.106823  0  1.03484  0  0  0.095737  0.10515  0  1.036998  0
H  H27  1  0.99191156  0.14903126  0.31951079  1  0  0.094318  0  0.960433  0  0  0.105887  0  1.03608  0  0  0.106787  0  1.034867  0  0  0.095721  0.105122  0  1.037005  0
H  H28  1  0.76492023  0.50385843  0.16222035  1  0  0.102909  0  0.955612  0  0  0.116525  0  1.025065  0  0  0.117542  0  1.02351  0  0  0.102372  0.115225  0  1.027137  0
H  H29  1  0.23508035  0.99614580  0.66222162  1  0  0.102844  0  0.955648  0  0  0.11644  0  1.02513  0  0  0.117458  0  1.023576  0  0  0.10234  0.115134  0  1.027211  0
H  H30  1  0.23508223  0.49614566  0.83777905  1  0  0.102886  0  0.955603  0  0  0.116492  0  1.025078  0  0  0.11751  0  1.023522  0  0  0.102345  0.115188  0  1.027159  0
H  H31  1  0.76491656  0.00385481  0.33778000  1  0  0.102824  0  0.95566  0  0  0.11643  0  1.025135  0  0  0.117449  0  1.023579  0  0  0.102315  0.115124  0  1.027221  0
H  H32  1  0.78577053  0.70513723  0.16219742  1  0  0.089632  0  0.957952  0  0  0.099417  0  1.038883  0  0  0.100349  0  1.03717  0  0  0.09258  0.098052  0  1.041403  0
H  H33  1  0.21422820  0.79486584  0.66219746  1  0  0.089565  0  0.957912  0  0  0.099343  0  1.03888  0  0  0.100275  0  1.037164  0  0  0.092551  0.097972  0  1.041409  0
H  H34  1  0.21423414  0.29486570  0.83780142  1  0  0.089623  0  0.957959  0  0  0.099412  0  1.038878  0  0  0.100343  0  1.037166  0  0  0.092596  0.098042  0  1.041407  0
H  H35  1  0.78576971  0.20513709  0.33780305  1  0  0.089635  0  0.957907  0  0  0.099412  0  1.03885  0  0  0.100343  0  1.03714  0  0  0.092576  0.098042  0  1.041384  0
C  C36  1  0.50365386  0.27468208  0.97904546  1  0  0.141303  0  3.688019  0  0  0.105621  0  3.946451  0  0  0.116291  0  3.961378  0  0  0.047327  0.098817  0  3.935588  0
C  C37  1  0.49634878  0.22532056  0.47904698  1  0  0.141275  0  3.688203  0  0  0.105546  0  3.946645  0  0  0.116212  0  3.961572  0  0  0.047279  0.098752  0  3.935771  0
C  C38  1  0.49634968  0.72531505  0.02095394  1  0  0.141346  0  3.688199  0  0  0.105594  0  3.946628  0  0  0.116263  0  3.961554  0  0  0.047317  0.098802  0  3.935741  0
C  C39  1  0.50365120  0.77467773  0.52095519  1  0  0.141131  0  3.688023  0  0  0.105439  0  3.946478  0  0  0.116107  0  3.961402  0  0  0.04722  0.098639  0  3.935603  0
C  C40  1  0.46349975  0.28492191  0.05448291  1  0  -0.101183  0  3.719288  0  0  -0.119323  0  3.982684  0  0  -0.125817  0  4.002088  0  0  -0.085635  -0.115261  0  3.968949  0
C  C41  1  0.53649912  0.21507655  0.55448485  1  0  -0.101236  0  3.71939  0  0  -0.119305  0  3.98278  0  0  -0.125796  0  4.002185  0  0  -0.08566  -0.115251  0  3.969048  0
C  C42  1  0.53650343  0.71507754  0.94551539  1  0  -0.101213  0  3.719331  0  0  -0.119319  0  3.98273  0  0  -0.125813  0  4.002136  0  0  -0.085624  -0.115265  0  3.969014  0
C  C43  1  0.46350035  0.78492059  0.44551677  1  0  -0.101143  0  3.719171  0  0  -0.119266  0  3.982568  0  0  -0.125759  0  4.001968  0  0  -0.085625  -0.115214  0  3.96885  0
C  C44  1  0.33572332  0.15766514  0.08918703  1  0  -0.042283  0  3.663442  0  0  -0.07337  0  3.925901  0  0  -0.070356  0  3.942178  0  0  -0.067923  -0.074705  0  3.914816  0
C  C45  1  0.66427867  0.34233416  0.58918983  1  0  -0.04228  0  3.663383  0  0  -0.073404  0  3.925882  0  0  -0.070379  0  3.942126  0  0  -0.067901  -0.074754  0  3.914827  0
C  C46  1  0.66427715  0.84233431  0.91081016  1  0  -0.042287  0  3.663369  0  0  -0.073371  0  3.925874  0  0  -0.070355  0  3.942141  0  0  -0.067924  -0.074723  0  3.914824  0
C  C47  1  0.33572031  0.65766181  0.41081290  1  0  -0.042321  0  3.663386  0  0  -0.073434  0  3.925879  0  0  -0.070421  0  3.942154  0  0  -0.067955  -0.074775  0  3.914808  0
C  C48  1  0.11220960  0.88833926  0.08269544  1  0  -0.24169  0  3.724192  0  0  -0.281195  0  3.994536  0  0  -0.284791  0  4.011613  0  0  -0.105471  -0.278703  0  3.983584  0
C  C49  1  0.88778720  0.61165643  0.58269935  1  0  -0.241723  0  3.724146  0  0  -0.281212  0  3.994487  0  0  -0.284812  0  4.011568  0  0  -0.105475  -0.278715  0  3.983513  0
C  C50  1  0.88779038  0.11165903  0.91730175  1  0  -0.24168  0  3.724079  0  0  -0.281185  0  3.994442  0  0  -0.284787  0  4.011524  0  0  -0.105438  -0.278693  0  3.983476  0
C  C51  1  0.11221227  0.38834071  0.41730393  1  0  -0.241743  0  3.724209  0  0  -0.281233  0  3.994567  0  0  -0.28483  0  4.011644  0  0  -0.105478  -0.278743  0  3.983593  0
C  C52  1  0.02203254  0.75452533  0.04214785  1  0  0.290356  0  3.810077  0  0  0.284761  0  4.06573  0  0  0.294571  0  4.082148  0  0  0.091599  0.277679  0  4.054782  0
C  C53  1  0.97796514  0.74547885  0.54214982  1  0  0.290482  0  3.809863  0  0  0.284764  0  4.065668  0  0  0.294572  0  4.08209  0  0  0.091581  0.277682  0  4.054704  0
C  C54  1  0.97796708  0.24547528  0.95785100  1  0  0.290475  0  3.809951  0  0  0.28482  0  4.065659  0  0  0.294632  0  4.082079  0  0  0.091578  0.277737  0  4.054714  0
C  C55  1  0.02203227  0.25452292  0.45785235  1  0  0.290438  0  3.80992  0  0  0.284756  0  4.065676  0  0  0.294567  0  4.082095  0  0  0.091609  0.277673  0  4.054723  0
C  C56  1  0.05869035  0.75301775  0.96522079  1  0  -0.162879  0  3.653924  0  0  -0.200704  0  3.914604  0  0  -0.200328  0  3.928754  0  0  -0.072101  -0.200502  0  3.904862  0
C  C57  1  0.94131367  0.74698714  0.46522236  1  0  -0.162963  0  3.653865  0  0  -0.20077  0  3.914635  0  0  -0.200401  0  3.928791  0  0  -0.072164  -0.200569  0  3.904897  0
C  C58  1  0.94131468  0.24698286  0.03477750  1  0  -0.163055  0  3.653962  0  0  -0.200834  0  3.914703  0  0  -0.200457  0  3.92885  0  0  -0.072159  -0.20062  0  3.904938  0
C  C59  1  0.05868510  0.25301463  0.53477870  1  0  -0.162893  0  3.653867  0  0  -0.200706  0  3.914585  0  0  -0.200329  0  3.928735  0  0  -0.072124  -0.200503  0  3.904834  0
C  C60  1  0.18147163  0.88341709  0.93072108  1  0  0.010223  0  3.684728  0  0  0.004426  0  3.9418  0  0  0.000398  0  3.963439  0  0  0.079506  0.006717  0  3.927091  0
C  C61  1  0.81853183  0.61658349  0.43072346  1  0  0.0103  0  3.684662  0  0  0.004435  0  3.941786  0  0  0.000397  0  3.963419  0  0  0.079517  0.00672  0  3.927085  0
C  C62  1  0.81853105  0.11658120  0.06927444  1  0  0.010306  0  3.684782  0  0  0.004409  0  3.941924  0  0  0.000373  0  3.963555  0  0  0.079505  0.006687  0  3.927227  0
C  C63  1  0.18146508  0.38341713  0.56927816  1  0  0.010287  0  3.684639  0  0  0.004463  0  3.941743  0  0  0.000433  0  3.963385  0  0  0.079495  0.006753  0  3.927028  0
C  C64  1  0.28378983  0.02293136  0.97002668  1  0  0.14493  0  3.747771  0  0  0.134985  0  3.984226  0  0  0.140346  0  4.009553  0  0  0.10812  0.131486  0  3.967147  0
C  C65  1  0.71621404  0.47706789  0.47002991  1  0  0.14489  0  3.747856  0  0  0.134963  0  3.984297  0  0  0.140355  0  4.009576  0  0  0.108085  0.131465  0  3.967225  0
C  C66  1  0.71621556  0.97706693  0.02996995  1  0  0.144823  0  3.74801  0  0  0.134917  0  3.984435  0  0  0.14031  0  4.009712  0  0  0.108045  0.131424  0  3.967357  0
C  C67  1  0.28378508  0.52293157  0.52997227  1  0  0.144844  0  3.747858  0  0  0.134899  0  3.984321  0  0  0.140262  0  4.009645  0  0  0.108113  0.131403  0  3.967233  0
C  C68  1  0.24272114  0.02133887  0.04779963  1  0  0.038344  0  3.810232  0  0  0.057016  0  4.045102  0  0  0.053939  0  4.070313  0  0  -0.006122  0.058714  0  4.028151  0
C  C69  1  0.75728231  0.47866082  0.54780326  1  0  0.038344  0  3.810465  0  0  0.057062  0  4.045269  0  0  0.053981  0  4.070474  0  0  -0.006111  0.058758  0  4.028316  0
C  C70  1  0.75728290  0.97865943  0.95219811  1  0  0.038347  0  3.810322  0  0  0.057042  0  4.045148  0  0  0.05396  0  4.070353  0  0  -0.006125  0.058739  0  4.028191  0
C  C71  1  0.24271852  0.52133632  0.45220002  1  0  0.038391  0  3.810521  0  0  0.057079  0  4.045364  0  0  0.054004  0  4.070574  0  0  -0.006085  0.058776  0  4.028409  0
C  C72  1  0.85751736  0.62180971  0.14883598  1  0  -0.088422  0  3.60093  0  0  -0.192728  0  3.87869  0  0  -0.184958  0  3.881638  0  0  -0.152246  -0.197197  0  3.876955  0
C  C73  1  0.14248140  0.87819348  0.64883804  1  0  -0.088216  0  3.600815  0  0  -0.192532  0  3.878578  0  0  -0.184758  0  3.881518  0  0  -0.152213  -0.197034  0  3.876911  0
C  C74  1  0.14248632  0.37819090  0.85116286  1  0  -0.08838  0  3.600906  0  0  -0.192709  0  3.878712  0  0  -0.184933  0  3.881651  0  0  -0.152242  -0.197196  0  3.877015  0
C  C75  1  0.85751600  0.12180829  0.35116469  1  0  -0.088253  0  3.600822  0  0  -0.19256  0  3.878561  0  0  -0.184787  0  3.881506  0  0  -0.15214  -0.197052  0  3.876878  0
N  N76  1  0.41812541  0.14909886  0.93780984  1  0  -0.349591  0  3.309883  0  0  -0.273843  0  3.591232  0  0  -0.295049  0  3.609377  0  0  -0.338757  -0.259795  0  3.5789  0
N  N77  1  0.58187362  0.35090185  0.43781221  1  0  -0.349496  0  3.309945  0  0  -0.273738  0  3.591286  0  0  -0.294953  0  3.609423  0  0  -0.338677  -0.259691  0  3.578947  0
N  N78  1  0.58187912  0.85090060  0.06218845  1  0  -0.349495  0  3.309888  0  0  -0.273756  0  3.591254  0  0  -0.294969  0  3.60939  0  0  -0.338688  -0.259705  0  3.578912  0
N  N79  1  0.41812179  0.64909528  0.56219051  1  0  -0.349363  0  3.309763  0  0  -0.273608  0  3.59108  0  0  -0.294812  0  3.609229  0  0  -0.338647  -0.259559  0  3.578741  0
N  N80  1  0.19450273  0.87299742  0.85020065  1  0  0.510015  0  3.87119  0  0  0.528099  0  4.179355  0  0  0.55121  0  4.183858  0  0  0.048022  0.512401  0  4.176445  0
N  N81  1  0.80550635  0.62700390  0.35020411  1  0  0.509842  0  3.871331  0  0  0.527956  0  4.179483  0  0  0.551063  0  4.183991  0  0  0.048013  0.512263  0  4.176573  0
N  N82  1  0.80549589  0.12700087  0.14979654  1  0  0.509994  0  3.871235  0  0  0.528088  0  4.17942  0  0  0.551195  0  4.183928  0  0  0.048057  0.512398  0  4.176507  0
N  N83  1  0.19449377  0.37299787  0.64979917  1  0  0.509846  0  3.871187  0  0  0.527911  0  4.179386  0  0  0.55102  0  4.183891  0  0  0.047926  0.512214  0  4.176473  0
N  N84  1  0.69835301  0.02345002  0.70548155  1  0  0.680717  0  4.129336  0  0  0.714729  0  4.400845  0  0  0.743611  0  4.410062  0  0  0.093532  0.695253  0  4.393753  0
N  N85  1  0.30164562  0.47655052  0.20548136  1  0  0.680952  0  4.129037  0  0  0.714769  0  4.400778  0  0  0.743655  0  4.409984  0  0  0.093506  0.69709  0  4.393425  0
N  N86  1  0.30165180  0.97655639  0.29451786  1  0  0.680739  0  4.129068  0  0  0.714726  0  4.400579  0  0  0.743614  0  4.409779  0  0  0.093477  0.695248  0  4.393512  0
N  N87  1  0.69834745  0.52344429  0.79451693  1  0  0.680758  0  4.129164  0  0  0.714599  0  4.400824  0  0  0.743485  0  4.410027  0  0  0.09348  0.69512  0  4.393746  0
O  O88  1  0.89528488  0.62220705  0.07026327  1  0  -0.24045  0  2.310601  0  0  -0.160973  0  2.541258  0  0  -0.181864  0  2.54737  0  0  -0.180577  -0.146409  0  2.536556  0
O  O89  1  0.10470853  0.87779339  0.57026476  1  0  -0.24056  0  2.310672  0  0  -0.160976  0  2.541318  0  0  -0.181861  0  2.547422  0  0  -0.180548  -0.146418  0  2.536621  0
O  O90  1  0.10471339  0.37779356  0.92973613  1  0  -0.2405  0  2.310584  0  0  -0.160967  0  2.541228  0  0  -0.181858  0  2.54734  0  0  -0.180556  -0.146408  0  2.536537  0
O  O91  1  0.89528738  0.12220490  0.42973741  1  0  -0.240533  0  2.310554  0  0  -0.160993  0  2.541205  0  0  -0.181883  0  2.547316  0  0  -0.180597  -0.146432  0  2.53651  0
O  O92  1  0.20009124  0.75123422  0.82287001  1  0  -0.317473  0  1.754622  0  0  -0.296064  0  1.966119  0  0  -0.305077  0  1.961381  0  0  -0.102699  -0.290562  0  1.970393  0
O  O93  1  0.79991777  0.74876388  0.32287099  1  0  -0.317337  0  1.754704  0  0  -0.295945  0  1.966206  0  0  -0.304952  0  1.961468  0  0  -0.10261  -0.290436  0  1.970464  0
O  O94  1  0.79989926  0.24876407  0.17712607  1  0  -0.317453  0  1.754514  0  0  -0.296036  0  1.966019  0  0  -0.305041  0  1.961272  0  0  -0.102675  -0.290522  0  1.970265  0
O  O95  1  0.20008085  0.25123441  0.67713063  1  0  -0.317435  0  1.754701  0  0  -0.295997  0  1.966183  0  0  -0.305013  0  1.961451  0  0  -0.102645  -0.290495  0  1.970453  0
O  O96  1  0.19792055  0.98956346  0.81348343  1  0  -0.37377  0  1.810798  0  0  -0.340687  0  2.044668  0  0  -0.353645  0  2.035933  0  0  -0.132871  -0.332592  0  2.051911  0
O  O97  1  0.80208763  0.51043589  0.31348715  1  0  -0.373737  0  1.810789  0  0  -0.340638  0  2.044625  0  0  -0.35359  0  2.035886  0  0  -0.132912  -0.332538  0  2.051854  0
O  O98  1  0.80208363  0.01043831  0.18651486  1  0  -0.373772  0  1.810936  0  0  -0.340656  0  2.044757  0  0  -0.353613  0  2.036023  0  0  -0.132885  -0.332561  0  2.051992  0
O  O99  1  0.19791384  0.48956588  0.68651668  1  0  -0.373735  0  1.810766  0  0  -0.340606  0  2.044591  0  0  -0.353562  0  2.035854  0  0  -0.13285  -0.332512  0  2.051833  0
O  O100  1  0.75150561  0.16278955  0.73074257  1  0  -0.460111  0  1.842095  0  0  -0.425226  0  2.081213  0  0  -0.447051  0  2.073625  0  0  -0.199034  -0.409661  0  2.085701  0
O  O101  1  0.24849652  0.33720959  0.23074269  1  0  -0.460214  0  1.841966  0  0  -0.425281  0  2.081153  0  0  -0.447108  0  2.073566  0  0  -0.199045  -0.410469  0  2.085635  0
O  O102  1  0.24849685  0.83721454  0.26925794  1  0  -0.460071  0  1.842044  0  0  -0.425189  0  2.081182  0  0  -0.447015  0  2.073595  0  0  -0.198996  -0.409601  0  2.085599  0
O  O103  1  0.75150160  0.66278754  0.76925782  1  0  -0.460104  0  1.842044  0  0  -0.425183  0  2.081224  0  0  -0.44701  0  2.073639  0  0  -0.199011  -0.409606  0  2.085681  0
O  O104  1  0.56512750  0.91811791  0.73913977  1  0  -0.475109  0  1.848073  0  0  -0.45355  0  2.097936  0  0  -0.472372  0  2.088734  0  0  -0.188866  -0.440146  0  2.103518  0
O  O105  1  0.43486562  0.58188445  0.23913993  1  0  -0.475235  0  1.848082  0  0  -0.453596  0  2.097976  0  0  -0.472425  0  2.088789  0  0  -0.188885  -0.440974  0  2.103572  0
O  O106  1  0.43487411  0.08188734  0.26085797  1  0  -0.475139  0  1.847784  0  0  -0.453581  0  2.097672  0  0  -0.472398  0  2.08846  0  0  -0.188903  -0.44018  0  2.103249  0
O  O107  1  0.56512587  0.41811616  0.76085725  1  0  -0.475105  0  1.847942  0  0  -0.453478  0  2.097852  0  0  -0.472297  0  2.088644  0  0  -0.18886  -0.440082  0  2.103443  0
O  O108  1  0.77703209  0.99386105  0.64865185  1  0  -0.435048  0  1.796578  0  0  -0.416686  0  2.010855  0  0  -0.433069  0  2.005665  0  0  -0.16381  -0.404903  0  2.013983  0
O  O109  1  0.22296874  0.50613750  0.14865102  1  0  -0.435054  0  1.796463  0  0  -0.416624  0  2.01081  0  0  -0.43301  0  2.005621  0  0  -0.163747  -0.405662  0  2.013973  0
O  O110  1  0.22297742  0.00614999  0.35134811  1  0  -0.435052  0  1.796521  0  0  -0.416689  0  2.010831  0  0  -0.433075  0  2.00564  0  0  -0.163746  -0.404866  0  2.013916  0
O  O111  1  0.77702640  0.49385268  0.85134672  1  0  -0.435083  0  1.79657  0  0  -0.416665  0  2.010908  0  0  -0.433049  0  2.005716  0  0  -0.163776  -0.404848  0  2.014  0
