# generated using pymatgen
data_ZnH11C19(NO2)3
_symmetry_space_group_name_H-M   'P 1'
_cell_length_a   10.87960844
_cell_length_b   15.85073585
_cell_length_c   17.27847364
_cell_angle_alpha   85.27820813
_cell_angle_beta   88.50241593
_cell_angle_gamma   86.08839482
_symmetry_Int_Tables_number   1
_chemical_formula_structural   ZnH11C19(NO2)3
_chemical_formula_sum   'Zn2 H22 C38 N6 O12'
_cell_volume   2962.00817207
_cell_formula_units_Z   2
loop_
 _symmetry_equiv_pos_site_id
 _symmetry_equiv_pos_as_xyz
  1  'x, y, z'
loop_
 _atom_site_type_symbol
 _atom_site_label
 _atom_site_symmetry_multiplicity
 _atom_site_fract_x
 _atom_site_fract_y
 _atom_site_fract_z
 _atom_site_occupancy
 _atom_site_pbe_bader_charge
 _atom_site_pbe_bader_spin_density
 _atom_site_pbe_cm5_charge
 _atom_site_pbe_ddec_charge
 _atom_site_pbe_ddec_spin_density
 _atom_site_pbe_ddec_sum_bond_order
 _atom_site_pbe_magmom
Zn  Zn0  1  0.49399746  0.58758801  0.50146261  1  1.273753  0  0.661287  0.807135  0  2.447991  0
Zn  Zn1  1  0.50600850  0.41241190  0.49854095  1  1.272293  0  0.661229  0.807145  0  2.448097  0
H  H2  1  0.09466766  0.44790216  0.38128417  1  0.074451  0  0.097049  0.082287  0  0.994929  0
H  H3  1  0.64894546  0.44427464  0.10480129  1  0.104265  0  0.110814  0.11056  0  1.007015  0
H  H4  1  0.31955757  0.61104774  0.10727764  1  0.110802  0  0.114774  0.121992  0  0.994775  0
H  H5  1  0.68043398  0.38894913  0.89272280  1  0.110793  0  0.114779  0.121986  0  0.994763  0
H  H6  1  0.64100310  0.28792163  0.40330446  1  0.12961  0  0.137155  0.113481  0  0.958227  0
H  H7  1  0.35898195  0.71207723  0.59668955  1  0.129656  0  0.1372  0.113448  0  0.958386  0
H  H8  1  0.04926091  0.64820962  0.50771013  1  0.036986  0  0.094582  0.081708  0  0.998229  0
H  H9  1  0.95074647  0.35179668  0.49228603  1  0.036935  0  0.094586  0.081653  0  0.998239  0
H  H10  1  0.29439721  0.61114355  0.32457086  1  0.056051  0  0.101941  0.051018  0  0.981447  0
H  H11  1  0.70560282  0.38885072  0.67543025  1  0.056084  0  0.101943  0.051018  0  0.981485  0
H  H12  1  0.61171316  0.73132321  0.41344505  1  0.157511  0  0.140119  0.121774  0  0.960743  0
H  H13  1  0.90533875  0.55210478  0.61871138  1  0.074196  0  0.097061  0.082311  0  0.994893  0
H  H14  1  0.38828613  0.26867927  0.58656014  1  0.157396  0  0.140097  0.121744  0  0.96071  0
H  H15  1  0.56630185  0.95936229  0.36172320  1  0.073253  0  0.105292  0.039817  0  0.968742  0
H  H16  1  0.43369638  0.04064145  0.63828423  1  0.073388  0  0.105289  0.039782  0  0.96866  0
H  H17  1  0.66658239  0.12795978  0.40015359  1  0.127678  0  0.130753  0.145966  0  0.960541  0
H  H18  1  0.33340364  0.87203779  0.59984339  1  0.127696  0  0.130724  0.145935  0  0.960529  0
H  H19  1  0.91543959  0.58718736  0.38752335  1  0.057942  0  0.10074  0.089442  0  0.988016  0
H  H20  1  0.08456779  0.41281895  0.61247223  1  0.057521  0  0.100775  0.089488  0  0.987959  0
H  H21  1  0.34281206  0.55703765  0.75027942  1  0.073384  0  0.107712  0.112006  0  0.983431  0
H  H22  1  0.65717819  0.44295290  0.24972031  1  0.07351  0  0.10768  0.111962  0  0.98334  0
H  H23  1  0.35104377  0.55571718  0.89519837  1  0.104347  0  0.110818  0.110524  0  1.006984  0
C  C24  1  0.50109773  0.51961939  0.34656947  1  1.570858  0  0.214988  0.587058  0  4.198199  0
C  C25  1  0.55268805  0.76472490  0.45461226  1  0.501376  0  0.086578  0.105748  0  3.828707  0
C  C26  1  0.45374345  0.14666702  0.54828093  1  0.04693  0  0.004552  -0.070107  0  3.914977  0
C  C27  1  0.54625228  0.85333423  0.45172264  1  0.047066  0  0.004596  -0.069845  0  3.914863  0
C  C28  1  0.53331241  0.10775731  0.49377272  1  0.30864  0  0.11944  0.16933  0  4.019649  0
C  C29  1  0.46667866  0.89224460  0.50623201  1  0.308801  0  0.119442  0.169135  0  4.019547  0
C  C30  1  0.60405430  0.15777095  0.44165221  1  -0.012442  0  -0.058754  -0.177138  0  3.90536  0
C  C31  1  0.39593246  0.84222849  0.55834694  1  -0.012622  0  -0.058759  -0.177103  0  3.905295  0
C  C32  1  0.59022808  0.24536134  0.44313401  1  0.539336  0  0.076473  0.124794  0  3.884603  0
C  C33  1  0.40975966  0.75463747  0.55686460  1  0.539356  0  0.076455  0.124863  0  3.884831  0
C  C34  1  0.73978345  0.49358957  0.49889672  1  1.514369  0  0.213998  0.594583  0  4.181543  0
C  C35  1  0.49889809  0.48038125  0.65343183  1  1.570409  0  0.215006  0.587457  0  4.197517  0
C  C36  1  0.26022096  0.50641797  0.50110633  1  1.514445  0  0.213962  0.59448  0  4.18143  0
C  C37  1  0.95442133  0.54853103  0.43749650  1  -0.018267  0  -0.072517  -0.062188  0  3.628339  0
C  C38  1  0.04558604  0.45147528  0.56249966  1  -0.017995  0  -0.072586  -0.062281  0  3.628331  0
C  C39  1  0.05083176  0.47084071  0.43401418  1  -0.045422  0  -0.075258  -0.065052  0  3.634376  0
C  C40  1  0.94917932  0.52916557  0.56598078  1  -0.045297  0  -0.075142  -0.064858  0  3.634073  0
C  C41  1  0.12391392  0.50557763  0.50116152  1  0.046817  0  -0.00958  -0.030697  0  3.651952  0
C  C42  1  0.87609075  0.49442739  0.49883823  1  0.046879  0  -0.009607  -0.030765  0  3.651888  0
C  C43  1  0.02655865  0.58245782  0.50447504  1  -0.013313  0  -0.08078  -0.06973  0  3.653732  0
C  C44  1  0.97344943  0.41755101  0.49552094  1  -0.012585  0  -0.080745  -0.069527  0  3.653783  0
C  C45  1  0.49347117  0.52583311  0.25953516  1  -0.038459  0  0.005468  -0.025618  0  3.900708  0
C  C46  1  0.48207365  0.52622328  0.09752463  1  0.310613  0  0.087172  0.164314  0  4.052157  0
C  C47  1  0.50652782  0.47416310  0.74046294  1  -0.038283  0  0.005505  -0.025752  0  3.900774  0
C  C48  1  0.58357719  0.47946817  0.21774861  1  -0.028121  0  -0.082664  -0.094297  0  3.98897  0
C  C49  1  0.41641275  0.52052618  0.78225086  1  -0.027858  0  -0.08272  -0.094405  0  3.989084  0
C  C50  1  0.57937427  0.47989748  0.13765268  1  0.01025  0  -0.070927  -0.114488  0  3.930332  0
C  C51  1  0.42061563  0.52009751  0.86234560  1  0.010148  0  -0.070943  -0.114395  0  3.930155  0
C  C52  1  0.29847427  0.62320472  0.26030769  1  0.970861  0  0.094383  0.271982  0  3.956816  0
C  C53  1  0.70152371  0.37679210  0.73969327  1  0.971062  0  0.094326  0.271915  0  3.957326  0
C  C54  1  0.61486173  0.90004879  0.38781356  1  0.988539  0  0.100125  0.26528  0  4.022099  0
C  C55  1  0.38513988  0.09995808  0.61219593  1  0.988893  0  0.100226  0.265469  0  4.021561  0
C  C56  1  0.51791899  0.47377169  0.90247477  1  0.310634  0  0.087174  0.164283  0  4.052301  0
C  C57  1  0.39428685  0.57459403  0.13829231  1  0.046034  0  -0.061434  -0.140051  0  3.882498  0
C  C58  1  0.60570586  0.42539965  0.86170949  1  0.045964  0  -0.061452  -0.140103  0  3.882311  0
C  C59  1  0.39869591  0.57486909  0.21927911  1  -0.043293  0  -0.016931  -0.004901  0  3.9735  0
C  C60  1  0.60130036  0.42512649  0.78072022  1  -0.043536  0  -0.016856  -0.004698  0  3.973298  0
C  C61  1  0.44730776  0.23527573  0.54539020  1  0.501347  0  0.086523  0.105745  0  3.828779  0
N  N62  1  0.46519386  0.52700279  0.01662335  1  -0.490089  0  -0.148512  -0.135826  0  3.273532  0
N  N63  1  0.53479788  0.47299219  0.98337548  1  -0.450473  0  -0.148416  -0.135686  0  3.273753  0
N  N64  1  0.51305664  0.28286618  0.49413004  1  -1.234176  0  -0.304483  -0.174169  0  3.493041  0
N  N65  1  0.48693556  0.71713384  0.50587133  1  -1.234435  0  -0.304552  -0.174245  0  3.493116  0
N  N66  1  0.54653912  0.01949462  0.48820699  1  -0.455756  0  -0.110045  -0.087399  0  3.25893  0
N  N67  1  0.45345306  0.98050474  0.51179849  1  -0.414445  0  -0.11005  -0.087327  0  3.258858  0
O  O68  1  0.49527558  0.58820112  0.38019636  1  -1.161623  0  -0.313469  -0.549677  0  2.317047  0
O  O69  1  0.77713859  0.32683675  0.77347290  1  -1.082625  0  -0.27935  -0.367887  0  2.080357  0
O  O70  1  0.71386444  0.87303644  0.36167600  1  -1.063408  0  -0.256062  -0.333327  0  2.086201  0
O  O71  1  0.28613964  0.12697357  0.63833499  1  -1.063856  0  -0.256109  -0.333351  0  2.085929  0
O  O72  1  0.50475153  0.41178856  0.61980246  1  -1.161318  0  -0.31353  -0.549907  0  2.316376  0
O  O73  1  0.51315514  0.44456199  0.37897456  1  -1.160305  0  -0.317673  -0.551164  0  2.307727  0
O  O74  1  0.48682049  0.55542672  0.62102950  1  -1.160151  0  -0.317649  -0.551307  0  2.307936  0
O  O75  1  0.67999926  0.56572076  0.49997785  1  -1.164299  0  -0.32454  -0.552043  0  2.316379  0
O  O76  1  0.32001121  0.43427709  0.50004259  1  -1.164333  0  -0.324554  -0.552103  0  2.316109  0
O  O77  1  0.69252550  0.42211039  0.49878755  1  -1.15896  0  -0.32242  -0.554738  0  2.320496  0
O  O78  1  0.30747234  0.57789166  0.50119395  1  -1.159047  0  -0.322342  -0.554555  0  2.320633  0
O  O79  1  0.22286177  0.67316515  0.22652537  1  -1.082332  0  -0.279377  -0.367908  0  2.079963  0
