# generated using pymatgen
data_Zn2H26C29(N3O5)2
_symmetry_space_group_name_H-M   'P 1'
_cell_length_a   8.14276822
_cell_length_b   15.26457385
_cell_length_c   18.32830000
_cell_angle_alpha   113.42815244
_cell_angle_beta   90.00000000
_cell_angle_gamma   105.46926570
_symmetry_Int_Tables_number   1
_chemical_formula_structural   Zn2H26C29(N3O5)2
_chemical_formula_sum   'Zn4 H52 C58 N12 O20'
_cell_volume   2000.05859548
_cell_formula_units_Z   2
loop_
 _symmetry_equiv_pos_site_id
 _symmetry_equiv_pos_as_xyz
  1  'x, y, z'
loop_
 _atom_site_type_symbol
 _atom_site_label
 _atom_site_symmetry_multiplicity
 _atom_site_fract_x
 _atom_site_fract_y
 _atom_site_fract_z
 _atom_site_occupancy
 _atom_site_hle17_bader_spin_density
 _atom_site_hle17_ddec_charge
 _atom_site_hle17_ddec_spin_density
 _atom_site_hle17_ddec_sum_bond_order
 _atom_site_hle17_magmom
 _atom_site_hse06_10hf_bader_spin_density
 _atom_site_hse06_10hf_ddec_charge
 _atom_site_hse06_10hf_ddec_spin_density
 _atom_site_hse06_10hf_ddec_sum_bond_order
 _atom_site_hse06_10hf_magmom
 _atom_site_hse06_bader_spin_density
 _atom_site_hse06_ddec_charge
 _atom_site_hse06_ddec_spin_density
 _atom_site_hse06_ddec_sum_bond_order
 _atom_site_hse06_magmom
 _atom_site_pbe_bader_charge
 _atom_site_pbe_bader_spin_density
 _atom_site_pbe_cm5_charge
 _atom_site_pbe_ddec_charge
 _atom_site_pbe_ddec_spin_density
 _atom_site_pbe_ddec_sum_bond_order
 _atom_site_pbe_magmom
Zn  Zn0  1  0.49241344  0.38830200  0.88694113  1  0  1.106603  0  1.771246  0  0  0.924844  0  2.24664  0  0  0.976934  0  2.182525  0  1.315927  0  0.702811  0.888079  0  2.291016  0
Zn  Zn1  1  0.10486550  0.61166238  0.61305831  1  0  1.106293  0  1.771841  0  0  0.924183  0  2.247394  0  0  0.976287  0  2.183272  0  1.315186  0  0.702673  0.887426  0  2.291744  0
Zn  Zn2  1  0.50762460  0.61171984  0.11308116  1  0  1.106408  0  1.771936  0  0  0.924632  0  2.247457  0  0  0.976723  0  2.183329  0  1.31571  0  0.702618  0.887868  0  2.291842  0
Zn  Zn3  1  0.89511960  0.38831991  0.38695634  1  0  1.106344  0  1.772022  0  0  0.924195  0  2.247698  0  0  0.976295  0  2.183581  0  1.315184  0  0.702639  0.887448  0  2.292029  0
H  H4  1  0.23225969  0.42286718  0.67702326  1  0  0.125004  0  0.923989  0  0  0.132485  0  0.985144  0  0  0.13721  0  0.980359  0  0.156813  0  0.116964  0.129007  0  0.988649  0
H  H5  1  0.80959237  0.57713302  0.82276762  1  0  0.124516  0  0.924348  0  0  0.132359  0  0.985181  0  0  0.137109  0  0.980342  0  0.160658  0  0.11686  0.128877  0  0.988693  0
H  H6  1  0.76776283  0.57712854  0.32297238  1  0  0.125235  0  0.924124  0  0  0.132699  0  0.985256  0  0  0.137429  0  0.980458  0  0.156773  0  0.117053  0.12922  0  0.988761  0
H  H7  1  0.19042689  0.42287092  0.17726292  1  0  0.124378  0  0.92444  0  0  0.132291  0  0.985206  0  0  0.137042  0  0.980364  0  0.160591  0  0.116811  0.128808  0  0.988719  0
H  H8  1  0.76956420  0.07715866  0.85797916  1  0  0.067889  0  0.931416  0  0  0.085742  0  0.990908  0  0  0.086303  0  0.990624  0  0.065251  0  0.111538  0.085222  0  0.991267  0
H  H9  1  0.69291091  0.92266619  0.64162598  1  0  0.068403  0  0.930807  0  0  0.085556  0  0.991103  0  0  0.086127  0  0.990861  0  0.049219  0  0.111475  0.085048  0  0.991404  0
H  H10  1  0.23039965  0.92282289  0.14198395  1  0  0.067805  0  0.931465  0  0  0.085655  0  0.990921  0  0  0.08622  0  0.990645  0  0.065618  0  0.111459  0.085138  0  0.991278  0
H  H11  1  0.30705468  0.07733849  0.35836444  1  0  0.068318  0  0.931133  0  0  0.085522  0  0.991376  0  0  0.086086  0  0.991136  0  0.049231  0  0.111445  0.085021  0  0.991677  0
H  H12  1  0.98423167  0.14748293  0.89881549  1  0  0.067262  0  0.945428  0  0  0.08292  0  1.011285  0  0  0.082656  0  1.012152  0  0.069098  0  0.106001  0.083016  0  1.010742  0
H  H13  1  0.83729799  0.85232177  0.60102796  1  0  0.067475  0  0.946023  0  0  0.08319  0  1.011662  0  0  0.082958  0  1.012541  0  0.065379  0  0.1061  0.083278  0  1.011106  0
H  H14  1  0.01573145  0.85247996  0.10116764  1  0  0.067453  0  0.945219  0  0  0.082997  0  1.011159  0  0  0.08274  0  1.012029  0  0.068347  0  0.10606  0.083093  0  1.010623  0
H  H15  1  0.16264973  0.14767172  0.39894838  1  0  0.067544  0  0.945832  0  0  0.083188  0  1.011609  0  0  0.08295  0  1.012488  0  0.064006  0  0.106037  0.083281  0  1.011057  0
H  H16  1  0.50316322  0.09042897  0.79024292  1  0  0.125149  0  0.932777  0  0  0.146093  0  0.991693  0  0  0.148198  0  0.990675  0  0.060608  0  0.100239  0.144599  0  0.992436  0
H  H17  1  0.41327737  0.90938543  0.70991746  1  0  0.125598  0  0.932966  0  0  0.146736  0  0.991446  0  0  0.148885  0  0.990383  0  0.055044  0  0.10036  0.145227  0  0.992197  0
H  H18  1  0.49678746  0.90958765  0.20977328  1  0  0.125347  0  0.932453  0  0  0.146199  0  0.991509  0  0  0.148301  0  0.99049  0  0.060105  0  0.100342  0.144705  0  0.992255  0
H  H19  1  0.58674956  0.09062895  0.29009526  1  0  0.125798  0  0.932999  0  0  0.146958  0  0.991431  0  0  0.149108  0  0.990368  0  0.055336  0  0.100412  0.145444  0  0.992188  0
H  H20  1  0.40418182  0.17622706  0.85537901  1  0  0.151888  0  0.958858  0  0  0.172303  0  1.016141  0  0  0.174814  0  1.014598  0  0.126078  0  0.106532  0.170459  0  1.017351  0
H  H21  1  0.22863923  0.82370076  0.64464434  1  0  0.153553  0  0.957788  0  0  0.173845  0  1.014967  0  0  0.176368  0  1.013386  0  0.102513  0  0.107299  0.17198  0  1.016221  0
H  H22  1  0.59583260  0.82380896  0.14466762  1  0  0.151921  0  0.95914  0  0  0.172347  0  1.01638  0  0  0.174854  0  1.014837  0  0.127135  0  0.106635  0.170511  0  1.017571  0
H  H23  1  0.77133972  0.17629869  0.35540164  1  0  0.153827  0  0.957667  0  0  0.174109  0  1.014861  0  0  0.176634  0  1.013253  0  0.101904  0  0.107375  0.172242  0  1.016117  0
H  H24  1  0.51517849  0.11411315  0.89379008  1  0  0.132245  0  0.926558  0  0  0.152496  0  0.983726  0  0  0.154981  0  0.98219  0  0.060012  0  0.102891  0.150729  0  0.984826  0
H  H25  1  0.40182331  0.88597137  0.60640519  1  0  0.132952  0  0.926312  0  0  0.153231  0  0.983376  0  0  0.155706  0  0.981857  0  0.061942  0  0.103264  0.151476  0  0.984463  0
H  H26  1  0.48483691  0.88590272  0.10622968  1  0  0.132346  0  0.92662  0  0  0.152649  0  0.983685  0  0  0.155145  0  0.982134  0  0.059269  0  0.102961  0.150875  0  0.984791  0
H  H27  1  0.59810743  0.11401764  0.39360678  1  0  0.13296  0  0.926541  0  0  0.153387  0  0.983375  0  0  0.155861  0  0.981859  0  0.061456  0  0.10338  0.151627  0  0.984466  0
H  H28  1  0.08486356  0.01104889  0.80048273  1  0  0.068661  0  0.923874  0  0  0.090405  0  0.977831  0  0  0.090643  0  0.978876  0  0.008148  0  0.093404  0.090154  0  0.977207  0
H  H29  1  0.07379127  0.98965124  0.69912636  1  0  0.068373  0  0.923713  0  0  0.090104  0  0.977739  0  0  0.090294  0  0.978841  0  0.043468  0  0.093167  0.089849  0  0.977128  0
H  H30  1  0.91511492  0.98893490  0.19950077  1  0  0.068585  0  0.92371  0  0  0.090323  0  0.977704  0  0  0.090556  0  0.978767  0  0.007918  0  0.093365  0.090071  0  0.97708  0
H  H31  1  0.92623553  0.01034075  0.30085932  1  0  0.068408  0  0.923736  0  0  0.090002  0  0.977931  0  0  0.090233  0  0.978981  0  0.043914  0  0.093182  0.08975  0  0.977316  0
H  H32  1  0.92953187  0.17757394  0.46620458  1  0  0.119678  0  0.9534  0  0  0.124808  0  1.023032  0  0  0.12898  0  1.019039  0  0.130756  0  0.11468  0.12175  0  1.025933  0
H  H33  1  0.75259380  0.82224196  0.03385099  1  0  0.11967  0  0.953672  0  0  0.124816  0  1.023443  0  0  0.128918  0  1.019507  0  0.1335  0  0.114502  0.121785  0  1.026346  0
H  H34  1  0.07052437  0.82239343  0.53378712  1  0  0.119628  0  0.953271  0  0  0.124836  0  1.022839  0  0  0.12901  0  1.018843  0  0.130779  0  0.114684  0.121773  0  1.025747  0
H  H35  1  0.24733024  0.17777541  0.96613326  1  0  0.119607  0  0.953354  0  0  0.124729  0  1.023148  0  0  0.128834  0  1.019215  0  0.133293  0  0.114593  0.121697  0  1.02605  0
H  H36  1  0.16747738  0.12157509  0.64731757  1  0  0.127606  0  0.959138  0  0  0.132273  0  1.025686  0  0  0.1371  0  1.020798  0  0.172028  0  0.115947  0.128731  0  1.029278  0
H  H37  1  0.04576660  0.87855197  0.85267027  1  0  0.12759  0  0.959616  0  0  0.132336  0  1.026026  0  0  0.137142  0  1.021172  0  0.141941  0  0.115947  0.128807  0  1.029613  0
H  H38  1  0.83263835  0.87844004  0.35269431  1  0  0.127573  0  0.959647  0  0  0.13232  0  1.026049  0  0  0.137144  0  1.021168  0  0.172063  0  0.115957  0.128778  0  1.029633  0
H  H39  1  0.95413311  0.12144376  0.14730955  1  0  0.127804  0  0.959264  0  0  0.132368  0  1.025892  0  0  0.137183  0  1.021017  0  0.142597  0  0.115918  0.128838  0  1.029479  0
H  H40  1  0.08973863  0.32678058  0.89187752  1  0  0.122368  0  0.973962  0  0  0.131178  0  1.036879  0  0  0.133639  0  1.036183  0  0.136336  0  0.121508  0.129356  0  1.037552  0
H  H41  1  0.76366117  0.67315993  0.60798362  1  0  0.12173  0  0.973518  0  0  0.130415  0  1.036625  0  0  0.132843  0  1.035986  0  0.14999  0  0.121455  0.128605  0  1.037292  0
H  H42  1  0.91028296  0.67318381  0.10809737  1  0  0.122399  0  0.97392  0  0  0.131226  0  1.03685  0  0  0.133686  0  1.036141  0  0.136472  0  0.121558  0.129399  0  1.037542  0
H  H43  1  0.23631701  0.32685520  0.39202172  1  0  0.121668  0  0.973514  0  0  0.130378  0  1.036572  0  0  0.132807  0  1.035933  0  0.150102  0  0.121485  0.128578  0  1.037237  0
H  H44  1  0.89740473  0.45801290  0.90586148  1  0  0.110555  0  0.955182  0  0  0.121509  0  1.0109  0  0  0.123682  0  1.010379  0  0.124348  0  0.120343  0.119959  0  1.011376  0
H  H45  1  0.44007960  0.54183134  0.59378228  1  0  0.110877  0  0.953798  0  0  0.121527  0  1.009845  0  0  0.123707  0  1.00932  0  0.12311  0  0.120431  0.119982  0  1.010319  0
H  H46  1  0.10267455  0.54198581  0.09413842  1  0  0.110619  0  0.955436  0  0  0.121671  0  1.011019  0  0  0.12385  0  1.010489  0  0.124058  0  0.120365  0.120121  0  1.011496  0
H  H47  1  0.55993453  0.45817707  0.40623775  1  0  0.110928  0  0.953631  0  0  0.121528  0  1.009741  0  0  0.123708  0  1.009214  0  0.123072  0  0.120441  0.119981  0  1.010216  0
H  H48  1  0.84123789  0.08371472  0.72448451  1  0  0.064883  0  0.93054  0  0  0.084799  0  0.987073  0  0  0.085389  0  0.987789  0  0.003396  0  0.089843  0.08429  0  0.98671  0
H  H49  1  0.75817865  0.91674439  0.77538686  1  0  0.06533  0  0.930715  0  0  0.084745  0  0.987733  0  0  0.08534  0  0.988452  0  0.018819  0  0.08972  0.08427  0  0.987328  0
H  H50  1  0.15879226  0.91628399  0.27549575  1  0  0.064871  0  0.930495  0  0  0.084706  0  0.987088  0  0  0.085298  0  0.987813  0  0.003476  0  0.08984  0.084202  0  0.98672  0
H  H51  1  0.24182950  0.08325208  0.22459920  1  0  0.065337  0  0.930876  0  0  0.084733  0  0.987929  0  0  0.085322  0  0.988645  0  0.018423  0  0.089704  0.08426  0  0.987516  0
H  H52  1  0.05337794  0.15436358  0.76913078  1  0  0.083865  0  0.982341  0  0  0.09898  0  1.048502  0  0  0.100012  0  1.049175  0  0.084419  0  0.093148  0.098212  0  1.048049  0
H  H53  1  0.90009941  0.84628879  0.73095735  1  0  0.084858  0  0.980248  0  0  0.099609  0  1.046718  0  0  0.100657  0  1.047362  0  0.073294  0  0.093371  0.098835  0  1.046291  0
H  H54  1  0.94664138  0.84563065  0.23086709  1  0  0.083895  0  0.982236  0  0  0.098941  0  1.04844  0  0  0.099976  0  1.049117  0  0.084831  0  0.093194  0.098174  0  1.047986  0
H  H55  1  0.09988771  0.15370246  0.26902153  1  0  0.084921  0  0.980238  0  0  0.099694  0  1.046703  0  0  0.100735  0  1.047346  0  0.072918  0  0.093376  0.098921  0  1.046274  0
C  C56  1  0.06065835  0.37909099  0.53222557  1  0  0.687428  0  3.883239  0  0  0.635034  0  4.171637  0  0  0.671503  0  4.162981  0  1.617649  0  0.229373  0.610226  0  4.176866  0
C  C57  1  0.68183572  0.62073908  0.96758918  1  0  0.688223  0  3.884953  0  0  0.635461  0  4.173873  0  0  0.671955  0  4.165207  0  1.610615  0  0.228904  0.610645  0  4.179101  0
C  C58  1  0.93933289  0.62089130  0.46777653  1  0  0.687777  0  3.883414  0  0  0.635287  0  4.171776  0  0  0.671733  0  4.163118  0  1.617056  0  0.229507  0.610495  0  4.177008  0
C  C59  1  0.31817947  0.37926411  0.03241493  1  0  0.687752  0  3.885386  0  0  0.635198  0  4.174001  0  0  0.671686  0  4.165335  0  1.61086  0  0.228593  0.610381  0  4.179234  0
C  C60  1  0.04240643  0.13844802  0.55121235  1  0  0.101381  0  3.758099  0  0  0.100054  0  4.017163  0  0  0.098459  0  4.036953  0  0.189493  0  0.083734  0.100499  0  4.004121  0
C  C61  1  0.90408203  0.86151935  0.94876626  1  0  0.098953  0  3.76048  0  0  0.097364  0  4.019878  0  0  0.095648  0  4.039796  0  0.230413  0  0.082853  0.097888  0  4.006742  0
C  C62  1  0.95770137  0.86153651  0.44878176  1  0  0.101414  0  3.758689  0  0  0.09995  0  4.017941  0  0  0.098353  0  4.037744  0  0.188961  0  0.083399  0.100393  0  4.004894  0
C  C63  1  0.09582183  0.13849205  0.05120893  1  0  0.098106  0  3.761253  0  0  0.096831  0  4.020219  0  0  0.095128  0  4.040127  0  0.229248  0  0.082735  0.097347  0  4.007091  0
C  C64  1  0.17935688  0.34293492  0.64153808  1  0  -0.035141  0  3.630382  0  0  -0.075016  0  3.874737  0  0  -0.068826  0  3.890857  0  0.036788  0  -0.057829  -0.078663  0  3.863754  0
C  C65  1  0.83666401  0.65704140  0.85831746  1  0  -0.033615  0  3.629415  0  0  -0.073968  0  3.87396  0  0  -0.067773  0  3.890065  0  -0.031369  0  -0.058191  -0.077611  0  3.862987  0
C  C66  1  0.82064237  0.65705110  0.35845544  1  0  -0.035126  0  3.630516  0  0  -0.075067  0  3.874709  0  0  -0.068909  0  3.890802  0  0.037002  0  -0.057804  -0.07869  0  3.863745  0
C  C67  1  0.16331921  0.34295432  0.14169891  1  0  -0.033481  0  3.629906  0  0  -0.073925  0  3.874486  0  0  -0.067718  0  3.890576  0  -0.031226  0  -0.058199  -0.077572  0  3.863519  0
C  C68  1  0.08407312  0.30771757  0.56649073  1  0  -0.063898  0  3.731328  0  0  -0.037121  0  3.967154  0  0  -0.049188  0  3.99144  0  -0.087841  0  -0.013475  -0.029546  0  3.950895  0
C  C69  1  0.77670302  0.69217966  0.93340354  1  0  -0.066691  0  3.733626  0  0  -0.039643  0  3.969785  0  0  -0.051723  0  3.994039  0  -0.024732  0  -0.013304  -0.032076  0  3.953548  0
C  C70  1  0.91593916  0.69226995  0.43351474  1  0  -0.064312  0  3.7319  0  0  -0.037212  0  3.967319  0  0  -0.049185  0  3.991489  0  -0.087628  0  -0.013517  -0.029707  0  3.951145  0
C  C71  1  0.22328894  0.30783845  0.06660987  1  0  -0.066646  0  3.734203  0  0  -0.039696  0  3.97032  0  0  -0.051772  0  3.99457  0  -0.024472  0  -0.0134  -0.03213  0  3.954086  0
C  C72  1  0.88175848  0.13205687  0.85257151  1  0  0.019096  0  3.632021  0  0  -0.043907  0  3.894902  0  0  -0.03923  0  3.906803  0  0.305116  0  -0.050296  -0.046893  0  3.886727  0
C  C73  1  0.75028969  0.86792617  0.64725788  1  0  0.018767  0  3.633136  0  0  -0.043859  0  3.895694  0  0  -0.039291  0  3.907765  0  0.309094  0  -0.050602  -0.046805  0  3.887484  0
C  C74  1  0.11822956  0.86792393  0.14740773  1  0  0.019168  0  3.632171  0  0  -0.043567  0  3.894801  0  0  -0.038911  0  3.906752  0  0.305259  0  -0.050184  -0.04657  0  3.886638  0
C  C75  1  0.24967858  0.13207403  0.35272996  1  0  0.018877  0  3.63307  0  0  -0.043822  0  3.895807  0  0  -0.039244  0  3.907844  0  0.310549  0  -0.05062  -0.046792  0  3.887623  0
C  C76  1  0.51602236  0.14860297  0.85125339  1  0  -0.392841  0  3.715973  0  0  -0.475581  0  3.957017  0  0  -0.479247  0  3.961515  0  -0.066458  0  -0.229068  -0.472815  0  3.953769  0
C  C77  1  0.36806883  0.85135545  0.64885211  1  0  -0.396665  0  3.714906  0  0  -0.479327  0  3.956145  0  0  -0.483018  0  3.960528  0  -0.042846  0  -0.230911  -0.476569  0  3.952996  0
C  C78  1  0.48398348  0.85141589  0.14876791  1  0  -0.393221  0  3.716676  0  0  -0.476015  0  3.957701  0  0  -0.479688  0  3.962186  0  -0.066469  0  -0.229338  -0.473243  0  3.954461  0
C  C79  1  0.63190178  0.14864699  0.35116867  1  0  -0.397168  0  3.715489  0  0  -0.479968  0  3.956622  0  0  -0.483662  0  3.960986  0  -0.04187  0  -0.231061  -0.477203  0  3.953484  0
C  C80  1  0.20598664  0.27528725  0.67082363  1  0  -0.044673  0  3.72788  0  0  -0.017576  0  3.961427  0  0  -0.028602  0  3.984965  0  0.037504  0  -0.00987  -0.010799  0  3.945746  0
C  C81  1  0.93095663  0.72476594  0.82910374  1  0  -0.043623  0  3.725643  0  0  -0.016696  0  3.959532  0  0  -0.027699  0  3.983042  0  -0.01845  0  -0.009028  -0.009931  0  3.943871  0
C  C82  1  0.79406417  0.72471594  0.32918594  1  0  -0.044729  0  3.728059  0  0  -0.017681  0  3.961619  0  0  -0.028705  0  3.985167  0  0.037078  0  -0.009924  -0.010905  0  3.945936  0
C  C83  1  0.06899786  0.27523128  0.17089403  1  0  -0.043819  0  3.726675  0  0  -0.016868  0  3.960516  0  0  -0.027876  0  3.984029  0  -0.017562  0  -0.008935  -0.010101  0  3.944854  0
C  C84  1  0.67436395  0.23246842  0.86742315  1  0  0.386259  0  3.66606  0  0  0.364229  0  3.926853  0  0  0.380547  0  3.942228  0  0.990605  0  0.226427  0.353487  0  3.916052  0
C  C85  1  0.44257854  0.76745418  0.63254336  1  0  0.386887  0  3.666599  0  0  0.364064  0  3.927931  0  0  0.380395  0  3.943303  0  0.965595  0  0.225824  0.353297  0  3.917147  0
C  C86  1  0.32566886  0.76754298  0.13257495  1  0  0.386268  0  3.666037  0  0  0.364545  0  3.92655  0  0  0.380873  0  3.94192  0  0.990046  0  0.226331  0.353792  0  3.915756  0
C  C87  1  0.55740301  0.23255050  0.36747325  1  0  0.386641  0  3.666917  0  0  0.363894  0  3.928181  0  0  0.380254  0  3.943516  0  0.964656  0  0.225659  0.353129  0  3.91739  0
C  C88  1  0.99693937  0.00027908  0.74986080  1  0  -0.087832  0  3.667326  0  0  -0.123711  0  3.927229  0  0  -0.124492  0  3.942048  0  -0.004513  0  -0.15938  -0.123004  0  3.916918  0
C  C89  1  0.00306885  0.99970769  0.25012096  1  0  -0.087688  0  3.667175  0  0  -0.123537  0  3.927157  0  0  -0.124347  0  3.941985  0  -0.004766  0  -0.159331  -0.122834  0  3.916845  0
C  C90  1  0.01091285  0.20509729  0.52235840  1  0  -0.102181  0  3.693673  0  0  -0.141019  0  3.947426  0  0  -0.135899  0  3.961933  0  0.00306  0  -0.071295  -0.144001  0  3.937657  0
C  C91  1  0.80623263  0.79479397  0.97763265  1  0  -0.099471  0  3.693761  0  0  -0.138258  0  3.947175  0  0  -0.133046  0  3.961784  0  -0.031124  0  -0.069953  -0.14129  0  3.937334  0
C  C92  1  0.98914593  0.79488500  0.47762951  1  0  -0.102027  0  3.694724  0  0  -0.141007  0  3.948383  0  0  -0.135923  0  3.962881  0  0.002412  0  -0.071204  -0.143959  0  3.938618  0
C  C93  1  0.19370076  0.20522489  0.02236410  1  0  -0.098988  0  3.694125  0  0  -0.137792  0  3.947381  0  0  -0.132596  0  3.962002  0  -0.02982  0  -0.069882  -0.140819  0  3.937538  0
C  C94  1  0.14049747  0.17248863  0.62455186  1  0  -0.091739  0  3.680293  0  0  -0.131244  0  3.931782  0  0  -0.126018  0  3.945895  0  -0.032481  0  -0.066057  -0.134329  0  3.922329  0
C  C95  1  0.96805417  0.82755560  0.87538837  1  0  -0.091778  0  3.681116  0  0  -0.13094  0  3.932336  0  0  -0.125674  0  3.946443  0  0.045615  0  -0.06652  -0.134059  0  3.922894  0
C  C96  1  0.85960193  0.82752575  0.37544777  1  0  -0.09163  0  3.680526  0  0  -0.131137  0  3.93192  0  0  -0.125913  0  3.946033  0  -0.030738  0  -0.065901  -0.134215  0  3.92247  0
C  C97  1  0.03186870  0.17245206  0.12459977  1  0  -0.091578  0  3.681377  0  0  -0.130714  0  3.932509  0  0  -0.125446  0  3.946613  0  0.044737  0  -0.066455  -0.133833  0  3.923067  0
C  C98  1  0.95255714  0.31593689  0.88672144  1  0  -0.062605  0  3.687352  0  0  -0.105606  0  3.948121  0  0  -0.105331  0  3.969106  0  0.270667  0  -0.004179  -0.105752  0  3.934081  0
C  C99  1  0.63729647  0.68399690  0.61314129  1  0  -0.060495  0  3.685845  0  0  -0.103609  0  3.946721  0  0  -0.103323  0  3.967705  0  0.236424  0  -0.003526  -0.103765  0  3.932678  0
C  C100  1  0.04747031  0.68404167  0.11325706  1  0  -0.062243  0  3.687007  0  0  -0.105188  0  3.947842  0  0  -0.1049  0  3.968832  0  0.27166  0  -0.0041  -0.105347  0  3.9338  0
C  C101  1  0.36268498  0.31601002  0.38686023  1  0  -0.060392  0  3.685478  0  0  -0.103525  0  3.946385  0  0  -0.103237  0  3.967368  0  0.236323  0  -0.003486  -0.103696  0  3.932353  0
C  C102  1  0.85670607  0.37934693  0.89322050  1  0  0.00236  0  3.785265  0  0  -0.031537  0  4.047832  0  0  -0.029588  0  4.069475  0  0.411328  0  -0.006823  -0.032817  0  4.033165  0
C  C103  1  0.47805235  0.62054731  0.60651838  1  0  0.001836  0  3.782765  0  0  -0.03193  0  4.045702  0  0  -0.029988  0  4.067319  0  0.445833  0  -0.007081  -0.033211  0  4.03106  0
C  C104  1  0.14333536  0.62064730  0.10677464  1  0  0.002095  0  3.785077  0  0  -0.031918  0  4.047639  0  0  -0.029978  0  4.069283  0  0.411184  0  -0.006909  -0.03319  0  4.032972  0
C  C105  1  0.52193770  0.37945961  0.39349842  1  0  0.001888  0  3.782399  0  0  -0.031833  0  4.045315  0  0  -0.029894  0  4.066932  0  0.445917  0  -0.007107  -0.03311  0  4.030674  0
C  C106  1  0.94283273  0.09503597  0.76984936  1  0  -0.147082  0  3.686053  0  0  -0.190761  0  3.953199  0  0  -0.192987  0  3.96752  0  -0.036346  0  -0.171401  -0.189018  0  3.943215  0
C  C107  1  0.84850480  0.90538583  0.73003312  1  0  -0.148011  0  3.686978  0  0  -0.191144  0  3.953992  0  0  -0.193381  0  3.968359  0  -0.043661  0  -0.170877  -0.189438  0  3.944028  0
C  C108  1  0.05717442  0.90495603  0.23013304  1  0  -0.147245  0  3.686246  0  0  -0.19071  0  3.953174  0  0  -0.192956  0  3.967557  0  -0.036994  0  -0.171542  -0.188968  0  3.94319  0
C  C109  1  0.15149524  0.09460914  0.26994591  1  0  -0.148042  0  3.686896  0  0  -0.191154  0  3.953982  0  0  -0.193367  0  3.968316  0  -0.042861  0  -0.170699  -0.189433  0  3.944008  0
C  C110  1  0.30351748  0.30655201  0.75107174  1  0  0.620654  0  3.941601  0  0  0.575126  0  4.228183  0  0  0.608823  0  4.223975  0  1.541261  0  0.197245  0.552381  0  4.230144  0
C  C111  1  0.99755108  0.69358325  0.74890682  1  0  0.617706  0  3.943627  0  0  0.571843  0  4.230887  0  0  0.60552  0  4.226754  0  1.572408  0  0.195618  0.549106  0  4.232799  0
C  C112  1  0.69652211  0.69346311  0.24893851  1  0  0.620312  0  3.941861  0  0  0.574836  0  4.228387  0  0  0.608524  0  4.224196  0  1.554933  0  0.197042  0.552092  0  4.230346  0
C  C113  1  0.00241699  0.30640427  0.25109592  1  0  0.617753  0  3.943098  0  0  0.571982  0  4.230281  0  0  0.605662  0  4.226147  0  1.571288  0  0.195646  0.549242  0  4.232198  0
N  N114  1  0.83621411  0.22404091  0.87082292  1  0  -0.113324  0  3.526145  0  0  -0.022911  0  3.743502  0  0  -0.038595  0  3.769001  0  -1.221592  0  -0.242846  -0.012546  0  3.726151  0
N  N115  1  0.61285442  0.77592721  0.62917394  1  0  -0.114028  0  3.528307  0  0  -0.02271  0  3.744944  0  0  -0.038352  0  3.770442  0  -1.222712  0  -0.24218  -0.012356  0  3.727599  0
N  N116  1  0.16378145  0.77594512  0.12915641  1  0  -0.113708  0  3.525987  0  0  -0.023708  0  3.743661  0  0  -0.039398  0  3.769168  0  -1.221534  0  -0.243104  -0.013326  0  3.726307  0
N  N117  1  0.38711512  0.22408046  0.37082892  1  0  -0.114039  0  3.527838  0  0  -0.022715  0  3.744439  0  0  -0.038375  0  3.76993  0  -1.222309  0  -0.242174  -0.012355  0  3.727102  0
N  N118  1  0.68444302  0.32695743  0.88106928  1  0  -0.452374  0  3.27102  0  0  -0.375591  0  3.559931  0  0  -0.398892  0  3.572224  0  -1.232863  0  -0.359964  -0.359676  0  3.551218  0
N  N119  1  0.35818049  0.67292040  0.61873891  1  0  -0.452298  0  3.271854  0  0  -0.374997  0  3.560712  0  0  -0.398306  0  3.573011  0  -1.213586  0  -0.359353  -0.359067  0  3.551997  0
N  N120  1  0.31559172  0.67304800  0.11893557  1  0  -0.452257  0  3.270739  0  0  -0.37549  0  3.559552  0  0  -0.39879  0  3.571845  0  -1.232376  0  -0.359836  -0.359575  0  3.550843  0
N  N121  1  0.64180021  0.32708502  0.38128668  1  0  -0.452391  0  3.271789  0  0  -0.375077  0  3.560562  0  0  -0.398392  0  3.572851  0  -1.213436  0  -0.359385  -0.359149  0  3.551847  0
N  N122  1  0.95697833  0.03353469  0.50396861  1  0  0.232941  0  3.604159  0  0  0.265178  0  3.889876  0  0  0.27426  0  3.905806  0  -0.028913  0  0.005909  0.259022  0  3.879424  0
N  N123  1  0.92338174  0.96641552  0.99598740  1  0  0.233261  0  3.609529  0  0  0.265504  0  3.895517  0  0  0.274612  0  3.911466  0  -0.035156  0  0.006218  0.259328  0  3.88505  0
N  N124  1  0.04313149  0.96645880  0.49602519  1  0  0.232138  0  3.602956  0  0  0.264415  0  3.88871  0  0  0.273484  0  3.904637  0  -0.004744  0  0.005688  0.258268  0  3.87826  0
N  N125  1  0.07651058  0.03359737  0.00397027  1  0  0.23391  0  3.609215  0  0  0.266076  0  3.895111  0  0  0.275194  0  3.911054  0  -0.015104  0  0.006286  0.259894  0  3.884649  0
O  O126  1  0.32239236  0.23958561  0.77142328  1  0  -0.621362  0  1.956013  0  0  -0.569932  0  2.183065  0  0  -0.595447  0  2.174406  0  -1.178958  0  -0.319246  -0.552177  0  2.188431  0
O  O127  1  0.08373794  0.76061233  0.72873044  1  0  -0.620391  0  1.956897  0  0  -0.568822  0  2.183741  0  0  -0.594295  0  2.175083  0  -1.183744  0  -0.318939  -0.551101  0  2.189122  0
O  O128  1  0.67763548  0.76043548  0.22859440  1  0  -0.621272  0  1.955985  0  0  -0.569808  0  2.182949  0  0  -0.59532  0  2.174293  0  -1.178889  0  -0.319264  -0.552053  0  2.188314  0
O  O129  1  0.91620775  0.23937220  0.27126859  1  0  -0.620381  0  1.956571  0  0  -0.568912  0  2.183454  0  0  -0.594387  0  2.174793  0  -1.183526  0  -0.31899  -0.551192  0  2.188838  0
O  O130  1  0.36444612  0.40018290  0.79726927  1  0  -0.634938  0  1.949995  0  0  -0.568213  0  2.18768  0  0  -0.597433  0  2.17398  0  -1.139581  0  -0.333049  -0.547755  0  2.196368  0
O  O131  1  0.96474635  0.59996132  0.70262659  1  0  -0.633596  0  1.950213  0  0  -0.566491  0  2.18799  0  0  -0.595744  0  2.174341  0  -1.152394  0  -0.332042  -0.54601  0  2.196649  0
O  O132  1  0.63560725  0.59983521  0.20273923  1  0  -0.634772  0  1.950402  0  0  -0.56809  0  2.18811  0  0  -0.597308  0  2.174419  0  -1.153469  0  -0.332955  -0.547631  0  2.196795  0
O  O133  1  0.03526031  0.40003217  0.29739559  1  0  -0.633561  0  1.949885  0  0  -0.566491  0  2.187657  0  0  -0.595747  0  2.174005  0  -1.151929  0  -0.33206  -0.546009  0  2.196318  0
O  O134  1  0.80523455  0.00787160  0.46951240  1  0  -0.422455  0  1.695865  0  0  -0.416145  0  1.901968  0  0  -0.433975  0  1.902361  0  -0.511521  0  -0.19721  -0.403482  0  1.901434  0
O  O135  1  0.79717759  0.99200847  0.03043075  1  0  -0.42303  0  1.69706  0  0  -0.416741  0  1.903216  0  0  -0.434568  0  1.903597  0  -0.510524  0  -0.197988  -0.404082  0  1.902691  0
O  O136  1  0.19487799  0.99212488  0.53050258  1  0  -0.42254  0  1.694647  0  0  -0.416244  0  1.900753  0  0  -0.434082  0  1.90114  0  -0.510778  0  -0.197383  -0.403578  0  1.900221  0
O  O137  1  0.20267366  0.00801561  0.96951862  1  0  -0.422744  0  1.697078  0  0  -0.416474  0  1.90332  0  0  -0.434278  0  1.903694  0  -0.51064  0  -0.197691  -0.40383  0  1.902799  0
O  O138  1  0.98657576  0.33997925  0.46042317  1  0  -0.655324  0  2.108037  0  0  -0.585017  0  2.388884  0  0  -0.613838  0  2.370614  0  -1.194335  0  -0.315647  -0.564957  0  2.400835  0
O  O139  1  0.64739190  0.65982694  0.03953208  1  0  -0.655997  0  2.10799  0  0  -0.585872  0  2.389702  0  0  -0.614704  0  2.371342  0  -1.190602  0  -0.315624  -0.565782  0  2.401673  0
O  O140  1  0.01340828  0.65999110  0.53957553  1  0  -0.655244  0  2.108083  0  0  -0.585001  0  2.389047  0  0  -0.613813  0  2.370772  0  -1.194507  0  -0.315593  -0.564937  0  2.400988  0
O  O141  1  0.35263325  0.34021579  0.96050750  1  0  -0.655582  0  2.109801  0  0  -0.585548  0  2.391435  0  0  -0.614374  0  2.373101  0  -1.191963  0  -0.315445  -0.56547  0  2.403407  0
O  O142  1  0.12052150  0.47115337  0.57576331  1  0  -0.639873  0  2.125364  0  0  -0.571091  0  2.404269  0  0  -0.598438  0  2.38431  0  -1.204481  0  -0.310485  -0.552122  0  2.41751  0
O  O143  1  0.64893448  0.52870729  0.92390498  1  0  -0.639153  0  2.127306  0  0  -0.570137  0  2.406165  0  0  -0.597485  0  2.386227  0  -1.20852  0  -0.310054  -0.551158  0  2.419371  0
O  O144  1  0.87946344  0.52882370  0.42422560  1  0  -0.640133  0  2.125157  0  0  -0.571362  0  2.404133  0  0  -0.598718  0  2.384187  0  -1.203924  0  -0.310648  -0.552387  0  2.417362  0
O  O145  1  0.35109126  0.47133172  0.07613500  1  0  -0.639213  0  2.125631  0  0  -0.570259  0  2.404411  0  0  -0.597624  0  2.384484  0  -1.207668  0  -0.309933  -0.55127  0  2.417615  0
