# generated using pymatgen
data_ZnH11C9N3O4
_symmetry_space_group_name_H-M   'P 1'
_cell_length_a   5.08677370
_cell_length_b   11.40575607
_cell_length_c   11.54569183
_cell_angle_alpha   97.99829086
_cell_angle_beta   94.08330551
_cell_angle_gamma   105.38149929
_symmetry_Int_Tables_number   1
_chemical_formula_structural   ZnH11C9N3O4
_chemical_formula_sum   'Zn2 H22 C18 N6 O8'
_cell_volume   635.47361894
_cell_formula_units_Z   2
loop_
 _symmetry_equiv_pos_site_id
 _symmetry_equiv_pos_as_xyz
  1  'x, y, z'
loop_
 _atom_site_type_symbol
 _atom_site_label
 _atom_site_symmetry_multiplicity
 _atom_site_fract_x
 _atom_site_fract_y
 _atom_site_fract_z
 _atom_site_occupancy
 _atom_site_hle17_bader_spin_density
 _atom_site_hle17_ddec_charge
 _atom_site_hle17_ddec_spin_density
 _atom_site_hle17_ddec_sum_bond_order
 _atom_site_hle17_magmom
 _atom_site_hse06_10hf_bader_spin_density
 _atom_site_hse06_10hf_ddec_charge
 _atom_site_hse06_10hf_ddec_spin_density
 _atom_site_hse06_10hf_ddec_sum_bond_order
 _atom_site_hse06_10hf_magmom
 _atom_site_hse06_bader_spin_density
 _atom_site_hse06_ddec_charge
 _atom_site_hse06_ddec_spin_density
 _atom_site_hse06_ddec_sum_bond_order
 _atom_site_hse06_magmom
 _atom_site_pbe_bader_spin_density
 _atom_site_pbe_cm5_charge
 _atom_site_pbe_ddec_charge
 _atom_site_pbe_ddec_spin_density
 _atom_site_pbe_ddec_sum_bond_order
 _atom_site_pbe_magmom
Zn  Zn0  1  0.15276762  0.26253249  0.15420562  1  0  0.951197  0  1.898954  0  0  0.763682  0  2.367217  0  0  0.804637  0  2.32095  0  0  0.69115  0.73482  0  2.39952  0
Zn  Zn1  1  0.84724574  0.73746680  0.84579429  1  0  0.951175  0  1.899019  0  0  0.763671  0  2.367273  0  0  0.804625  0  2.321013  0  0  0.691157  0.734818  0  2.399577  0
H  H2  1  0.86730090  0.29292559  0.97191803  1  0  0.274926  0  0.889848  0  0  0.278736  0  0.924902  0  0  0.282713  0  0.923607  0  0  0.301208  0.275723  0  0.926329  0
H  H3  1  0.13271350  0.70708295  0.02808537  1  0  0.275026  0  0.889777  0  0  0.278833  0  0.924841  0  0  0.282811  0  0.923544  0  0  0.301231  0.275818  0  0.926273  0
H  H4  1  0.77579379  0.35636759  0.09724948  1  0  0.305601  0  0.950379  0  0  0.289535  0  1.012849  0  0  0.297111  0  1.007745  0  0  0.285189  0.284175  0  1.016416  0
H  H5  1  0.22422032  0.64363732  0.90275445  1  0  0.305581  0  0.950401  0  0  0.289524  0  1.012884  0  0  0.297102  0  1.00778  0  0  0.285167  0.284166  0  1.016444  0
H  H6  1  0.37081912  0.15305126  0.98589857  1  0  0.274783  0  0.892681  0  0  0.277547  0  0.92993  0  0  0.281849  0  0.928066  0  0  0.299574  0.274509  0  0.931344  0
H  H7  1  0.62918157  0.84694602  0.01409863  1  0  0.274728  0  0.892745  0  0  0.277473  0  0.929999  0  0  0.281776  0  0.928134  0  0  0.299543  0.274438  0  0.931407  0
H  H8  1  0.48406577  0.13295973  0.11893113  1  0  0.315077  0  0.944609  0  0  0.296695  0  1.009803  0  0  0.305123  0  1.003222  0  0  0.282554  0.290765  0  1.014404  0
H  H9  1  0.51593236  0.86703557  0.88106225  1  0  0.315062  0  0.944607  0  0  0.296679  0  1.009787  0  0  0.305109  0  1.003202  0  0  0.282528  0.290712  0  1.014451  0
H  H10  1  0.76035318  0.41174229  0.53918260  1  0  0.135396  0  0.964874  0  0  0.140072  0  1.032619  0  0  0.14457  0  1.02962  0  0  0.112319  0.136806  0  1.034864  0
H  H11  1  0.23963222  0.58826421  0.46082053  1  0  0.135551  0  0.964811  0  0  0.140109  0  1.032672  0  0  0.144608  0  1.029671  0  0  0.112303  0.136875  0  1.034874  0
H  H12  1  0.43833744  0.27646636  0.65252729  1  0  0.088726  0  0.921133  0  0  0.102972  0  0.971068  0  0  0.106345  0  0.968652  0  0  0.109239  0.100443  0  0.973036  0
H  H13  1  0.56163458  0.72354201  0.34747950  1  0  0.088883  0  0.921116  0  0  0.103049  0  0.971122  0  0  0.106437  0  0.968684  0  0  0.109289  0.100524  0  0.97309  0
H  H14  1  0.98419996  0.13828212  0.54980718  1  0  0.124232  0  0.920079  0  0  0.134337  0  0.974441  0  0  0.138124  0  0.972588  0  0  0.120291  0.131574  0  0.975953  0
H  H15  1  0.01578321  0.86171597  0.45019072  1  0  0.124252  0  0.920069  0  0  0.134376  0  0.974421  0  0  0.138163  0  0.972568  0  0  0.120318  0.131608  0  0.975935  0
H  H16  1  0.27288575  0.46794187  0.98921156  1  0  0.065938  0  0.932414  0  0  0.083726  0  0.992347  0  0  0.084516  0  0.99196  0  0  0.103929  0.083011  0  0.992858  0
H  H17  1  0.72712774  0.53206584  0.01079432  1  0  0.06595  0  0.932362  0  0  0.083743  0  0.992291  0  0  0.084533  0  0.9919  0  0  0.103933  0.083028  0  0.992802  0
H  H18  1  0.16400085  0.52651481  0.12305556  1  0  0.074322  0  0.914335  0  0  0.090467  0  0.975736  0  0  0.091814  0  0.974191  0  0  0.109142  0.089354  0  0.97707  0
H  H19  1  0.83601396  0.47349203  0.87695120  1  0  0.074261  0  0.914143  0  0  0.09044  0  0.97552  0  0  0.091787  0  0.973972  0  0  0.109142  0.089328  0  0.976858  0
H  H20  1  0.06034071  0.98169467  0.12764714  1  0  0.071283  0  0.911407  0  0  0.091371  0  0.964936  0  0  0.091868  0  0.96485  0  0  0.110627  0.090969  0  0.965033  0
H  H21  1  0.93964977  0.01830050  0.87234401  1  0  0.071277  0  0.91149  0  0  0.091352  0  0.96502  0  0  0.091856  0  0.964916  0  0  0.110618  0.09095  0  0.965116  0
H  H22  1  0.23181565  0.93869446  0.00554877  1  0  0.043648  0  0.965212  0  0  0.05924  0  1.035532  0  0  0.059875  0  1.034959  0  0  0.095636  0.058503  0  1.036521  0
H  H23  1  0.76817369  0.06130526  0.99444184  1  0  0.043681  0  0.965161  0  0  0.059247  0  1.035482  0  0  0.05988  0  1.034914  0  0  0.095631  0.058508  0  1.036471  0
C  C24  1  0.79815759  0.12272685  0.31054579  1  0  0.596352  0  3.949119  0  0  0.544982  0  4.256676  0  0  0.576196  0  4.250873  0  0  0.193858  0.523826  0  4.259883  0
C  C25  1  0.20181854  0.87726565  0.68945030  1  0  0.596088  0  3.948672  0  0  0.544777  0  4.25624  0  0  0.575999  0  4.250447  0  0  0.193778  0.52362  0  4.259443  0
C  C26  1  0.06265986  0.20070716  0.38510152  1  0  0.115519  0  3.71203  0  0  0.115483  0  3.953077  0  0  0.116728  0  3.972919  0  0  0.119537  0.114471  0  3.939723  0
C  C27  1  0.93733515  0.79928421  0.61488437  1  0  0.115641  0  3.712226  0  0  0.115433  0  3.953506  0  0  0.11666  0  3.973382  0  0  0.119577  0.114419  0  3.940152  0
C  C28  1  0.48278838  0.34743647  0.37840381  1  0  0.109768  0  3.719823  0  0  0.112634  0  3.957582  0  0  0.113226  0  3.978134  0  0  0.116893  0.111945  0  3.943936  0
C  C29  1  0.51721913  0.65255638  0.62159604  1  0  0.109742  0  3.720178  0  0  0.112591  0  3.957882  0  0  0.113183  0  3.978439  0  0  0.116881  0.11191  0  3.944233  0
C  C30  1  0.56209701  0.35173671  0.49745802  1  0  -0.097231  0  3.643741  0  0  -0.12272  0  3.894514  0  0  -0.127273  0  3.915384  0  0  -0.064076  -0.119605  0  3.880588  0
C  C31  1  0.43787970  0.64825926  0.50255926  1  0  -0.097584  0  3.64354  0  0  -0.122933  0  3.894283  0  0  -0.127494  0  3.915167  0  0  -0.064171  -0.119842  0  3.880339  0
C  C32  1  0.38059322  0.27604007  0.55970080  1  0  0.021054  0  3.667197  0  0  0.002837  0  3.921076  0  0  0.005132  0  3.938167  0  0  -0.051396  0.001489  0  3.909356  0
C  C33  1  0.61938429  0.72396322  0.44029025  1  0  0.021041  0  3.66638  0  0  0.00291  0  3.92021  0  0  0.005203  0  3.937283  0  0  -0.051354  0.00155  0  3.90851  0
C  C34  1  0.12851425  0.19923574  0.50418002  1  0  -0.077214  0  3.646291  0  0  -0.099841  0  3.89239  0  0  -0.102927  0  3.910896  0  0  -0.054415  -0.097803  0  3.879943  0
C  C35  1  0.87147843  0.80075987  0.49582347  1  0  -0.077261  0  3.646541  0  0  -0.099891  0  3.892719  0  0  -0.102975  0  3.911236  0  0  -0.054461  -0.097845  0  3.880268  0
C  C36  1  0.65877929  0.41717862  0.29504438  1  0  0.603583  0  3.929891  0  0  0.551888  0  4.234414  0  0  0.583962  0  4.227479  0  0  0.20137  0.53016  0  4.238393  0
C  C37  1  0.34122080  0.58281984  0.70496070  1  0  0.603617  0  3.929635  0  0  0.551946  0  4.234139  0  0  0.584022  0  4.227202  0  0  0.201415  0.530214  0  4.238118  0
C  C38  1  0.09242815  0.47158747  0.03486683  1  0  0.045245  0  3.643789  0  0  -0.015027  0  3.917013  0  0  -0.010949  0  3.927725  0  0  -0.076954  -0.017798  0  3.909844  0
C  C39  1  0.90758550  0.52842125  0.96514175  1  0  0.045213  0  3.643408  0  0  -0.015032  0  3.916624  0  0  -0.010952  0  3.927332  0  0  -0.076974  -0.017809  0  3.90946  0
C  C40  1  0.12404817  0.00447163  0.04258606  1  0  0.055154  0  3.664865  0  0  -0.004963  0  3.938361  0  0  -0.000825  0  3.949413  0  0  -0.076253  -0.007657  0  3.930903  0
C  C41  1  0.87595014  0.99552734  0.95740766  1  0  0.055143  0  3.664896  0  0  -0.004914  0  3.938307  0  0  -0.000775  0  3.949359  0  0  -0.076212  -0.00761  0  3.930846  0
N  N42  1  0.23936266  0.27383319  0.32732756  1  0  -0.347415  0  3.409225  0  0  -0.273952  0  3.667702  0  0  -0.289689  0  3.685121  0  0  -0.338317  -0.263124  0  3.655946  0
N  N43  1  0.76064213  0.72616247  0.67267497  1  0  -0.347407  0  3.408958  0  0  -0.273874  0  3.667493  0  0  -0.289616  0  3.684934  0  0  -0.338332  -0.263046  0  3.655732  0
N  N44  1  0.94272773  0.34645589  0.05230312  1  0  -0.618546  0  3.134479  0  0  -0.559887  0  3.402343  0  0  -0.578344  0  3.397203  0  0  -0.628443  -0.546927  0  3.406243  0
N  N45  1  0.05728696  0.65355363  0.94770213  1  0  -0.618613  0  3.134331  0  0  -0.560008  0  3.402227  0  0  -0.578467  0  3.397084  0  0  -0.628454  -0.547049  0  3.406137  0
N  N46  1  0.30786592  0.13095419  0.06427041  1  0  -0.630028  0  3.126504  0  0  -0.572405  0  3.394149  0  0  -0.590962  0  3.389151  0  0  -0.629663  -0.559343  0  3.397386  0
N  N47  1  0.69213526  0.86904298  0.93572333  1  0  -0.630032  0  3.126628  0  0  -0.57235  0  3.394144  0  0  -0.590904  0  3.389142  0  0  -0.629598  -0.559262  0  3.39743  0
O  O48  1  0.78365835  0.13953982  0.20052823  1  0  -0.688628  0  2.060849  0  0  -0.614385  0  2.314965  0  0  -0.642294  0  2.303873  0  0  -0.343637  -0.594735  0  2.322084  0
O  O49  1  0.21634201  0.86045544  0.79946355  1  0  -0.688445  0  2.060684  0  0  -0.614255  0  2.314874  0  0  -0.642137  0  2.303719  0  0  -0.343638  -0.594593  0  2.321993  0
O  O50  1  0.54391374  0.39923239  0.18676495  1  0  -0.677175  0  2.038121  0  0  -0.605843  0  2.29278  0  0  -0.632995  0  2.280813  0  0  -0.342589  -0.586554  0  2.300159  0
O  O51  1  0.45610119  0.60077442  0.81324095  1  0  -0.67717  0  2.03811  0  0  -0.605893  0  2.292803  0  0  -0.633052  0  2.280837  0  0  -0.342594  -0.58661  0  2.300191  0
O  O52  1  0.62078421  0.05134926  0.35487627  1  0  -0.563941  0  1.861891  0  0  -0.53232  0  2.063721  0  0  -0.551724  0  2.057183  0  0  -0.330788  -0.51879  0  2.067853  0
O  O53  1  0.37923193  0.94864511  0.64511296  1  0  -0.563902  0  1.861349  0  0  -0.532262  0  2.063136  0  0  -0.551677  0  2.0566  0  0  -0.330762  -0.51873  0  2.067263  0
O  O54  1  0.89594298  0.48205041  0.33061394  1  0  -0.57159  0  1.907075  0  0  -0.534837  0  2.128875  0  0  -0.555795  0  2.121335  0  0  -0.315982  -0.520189  0  2.133643  0
O  O55  1  0.10405278  0.51794544  0.66939585  1  0  -0.571532  0  1.906854  0  0  -0.53476  0  2.128609  0  0  -0.555719  0  2.12107  0  0  -0.315964  -0.520106  0  2.133375  0
