# generated using pymatgen
data_CdH17C21N3O8
_symmetry_space_group_name_H-M   'P 1'
_cell_length_a   8.62699366
_cell_length_b   9.91688793
_cell_length_c   29.51428332
_cell_angle_alpha   86.36153636
_cell_angle_beta   81.68523073
_cell_angle_gamma   64.20418564
_symmetry_Int_Tables_number   1
_chemical_formula_structural   CdH17C21N3O8
_chemical_formula_sum   'Cd4 H68 C84 N12 O32'
_cell_volume   2249.51794124
_cell_formula_units_Z   4
loop_
 _symmetry_equiv_pos_site_id
 _symmetry_equiv_pos_as_xyz
  1  'x, y, z'
loop_
 _atom_site_type_symbol
 _atom_site_label
 _atom_site_symmetry_multiplicity
 _atom_site_fract_x
 _atom_site_fract_y
 _atom_site_fract_z
 _atom_site_occupancy
 _atom_site_pbe_bader_charge
 _atom_site_pbe_bader_spin_density
 _atom_site_pbe_cm5_charge
 _atom_site_pbe_ddec_charge
 _atom_site_pbe_ddec_spin_density
 _atom_site_pbe_ddec_sum_bond_order
 _atom_site_pbe_magmom
Cd  Cd0  1  0.46232757  0.48861007  0.08834981  1  1.282454  0  0.761502  0.932429  0  2.065544  0
Cd  Cd1  1  0.54930540  0.48876512  0.41173345  1  1.281388  0  0.761828  0.933398  0  2.066482  0
Cd  Cd2  1  0.53767844  0.51139307  0.91164808  1  1.282482  0  0.761535  0.932552  0  2.065452  0
Cd  Cd3  1  0.45068933  0.51123465  0.58826733  1  1.281423  0  0.761827  0.933379  0  2.066497  0
H  H4  1  0.41847066  0.34365859  0.02128356  1  0.648371  0  0.287215  0.389088  0  0.95023  0
H  H5  1  0.73806578  0.34319990  0.47876397  1  0.6575  0  0.287365  0.389707  0  0.949781  0
H  H6  1  0.58153644  0.65634230  0.97871535  1  0.648477  0  0.287192  0.389007  0  0.95034  0
H  H7  1  0.26192944  0.65679652  0.52123720  1  0.65754  0  0.28742  0.389792  0  0.949661  0
H  H8  1  0.35292380  0.28835979  0.07010432  1  0.63742  0  0.281426  0.361003  0  0.989174  0
H  H9  1  0.85900323  0.28808365  0.42993783  1  0.639635  0  0.281824  0.361527  0  0.988386  0
H  H10  1  0.64708615  0.71163775  0.92989454  1  0.637322  0  0.281481  0.361065  0  0.989094  0
H  H11  1  0.14099029  0.71191388  0.57006270  1  0.639712  0  0.281826  0.361501  0  0.988418  0
H  H12  1  0.99702768  0.99493142  0.08540201  1  0.101496  0  0.100039  0.09844  0  1.058238  0
H  H13  1  0.50801520  0.99498790  0.41461732  1  0.111125  0  0.099903  0.097906  0  1.058758  0
H  H14  1  0.00298280  0.00506499  0.91459787  1  0.100698  0  0.100014  0.098425  0  1.058235  0
H  H15  1  0.49199504  0.00500403  0.58538673  1  0.11072  0  0.099899  0.097919  0  1.058621  0
H  H16  1  0.00859929  0.34987086  0.99605292  1  0.139697  0  0.110259  0.122111  0  0.994446  0
H  H17  1  0.14200303  0.34992078  0.50394016  1  0.106996  0  0.110317  0.122034  0  0.995582  0
H  H18  1  0.99141182  0.65012891  0.00394789  1  0.139671  0  0.110266  0.122114  0  0.994358  0
H  H19  1  0.85799343  0.65007563  0.49605892  1  0.106972  0  0.110286  0.121991  0  0.995542  0
H  H20  1  0.41823439  0.90167531  0.97679918  1  0.100845  0  0.105532  0.104521  0  1.03711  0
H  H21  1  0.17952360  0.90207941  0.52318021  1  0.088422  0  0.105686  0.104966  0  1.036968  0
H  H22  1  0.58177044  0.09832559  0.02319745  1  0.100949  0  0.105529  0.104536  0  1.037049  0
H  H23  1  0.82047456  0.09791812  0.47682149  1  0.088472  0  0.105677  0.104928  0  1.036995  0
H  H24  1  0.33558503  0.27837518  0.95007600  1  0.138078  0  0.122627  0.124564  0  1.00289  0
H  H25  1  0.88623587  0.27866044  0.54983937  1  0.150558  0  0.12251  0.124169  0  1.003396  0
H  H26  1  0.66442207  0.72162347  0.04992126  1  0.138212  0  0.122581  0.124587  0  1.002837  0
H  H27  1  0.11376012  0.72134157  0.45015995  1  0.150609  0  0.122485  0.124105  0  1.003441  0
H  H28  1  0.44300753  0.08936866  0.92996592  1  0.095361  0  0.117877  0.11356  0  0.997937  0
H  H29  1  0.96754783  0.08958405  0.56995255  1  0.115696  0  0.117933  0.113706  0  0.997517  0
H  H30  1  0.55699601  0.91063000  0.07003318  1  0.095439  0  0.117914  0.113633  0  0.997911  0
H  H31  1  0.03244465  0.91042021  0.43004857  1  0.1157  0  0.117951  0.113789  0  0.997468  0
H  H32  1  0.13297016  0.45021425  0.91564015  1  0.211159  0  0.132743  0.124577  0  1.026185  0
H  H33  1  0.91686126  0.45009295  0.58426353  1  0.194769  0  0.13284  0.124614  0  1.024794  0
H  H34  1  0.86701606  0.54977880  0.08436584  1  0.209762  0  0.132708  0.124596  0  1.026261  0
H  H35  1  0.08313658  0.54991242  0.41573532  1  0.194985  0  0.132834  0.124616  0  1.024851  0
H  H36  1  0.94379037  0.53100884  0.85253582  1  0.139247  0  0.118789  0.136057  0  0.99197  0
H  H37  1  0.02538376  0.53077362  0.64733536  1  0.135288  0  0.118674  0.136109  0  0.992509  0
H  H38  1  0.05621141  0.46899541  0.14746697  1  0.139314  0  0.118802  0.136039  0  0.992021  0
H  H39  1  0.97460997  0.46923287  0.35266464  1  0.135351  0  0.118677  0.136106  0  0.992543  0
H  H40  1  0.11642560  0.06163486  0.82253868  1  0.094336  0  0.122663  0.132582  0  0.968417  0
H  H41  1  0.32231556  0.06128855  0.67739938  1  0.114623  0  0.122965  0.133103  0  0.966592  0
H  H42  1  0.88357401  0.93836939  0.17745910  1  0.094394  0  0.122628  0.132455  0  0.968332  0
H  H43  1  0.67767518  0.93871458  0.32260013  1  0.114477  0  0.122968  0.133114  0  0.966605  0
H  H44  1  0.28445528  0.99976041  0.88836841  1  0.216904  0  0.133764  0.122803  0  1.019699  0
H  H45  1  0.21620811  0.99956192  0.61156412  1  0.186113  0  0.133854  0.12281  0  1.019237  0
H  H46  1  0.71554472  0.00023601  0.11162986  1  0.216824  0  0.133777  0.122838  0  1.01978  0
H  H47  1  0.78378265  0.00044121  0.38843506  1  0.186075  0  0.133859  0.122827  0  1.019384  0
H  H48  1  0.83452983  0.47690066  0.79306897  1  0.103391  0  0.107979  0.114973  0  1.024637  0
H  H49  1  0.18858744  0.47653652  0.70681564  1  0.095946  0  0.107817  0.114602  0  1.025322  0
H  H50  1  0.16547099  0.52310807  0.20693037  1  0.103409  0  0.108037  0.115088  0  1.024695  0
H  H51  1  0.81141321  0.52346549  0.29318452  1  0.095924  0  0.107837  0.114673  0  1.025466  0
H  H52  1  0.96700876  0.14701735  0.76416635  1  0.06085  0  0.111283  0.11225  0  0.981306  0
H  H53  1  0.38642187  0.14666002  0.73579909  1  0.051945  0  0.111418  0.112298  0  0.98134  0
H  H54  1  0.03299072  0.85298466  0.23583385  1  0.060739  0  0.111288  0.112286  0  0.98133  0
H  H55  1  0.61357635  0.85333751  0.26420092  1  0.051961  0  0.111434  0.112297  0  0.981362  0
H  H56  1  0.68507858  0.56573360  0.74049487  1  0.106426  0  0.113714  0.126012  0  0.99392  0
H  H57  1  0.24790045  0.56548257  0.75943328  1  0.087555  0  0.113543  0.125652  0  0.993965  0
H  H58  1  0.31492155  0.43426954  0.25950393  1  0.106281  0  0.113704  0.126001  0  0.9939  0
H  H59  1  0.75209778  0.43451497  0.24056639  1  0.08774  0  0.11353  0.125628  0  0.993986  0
H  H60  1  0.51370126  0.64208089  0.67475226  1  0.128701  0  0.119782  0.097078  0  0.988887  0
H  H61  1  0.34226332  0.64237084  0.82515046  1  0.129999  0  0.11977  0.096929  0  0.988022  0
H  H62  1  0.48630349  0.35791776  0.32524509  1  0.128708  0  0.119802  0.097122  0  0.988862  0
H  H63  1  0.65773739  0.35763118  0.17484766  1  0.129668  0  0.119756  0.096879  0  0.988037  0
H  H64  1  0.66770564  0.20223686  0.63797984  1  0.123989  0  0.118733  0.097525  0  0.997815  0
H  H65  1  0.63025775  0.20280532  0.86193958  1  0.121763  0  0.11815  0.096341  0  0.998874  0
H  H66  1  0.33229137  0.79776068  0.36202123  1  0.124126  0  0.118711  0.097476  0  0.997903  0
H  H67  1  0.36974296  0.79719893  0.13806019  1  0.120796  0  0.118166  0.096336  0  0.998903  0
H  H68  1  0.85734713  0.10411455  0.69986386  1  0.136078  0  0.106689  0.127965  0  1.034384  0
H  H69  1  0.53941756  0.10408648  0.80008502  1  0.121769  0  0.106821  0.128499  0  1.033622  0
H  H70  1  0.14264875  0.89588522  0.30013755  1  0.136055  0  0.10669  0.127949  0  1.034443  0
H  H71  1  0.46058653  0.89591329  0.19991573  1  0.121757  0  0.106808  0.128517  0  1.03361  0
C  C72  1  0.29833451  0.77257778  0.04889661  1  1.556287  0  0.196532  0.558014  0  4.222436  0
C  C73  1  0.42889524  0.77271266  0.45112845  1  1.545951  0  0.195819  0.558007  0  4.221881  0
C  C74  1  0.70167085  0.22742199  0.95110104  1  1.555585  0  0.19677  0.558496  0  4.221829  0
C  C75  1  0.57109871  0.22728151  0.54887450  1  1.546393  0  0.195914  0.558258  0  4.221642  0
C  C76  1  0.21740240  0.93173405  0.03332949  1  -0.05832  0  -0.020548  -0.032806  0  4.00032  0
C  C77  1  0.35062615  0.93182985  0.46665581  1  -0.036519  0  -0.020491  -0.031799  0  4.000604  0
C  C78  1  0.78260874  0.06826348  0.96666865  1  -0.058291  0  -0.020523  -0.033046  0  4.000431  0
C  C79  1  0.64937253  0.06816656  0.53334691  1  -0.036605  0  -0.020518  -0.031978  0  4.000684  0
C  C80  1  0.06083484  0.03334659  0.05654653  1  0.046406  0  -0.073188  -0.095166  0  3.929831  0
C  C81  1  0.40576581  0.03338447  0.44345709  1  0.045588  0  -0.073274  -0.094433  0  3.93098  0
C  C82  1  0.93917806  0.96665207  0.94345253  1  0.047183  0  -0.07319  -0.095127  0  3.929797  0
C  C83  1  0.59423873  0.96661194  0.55654540  1  0.046029  0  -0.073205  -0.094336  0  3.930908  0
C  C84  1  0.98507053  0.18310492  0.04289133  1  -0.060824  0  -0.015799  -0.019877  0  3.973241  0
C  C85  1  0.33203898  0.18311590  0.45708736  1  -0.083407  0  -0.016407  -0.02154  0  3.975364  0
C  C86  1  0.01494057  0.81689261  0.95710816  1  -0.061279  0  -0.015779  -0.019862  0  3.973138  0
C  C87  1  0.66796380  0.81687939  0.54291454  1  -0.083861  0  -0.016339  -0.021551  0  3.975539  0
C  C88  1  0.06948938  0.23242921  0.00618168  1  -0.056769  0  -0.071775  -0.119166  0  3.884471  0
C  C89  1  0.19842159  0.23251989  0.49381252  1  0.004764  0  -0.071343  -0.118465  0  3.886058  0
C  C90  1  0.93052118  0.76757168  0.99381845  1  -0.056744  0  -0.071779  -0.119085  0  3.884347  0
C  C91  1  0.80157603  0.76747876  0.50618850  1  0.005081  0  -0.071363  -0.118368  0  3.886143  0
C  C92  1  0.22616462  0.13107642  0.98247858  1  0.00435  0  -0.014154  0.086194  0  3.979774  0
C  C93  1  0.14289398  0.13121255  0.51748913  1  -0.063592  0  -0.014309  0.086741  0  3.979192  0
C  C94  1  0.77384423  0.86892560  0.01752125  1  0.004636  0  -0.014125  0.08614  0  3.979854  0
C  C95  1  0.85710370  0.86878835  0.48251151  1  -0.063566  0  -0.014312  0.086604  0  3.979273  0
C  C96  1  0.29836247  0.98114017  0.99582821  1  -0.078578  0  -0.077318  -0.129825  0  3.927388  0
C  C97  1  0.22028401  0.98134580  0.50414019  1  -0.018004  0  -0.077249  -0.131165  0  3.929378  0
C  C98  1  0.70164808  0.01885848  0.00417095  1  -0.07857  0  -0.077324  -0.12971  0  3.927342  0
C  C99  1  0.77971358  0.01865285  0.49586151  1  -0.017953  0  -0.077258  -0.131054  0  3.929357  0
C  C100  1  0.80994086  0.28776575  0.06589846  1  1.569826  0  0.188582  0.555641  0  4.235516  0
C  C101  1  0.40269310  0.28759366  0.43400547  1  1.557924  0  0.18838  0.555234  0  4.237897  0
C  C102  1  0.19006614  0.71223290  0.93410185  1  1.570178  0  0.188579  0.555681  0  4.235497  0
C  C103  1  0.59730737  0.71240387  0.56599715  1  1.558092  0  0.188337  0.555214  0  4.237957  0
C  C104  1  0.31658679  0.18067017  0.94194015  1  0.234893  0  -0.04881  -0.147186  0  3.854888  0
C  C105  1  0.00285795  0.18081159  0.55800068  1  0.202448  0  -0.048825  -0.147321  0  3.855055  0
C  C106  1  0.68341737  0.81932961  0.05805822  1  0.234765  0  -0.048903  -0.147456  0  3.854793  0
C  C107  1  0.99713517  0.81919378  0.44199937  1  0.20249  0  -0.048802  -0.147262  0  3.855102  0
C  C108  1  0.12063930  0.37066622  0.89406769  1  0.388733  0  0.071529  0.055455  0  3.816632  0
C  C109  1  0.00884187  0.37050909  0.60584089  1  0.411451  0  0.071693  0.055916  0  3.815127  0
C  C110  1  0.87935175  0.62932908  0.10593502  1  0.389903  0  0.071558  0.055297  0  3.816734  0
C  C111  1  0.99115593  0.62949629  0.39415931  1  0.411359  0  0.071718  0.055955  0  3.815183  0
C  C112  1  0.02123598  0.41253870  0.85862039  1  0.027149  0  -0.063744  -0.141714  0  3.896859  0
C  C113  1  0.06644707  0.41232877  0.64126017  1  0.02389  0  -0.063782  -0.142486  0  3.89645  0
C  C114  1  0.97876562  0.58745883  0.14138320  1  0.026846  0  -0.063764  -0.141593  0  3.896897  0
C  C115  1  0.93354663  0.58767549  0.35873920  1  0.023862  0  -0.063766  -0.142467  0  3.896321  0
C  C116  1  0.01586269  0.30398656  0.83117099  1  0.036282  0  0.025125  0.165689  0  3.982748  0
C  C117  1  0.18042520  0.30367061  0.66873465  1  0.030554  0  0.025797  0.166219  0  3.982691  0
C  C118  1  0.98413336  0.69601993  0.16882961  1  0.036468  0  0.025135  0.165585  0  3.983339  0
C  C119  1  0.81957194  0.69633140  0.33126565  1  0.030571  0  0.025778  0.166266  0  3.982504  0
C  C120  1  0.11445180  0.15250598  0.84179396  1  0.020438  0  -0.060348  -0.139963  0  3.893741  0
C  C121  1  0.23335754  0.15222718  0.65813087  1  0.044861  0  -0.060293  -0.139958  0  3.893772  0
C  C122  1  0.88555103  0.84748931  0.15820658  1  0.020419  0  -0.060249  -0.139585  0  3.893634  0
C  C123  1  0.76663267  0.84777708  0.34186796  1  0.044536  0  -0.060301  -0.13995  0  3.893631  0
C  C124  1  0.21043487  0.11507704  0.87791909  1  0.399321  0  0.071834  0.053394  0  3.836739  0
C  C125  1  0.17482226  0.11485218  0.62200992  1  0.382046  0  0.071171  0.053049  0  3.835017  0
C  C126  1  0.78956173  0.88492386  0.12207888  1  0.399475  0  0.07185  0.053243  0  3.836652  0
C  C127  1  0.82516850  0.88515319  0.37799057  1  0.382398  0  0.071143  0.052976  0  3.835185  0
C  C128  1  0.90950498  0.35553940  0.79424008  1  -0.058998  0  -0.075523  -0.114786  0  3.932862  0
C  C129  1  0.23514687  0.35516856  0.70566627  1  -0.071923  0  -0.075343  -0.114074  0  3.931554  0
C  C130  1  0.09049731  0.64445477  0.20575813  1  -0.058784  0  -0.07558  -0.114846  0  3.932481  0
C  C131  1  0.76485480  0.64482673  0.29433398  1  -0.071966  0  -0.075458  -0.114369  0  3.931642  0
C  C132  1  0.89482513  0.26895940  0.76312149  1  -0.014995  0  -0.070521  -0.103009  0  3.936471  0
C  C133  1  0.33639144  0.26860190  0.73682986  1  0.022364  0  -0.071143  -0.103438  0  3.936463  0
C  C134  1  0.10517100  0.73105381  0.23688134  1  -0.014876  0  -0.070492  -0.103064  0  3.936012  0
C  C135  1  0.66360629  0.73139900  0.26316908  1  0.022295  0  -0.071138  -0.103351  0  3.936277  0
C  C136  1  0.78713342  0.32640116  0.72632205  1  -0.066766  0  0.005913  0.140238  0  4.025034  0
C  C137  1  0.38627797  0.32623547  0.77363249  1  -0.071384  0  0.006932  0.140774  0  4.026723  0
C  C138  1  0.21286890  0.67359749  0.27367845  1  -0.066936  0  0.005926  0.140276  0  4.025168  0
C  C139  1  0.61372375  0.67376207  0.22636771  1  -0.071355  0  0.006955  0.140804  0  4.026647  0
C  C140  1  0.68801499  0.48017809  0.71852029  1  -0.02427  0  -0.078935  -0.172265  0  3.918813  0
C  C141  1  0.33080483  0.48007536  0.78142727  1  -0.019176  0  -0.07933  -0.172272  0  3.919433  0
C  C142  1  0.31198278  0.51982504  0.28147929  1  -0.024024  0  -0.07893  -0.172226  0  3.918917  0
C  C143  1  0.66919001  0.51992665  0.21857142  1  -0.019375  0  -0.079323  -0.172244  0  3.919489  0
C  C144  1  0.59088243  0.52424179  0.68220219  1  0.492456  0  0.046732  0.093279  0  3.960002  0
C  C145  1  0.38351671  0.52444700  0.81772682  1  0.512264  0  0.046707  0.093376  0  3.961909  0
C  C146  1  0.40911941  0.47575798  0.31779593  1  0.492469  0  0.046722  0.093181  0  3.960019  0
C  C147  1  0.61648278  0.47555278  0.18227140  1  0.51271  0  0.046753  0.093495  0  3.961916  0
C  C148  1  0.67808687  0.27818728  0.66125898  1  0.450075  0  0.043078  0.090291  0  3.960575  0
C  C149  1  0.54354877  0.27855830  0.83866845  1  0.44705  0  0.043561  0.0919  0  3.962472  0
C  C150  1  0.32191249  0.72181025  0.33874166  1  0.449953  0  0.043072  0.090288  0  3.960663  0
C  C151  1  0.45645129  0.72144260  0.16133108  1  0.448054  0  0.043488  0.091889  0  3.962504  0
C  C152  1  0.78034808  0.22458798  0.69648588  1  -0.020439  0  -0.082617  -0.178459  0  3.917554  0
C  C153  1  0.49530789  0.22462425  0.80345378  1  0.022898  0  -0.083314  -0.180355  0  3.920029  0
C  C154  1  0.21964967  0.77541516  0.30351437  1  -0.020486  0  -0.082635  -0.178482  0  3.917555  0
C  C155  1  0.50469332  0.77537664  0.19654638  1  0.022903  0  -0.083261  -0.180363  0  3.919869  0
N  N156  1  0.58556167  0.42528939  0.65389341  1  -1.217932  0  -0.329903  -0.249565  0  3.52606  0
N  N157  1  0.48823850  0.42570483  0.84603493  1  -1.24545  0  -0.329245  -0.248755  0  3.526229  0
N  N158  1  0.41443839  0.57471150  0.34610612  1  -1.217924  0  -0.329911  -0.24951  0  3.526031  0
N  N159  1  0.51176164  0.57429830  0.15396354  1  -1.245593  0  -0.329226  -0.248779  0  3.526285  0
N  N160  1  0.21353026  0.22366997  0.90299094  1  -1.226175  0  -0.205781  0.104488  0  3.728225  0
N  N161  1  0.06299527  0.22354569  0.59694157  1  -1.227164  0  -0.206102  0.104235  0  3.726998  0
N  N162  1  0.78647013  0.77632309  0.09701077  1  -1.226221  0  -0.205812  0.104577  0  3.728191  0
N  N163  1  0.93699610  0.77645857  0.40305756  1  -1.227146  0  -0.206089  0.104195  0  3.727299  0
N  N164  1  0.40277452  0.20373843  0.15037406  1  0.82909  0  0.097297  0.733022  0  4.414285  0
N  N165  1  0.89374240  0.20380082  0.34973469  1  0.82421  0  0.096669  0.732591  0  4.412577  0
N  N166  1  0.59722783  0.79626023  0.84962542  1  0.829271  0  0.097281  0.732866  0  4.414378  0
N  N167  1  0.10625474  0.79619896  0.65026396  1  0.824658  0  0.096597  0.732564  0  4.412872  0
O  O168  1  0.22687818  0.73445774  0.08508219  1  -1.171476  0  -0.329023  -0.5619  0  2.215055  0
O  O169  1  0.53861415  0.73460969  0.41498638  1  -1.168859  0  -0.328796  -0.562061  0  2.215478  0
O  O170  1  0.77312660  0.26554315  0.91491614  1  -1.17105  0  -0.329062  -0.562044  0  2.214979  0
O  O171  1  0.46138265  0.26538112  0.58501652  1  -1.168959  0  -0.328782  -0.562084  0  2.215263  0
O  O172  1  0.44041301  0.67989393  0.02684945  1  -1.184583  0  -0.318784  -0.558951  0  2.254817  0
O  O173  1  0.37947249  0.68001404  0.47317401  1  -1.181809  0  -0.318076  -0.559137  0  2.2546  0
O  O174  1  0.55958988  0.32009912  0.97314741  1  -1.184477  0  -0.318967  -0.559211  0  2.254413  0
O  O175  1  0.62051459  0.31998686  0.52682874  1  -1.18215  0  -0.318181  -0.559286  0  2.254581  0
O  O176  1  0.71870146  0.23379177  0.09152877  1  -1.179298  0  -0.338559  -0.576821  0  2.166411  0
O  O177  1  0.54768425  0.23352149  0.40830891  1  -1.177762  0  -0.338307  -0.576324  0  2.167223  0
O  O178  1  0.28131020  0.76620689  0.90847238  1  -1.179435  0  -0.338541  -0.576848  0  2.166391  0
O  O179  1  0.45231862  0.76648052  0.59169489  1  -1.177841  0  -0.338274  -0.576295  0  2.167218  0
O  O180  1  0.75628565  0.42788650  0.05728160  1  -1.16842  0  -0.33421  -0.566353  0  2.222225  0
O  O181  1  0.31655580  0.42772270  0.44265178  1  -1.169267  0  -0.334169  -0.566208  0  2.223517  0
O  O182  1  0.24371967  0.57211103  0.94271575  1  -1.168538  0  -0.33424  -0.566392  0  2.222241  0
O  O183  1  0.68343833  0.57227595  0.55734870  1  -1.169348  0  -0.334168  -0.566194  0  2.223519  0
O  O184  1  0.35572892  0.34458113  0.15336239  1  -0.585213  0  -0.210203  -0.500305  0  2.048671  0
O  O185  1  0.80015000  0.34468300  0.34671149  1  -0.585801  0  -0.209723  -0.500077  0  2.048542  0
O  O186  1  0.64427699  0.65541752  0.84663559  1  -0.585172  0  -0.210273  -0.500325  0  2.048634  0
O  O187  1  0.19984532  0.65531565  0.65328827  1  -0.585824  0  -0.20974  -0.50008  0  2.04855  0
O  O188  1  0.39356679  0.14965977  0.11317170  1  -0.572563  0  -0.204517  -0.469864  0  1.940337  0
O  O189  1  0.95731546  0.14964168  0.38692152  1  -0.571813  0  -0.204596  -0.469594  0  1.938142  0
O  O190  1  0.60643903  0.85033664  0.88682769  1  -0.572499  0  -0.204522  -0.469852  0  1.940412  0
O  O191  1  0.04268519  0.85035809  0.61307699  1  -0.571925  0  -0.20456  -0.46961  0  1.938348  0
O  O192  1  0.45678045  0.12005632  0.18383539  1  -0.531247  0  -0.208649  -0.460191  0  1.902051  0
O  O193  1  0.92294277  0.12014566  0.31633641  1  -0.526859  0  -0.208272  -0.460139  0  1.903429  0
O  O194  1  0.54321260  0.87994682  0.81616539  1  -0.531503  0  -0.208566  -0.460046  0  1.902132  0
O  O195  1  0.07705439  0.87985411  0.68366156  1  -0.52718  0  -0.20822  -0.460087  0  1.903547  0
O  O196  1  0.33715699  0.37766110  0.05037148  1  -1.24127  0  -0.586685  -0.735281  0  2.080023  0
O  O197  1  0.78537139  0.37729819  0.44967275  1  -1.252521  0  -0.587235  -0.736643  0  2.080056  0
O  O198  1  0.66285184  0.62233867  0.94962738  1  -1.241253  0  -0.586716  -0.735282  0  2.079995  0
O  O199  1  0.21462384  0.62269822  0.55032841  1  -1.252633  0  -0.587281  -0.736679  0  2.079967  0
