# generated using pymatgen
data_Zn2FeH16C12(ClO3)2
_symmetry_space_group_name_H-M   'P 1'
_cell_length_a   9.63750581
_cell_length_b   10.85313173
_cell_length_c   10.86543845
_cell_angle_alpha   119.52823281
_cell_angle_beta   110.19725056
_cell_angle_gamma   94.53505030
_symmetry_Int_Tables_number   1
_chemical_formula_structural   Zn2FeH16C12(ClO3)2
_chemical_formula_sum   'Zn4 Fe2 H32 C24 Cl4 O12'
_cell_volume   883.79189832
_cell_formula_units_Z   2
loop_
 _symmetry_equiv_pos_site_id
 _symmetry_equiv_pos_as_xyz
  1  'x, y, z'
loop_
 _atom_site_type_symbol
 _atom_site_label
 _atom_site_symmetry_multiplicity
 _atom_site_fract_x
 _atom_site_fract_y
 _atom_site_fract_z
 _atom_site_occupancy
 _atom_site_hle17_bader_spin_density
 _atom_site_hle17_ddec_charge
 _atom_site_hle17_ddec_spin_density
 _atom_site_hle17_ddec_sum_bond_order
 _atom_site_hle17_magmom
 _atom_site_hse06_10hf_bader_spin_density
 _atom_site_hse06_10hf_ddec_charge
 _atom_site_hse06_10hf_ddec_spin_density
 _atom_site_hse06_10hf_ddec_sum_bond_order
 _atom_site_hse06_10hf_magmom
 _atom_site_hse06_bader_spin_density
 _atom_site_hse06_ddec_charge
 _atom_site_hse06_ddec_spin_density
 _atom_site_hse06_ddec_sum_bond_order
 _atom_site_hse06_magmom
 _atom_site_pbe_bader_spin_density
 _atom_site_pbe_cm5_charge
 _atom_site_pbe_ddec_charge
 _atom_site_pbe_ddec_spin_density
 _atom_site_pbe_ddec_sum_bond_order
 _atom_site_pbe_magmom
Zn  Zn0  1  0.36267714  0.84800800  0.37162169  1  0  0.705152  0  2.060182  0  0  0.532959  0  2.494536  0  0  0.564441  0  2.46521  0  0  0.426531  0.509767  0  2.515331  0
Zn  Zn1  1  0.63730893  0.15198172  0.62837223  1  0  0.705146  0  2.060201  0  0  0.532939  0  2.494602  0  0  0.564413  0  2.465275  0  0  0.426519  0.509746  0  2.515381  0
Zn  Zn2  1  0.45558217  0.50916892  0.13279608  1  0  0.705245  0  2.05455  0  0  0.531476  0  2.490839  0  0  0.563263  0  2.461143  0  0  0.426783  0.508026  0  2.511672  0
Zn  Zn3  1  0.54440565  0.49082639  0.86720385  1  0  0.705151  0  2.054733  0  0  0.531358  0  2.491043  0  0  0.563144  0  2.461351  0  0  0.426719  0.507907  0  2.511864  0
Fe  Fe4  1  0.28727671  0.58396759  0.26048249  1  0  -0.771063  0  5.885611  0  0  -0.632541  0  6.307707  0  0  -0.727672  0  6.38348  0  0  0.279426  -0.567143  0  6.252422  0
Fe  Fe5  1  0.71271901  0.41602457  0.73952660  1  0  -0.770934  0  5.885222  0  0  -0.632372  0  6.307379  0  0  -0.727448  0  6.383156  0  0  0.279454  -0.566999  0  6.25208  0
H  H6  1  0.48023733  0.17202853  0.97883498  1  0  0.058938  0  0.948034  0  0  0.069223  0  1.020132  0  0  0.069849  0  1.019827  0  0  0.090695  0.068655  0  1.020454  0
H  H7  1  0.51975991  0.82797231  0.02116219  1  0  0.058907  0  0.948047  0  0  0.069181  0  1.02016  0  0  0.069804  0  1.019855  0  0  0.090677  0.068603  0  1.020493  0
H  H8  1  0.44302521  0.19520184  0.13866478  1  0  0.053374  0  0.934322  0  0  0.064353  0  1.002106  0  0  0.065398  0  1.000678  0  0  0.0953  0.063306  0  1.003395  0
H  H9  1  0.55697382  0.80480122  0.86133310  1  0  0.053361  0  0.93425  0  0  0.064336  0  1.002037  0  0  0.065378  0  1.00061  0  0  0.095271  0.063291  0  1.003321  0
H  H10  1  0.68926903  0.08532043  0.06780046  1  0  0.074638  0  0.940763  0  0  0.096556  0  0.993679  0  0  0.096603  0  0.995432  0  0  0.094695  0.096262  0  0.992839  0
H  H11  1  0.31073618  0.91468827  0.93220478  1  0  0.074603  0  0.94091  0  0  0.096542  0  0.993783  0  0  0.09659  0  0.995537  0  0  0.094719  0.096267  0  0.992919  0
H  H12  1  0.66575038  0.13889832  0.24038345  1  0  0.071932  0  0.95907  0  0  0.086152  0  1.0256  0  0  0.086775  0  1.026712  0  0  0.083938  0.085635  0  1.024878  0
H  H13  1  0.33424209  0.86110138  0.75961264  1  0  0.07191  0  0.959121  0  0  0.086113  0  1.025661  0  0  0.086735  0  1.026778  0  0  0.083921  0.085596  0  1.024941  0
H  H14  1  0.90585529  0.32705157  0.36147161  1  0  0.083464  0  0.9573  0  0  0.101364  0  1.01741  0  0  0.101735  0  1.018583  0  0  0.095749  0.101101  0  1.016476  0
H  H15  1  0.09413747  0.67295606  0.63854130  1  0  0.083437  0  0.957354  0  0  0.101414  0  1.017361  0  0  0.101801  0  1.018511  0  0  0.095722  0.101151  0  1.016426  0
H  H16  1  0.86262085  0.32612217  0.18775884  1  0  0.085202  0  0.959488  0  0  0.099288  0  1.024101  0  0  0.100695  0  1.023848  0  0  0.09342  0.098363  0  1.024143  0
H  H17  1  0.13738410  0.67388556  0.81225689  1  0  0.085203  0  0.959578  0  0  0.099328  0  1.024143  0  0  0.100733  0  1.023894  0  0  0.093451  0.098408  0  1.024182  0
H  H18  1  0.72333850  0.46402717  0.42151089  1  0  0.053358  0  0.923765  0  0  0.066533  0  0.988112  0  0  0.066626  0  0.988126  0  0  0.095915  0.066346  0  0.98818  0
H  H19  1  0.27664898  0.53598138  0.57848982  1  0  0.053377  0  0.923685  0  0  0.066568  0  0.988072  0  0  0.066662  0  0.988086  0  0  0.095923  0.06638  0  0.988145  0
H  H20  1  0.79792460  0.54549749  0.33850508  1  0  0.068539  0  0.945209  0  0  0.078688  0  1.016125  0  0  0.079614  0  1.01465  0  0  0.10012  0.077824  0  1.017347  0
H  H21  1  0.20207036  0.45450667  0.66149486  1  0  0.06852  0  0.945229  0  0  0.078684  0  1.016153  0  0  0.07961  0  1.014681  0  0  0.100127  0.077821  0  1.017375  0
H  H22  1  0.16393421  0.08419723  0.50506401  1  0  0.053869  0  0.933097  0  0  0.066699  0  1.00062  0  0  0.067524  0  1.000014  0  0  0.089274  0.065915  0  1.001236  0
H  H23  1  0.83607437  0.91580468  0.49492608  1  0  0.05384  0  0.93315  0  0  0.066698  0  1.000646  0  0  0.067522  0  1.000041  0  0  0.089288  0.065921  0  1.001254  0
H  H24  1  0.05006516  0.89429928  0.40265737  1  0  0.060875  0  0.947266  0  0  0.074654  0  1.014435  0  0  0.074437  0  1.014825  0  0  0.100669  0.074663  0  1.014193  0
H  H25  1  0.94993113  0.10570926  0.59733864  1  0  0.060868  0  0.947154  0  0  0.074656  0  1.014355  0  0  0.074438  0  1.014747  0  0  0.100641  0.074665  0  1.014114  0
H  H26  1  0.86704442  0.90364003  0.19097078  1  0  0.080991  0  0.94807  0  0  0.095742  0  1.012238  0  0  0.096636  0  1.012927  0  0  0.086806  0.095094  0  1.011783  0
H  H27  1  0.13296030  0.09637077  0.80902705  1  0  0.081093  0  0.948003  0  0  0.095816  0  1.012188  0  0  0.096709  0  1.012874  0  0  0.086831  0.095164  0  1.011736  0
H  H28  1  0.90998905  0.08757854  0.35372940  1  0  0.080843  0  0.957284  0  0  0.09726  0  1.022874  0  0  0.097794  0  1.023605  0  0  0.094027  0.097051  0  1.021949  0
H  H29  1  0.09002261  0.91243334  0.64626370  1  0  0.080932  0  0.957249  0  0  0.097285  0  1.022895  0  0  0.097817  0  1.023629  0  0  0.094056  0.097076  0  1.021969  0
H  H30  1  0.10622210  0.18739973  0.30551062  1  0  0.077713  0  0.940819  0  0  0.09422  0  1.001964  0  0  0.095026  0  1.002393  0  0  0.092941  0.093397  0  1.002142  0
H  H31  1  0.89378873  0.81259880  0.69447299  1  0  0.077674  0  0.940832  0  0  0.094228  0  1.001924  0  0  0.095032  0  1.00235  0  0  0.092915  0.093405  0  1.002102  0
H  H32  1  0.96338204  0.05282070  0.10971011  1  0  0.079431  0  0.950896  0  0  0.097964  0  1.01355  0  0  0.098053  0  1.014746  0  0  0.096644  0.098039  0  1.012422  0
H  H33  1  0.03662744  0.94717343  0.89027464  1  0  0.079571  0  0.950854  0  0  0.098078  0  1.013516  0  0  0.098154  0  1.014739  0  0  0.096645  0.098145  0  1.012393  0
H  H34  1  0.11032060  0.87921231  0.07517149  1  0  0.055509  0  0.949126  0  0  0.064494  0  1.021619  0  0  0.065372  0  1.02058  0  0  0.095795  0.063657  0  1.02255  0
H  H35  1  0.88968926  0.12078299  0.92481855  1  0  0.055574  0  0.949138  0  0  0.064544  0  1.021594  0  0  0.065425  0  1.020554  0  0  0.095832  0.063706  0  1.022525  0
H  H36  1  0.27040589  0.04659146  0.22596693  1  0  0.056254  0  0.957816  0  0  0.063613  0  1.034308  0  0  0.064917  0  1.032392  0  0  0.091407  0.062751  0  1.035501  0
H  H37  1  0.72960704  0.95340289  0.77403370  1  0  0.056321  0  0.957829  0  0  0.06364  0  1.034318  0  0  0.064938  0  1.032412  0  0  0.091456  0.062779  0  1.03551  0
C  C38  1  0.15921092  0.63183117  0.34713006  1  0  0.292413  0  3.50066  0  0  0.230249  0  3.840524  0  0  0.273609  0  3.841256  0  0  0.007556  0.201835  0  3.838012  0
C  C39  1  0.84078750  0.36816981  0.65287766  1  0  0.292364  0  3.50075  0  0  0.230203  0  3.840595  0  0  0.273549  0  3.841331  0  0  0.007573  0.201792  0  3.838074  0
C  C40  1  0.22305769  0.39037150  0.17197241  1  0  0.293829  0  3.495093  0  0  0.229907  0  3.834461  0  0  0.273539  0  3.834567  0  0  0.00893  0.201008  0  3.832703  0
C  C41  1  0.77695861  0.60962984  0.82805656  1  0  0.293871  0  3.495104  0  0  0.2299  0  3.834476  0  0  0.273513  0  3.834593  0  0  0.009025  0.201001  0  3.832712  0
C  C42  1  0.46969607  0.64475997  0.42193605  1  0  0.182786  0  3.629091  0  0  0.141228  0  3.961997  0  0  0.177818  0  3.970991  0  0  -0.028779  0.116651  0  3.954813  0
C  C43  1  0.53030606  0.35523875  0.57806619  1  0  0.182775  0  3.629097  0  0  0.141215  0  3.961996  0  0  0.177791  0  3.971003  0  0  -0.028767  0.116643  0  3.954802  0
C  C44  1  0.20517895  0.60138144  0.09860195  1  0  0.189125  0  3.629046  0  0  0.150885  0  3.958418  0  0  0.186752  0  3.967485  0  0  -0.029358  0.126753  0  3.951369  0
C  C45  1  0.79480766  0.39860626  0.90140589  1  0  0.189037  0  3.62924  0  0  0.150747  0  3.958609  0  0  0.186601  0  3.967684  0  0  -0.029524  0.126618  0  3.951551  0
C  C46  1  0.53232945  0.22053144  0.10616218  1  0  0.09828  0  3.531526  0  0  0.039004  0  3.794231  0  0  0.046447  0  3.800036  0  0  -0.071425  0.034095  0  3.790085  0
C  C47  1  0.46766923  0.77947051  0.89383505  1  0  0.098438  0  3.531461  0  0  0.039167  0  3.794118  0  0  0.046621  0  3.799916  0  0  -0.071339  0.034269  0  3.789973  0
C  C48  1  0.67602487  0.17633114  0.16581354  1  0  -0.134182  0  3.637553  0  0  -0.170601  0  3.890988  0  0  -0.172976  0  3.905173  0  0  -0.165653  -0.168829  0  3.881285  0
C  C49  1  0.32397564  0.82367308  0.83418810  1  0  -0.134111  0  3.637717  0  0  -0.170512  0  3.891096  0  0  -0.172889  0  3.905278  0  0  -0.165636  -0.168751  0  3.881393  0
C  C50  1  0.81355833  0.31924940  0.26209131  1  0  -0.154137  0  3.67363  0  0  -0.19787  0  3.937535  0  0  -0.200167  0  3.950905  0  0  -0.172869  -0.196416  0  3.928141  0
C  C51  1  0.18643891  0.68075490  0.73791766  1  0  -0.154231  0  3.673718  0  0  -0.198043  0  3.93768  0  0  -0.200344  0  3.951048  0  0  -0.172927  -0.196593  0  3.9283  0
C  C52  1  0.73900743  0.44158669  0.31734386  1  0  0.101171  0  3.563133  0  0  0.040469  0  3.829531  0  0  0.048379  0  3.835425  0  0  -0.073374  0.035298  0  3.82537  0
C  C53  1  0.26098899  0.55841863  0.68265892  1  0  0.10129  0  3.563174  0  0  0.040477  0  3.829713  0  0  0.048385  0  3.835618  0  0  -0.073365  0.035304  0  3.825554  0
C  C54  1  0.08946595  0.98186083  0.38837937  1  0  0.099802  0  3.563116  0  0  0.037924  0  3.827812  0  0  0.04556  0  3.834129  0  0  -0.075491  0.03299  0  3.823217  0
C  C55  1  0.91053525  0.01814217  0.61161269  1  0  0.099898  0  3.562988  0  0  0.037975  0  3.827737  0  0  0.045609  0  3.834053  0  0  -0.075457  0.033038  0  3.823143  0
C  C56  1  0.96001557  0.00850974  0.28572984  1  0  -0.150944  0  3.681467  0  0  -0.191853  0  3.942107  0  0  -0.194159  0  3.955662  0  0  -0.17119  -0.190202  0  3.932373  0
C  C57  1  0.03999176  0.99149882  0.71426402  1  0  -0.151003  0  3.681302  0  0  -0.191846  0  3.94199  0  0  -0.194149  0  3.955535  0  0  -0.171121  -0.190198  0  3.932261  0
C  C58  1  0.04333057  0.06835259  0.21989350  1  0  -0.139791  0  3.673202  0  0  -0.183098  0  3.937362  0  0  -0.184854  0  3.950647  0  0  -0.167637  -0.181724  0  3.927998  0
C  C59  1  0.95667478  0.93164599  0.78009583  1  0  -0.139996  0  3.673264  0  0  -0.18333  0  3.937426  0  0  -0.185081  0  3.950692  0  0  -0.167711  -0.181949  0  3.928065  0
C  C60  1  0.15758992  0.97987942  0.19492629  1  0  0.096469  0  3.539295  0  0  0.033219  0  3.80883  0  0  0.041376  0  3.813158  0  0  -0.074857  0.027944  0  3.805429  0
C  C61  1  0.84241706  0.02011369  0.80506550  1  0  0.096319  0  3.539575  0  0  0.033179  0  3.809035  0  0  0.041331  0  3.813352  0  0  -0.074907  0.027903  0  3.805631  0
Cl  Cl62  1  0.54731750  0.98310891  0.35180702  1  0  -0.435023  0  1.167362  0  0  -0.362357  0  1.470699  0  0  -0.379086  0  1.449922  0  0  -0.229269  -0.350638  0  1.485313  0
Cl  Cl63  1  0.45267463  0.01687535  0.64818794  1  0  -0.435048  0  1.167352  0  0  -0.362375  0  1.470685  0  0  -0.379102  0  1.449907  0  0  -0.229257  -0.350656  0  1.4853  0
Cl  Cl64  1  0.65706649  0.65957857  0.14667653  1  0  -0.430999  0  1.161875  0  0  -0.359691  0  1.464848  0  0  -0.376586  0  1.443582  0  0  -0.231557  -0.347503  0  1.479501  0
Cl  Cl65  1  0.34291680  0.34042000  0.85332083  1  0  -0.430953  0  1.161842  0  0  -0.35963  0  1.464789  0  0  -0.37653  0  1.443534  0  0  -0.231511  -0.347443  0  1.479444  0
O  O66  1  0.07172429  0.66043855  0.40224639  1  0  -0.257396  0  2.207182  0  0  -0.196077  0  2.434921  0  0  -0.215754  0  2.427646  0  0  -0.169067  -0.182789  0  2.438796  0
O  O67  1  0.92826671  0.33956346  0.59775866  1  0  -0.257345  0  2.207432  0  0  -0.196038  0  2.4352  0  0  -0.21571  0  2.427925  0  0  -0.169075  -0.182757  0  2.439076  0
O  O68  1  0.17734608  0.26238717  0.11376870  1  0  -0.246894  0  2.203616  0  0  -0.183099  0  2.4321  0  0  -0.203204  0  2.425391  0  0  -0.162123  -0.169627  0  2.435878  0
O  O69  1  0.82267819  0.73760769  0.88626784  1  0  -0.246916  0  2.203876  0  0  -0.183072  0  2.432354  0  0  -0.203168  0  2.425646  0  0  -0.162153  -0.169603  0  2.436129  0
O  O70  1  0.58745306  0.68184422  0.53074466  1  0  -0.239977  0  2.218277  0  0  -0.186408  0  2.439708  0  0  -0.208408  0  2.437821  0  0  -0.179925  -0.171767  0  2.440441  0
O  O71  1  0.41255630  0.31815661  0.46924698  1  0  -0.240026  0  2.218345  0  0  -0.186456  0  2.439789  0  0  -0.208461  0  2.437915  0  0  -0.17996  -0.171812  0  2.440502  0
O  O72  1  0.14391911  0.60995725  0.99039488  1  0  -0.230456  0  2.229037  0  0  -0.177224  0  2.449728  0  0  -0.199826  0  2.448726  0  0  -0.172048  -0.162108  0  2.449555  0
O  O73  1  0.85605696  0.39002488  0.00961258  1  0  -0.23044  0  2.22931  0  0  -0.177146  0  2.449932  0  0  -0.199749  0  2.448933  0  0  -0.171944  -0.162035  0  2.449759  0
O  O74  1  0.58701272  0.38157544  0.18407696  1  0  -0.332163  0  2.34995  0  0  -0.221326  0  2.595235  0  0  -0.242317  0  2.596358  0  0  -0.23541  -0.206497  0  2.593623  0
O  O75  1  0.41298406  0.61842756  0.81591652  1  0  -0.332288  0  2.350051  0  0  -0.22142  0  2.595358  0  0  -0.242413  0  2.59648  0  0  -0.235429  -0.20659  0  2.593744  0
O  O76  1  0.18214571  0.92964517  0.30198165  1  0  -0.336169  0  2.31811  0  0  -0.221974  0  2.558676  0  0  -0.243217  0  2.559839  0  0  -0.236588  -0.207165  0  2.557404  0
O  O77  1  0.81784516  0.07034227  0.69800434  1  0  -0.336196  0  2.318046  0  0  -0.222036  0  2.558628  0  0  -0.24327  0  2.559771  0  0  -0.236682  -0.20723  0  2.557359  0
