# generated using pymatgen
data_AgH4C5SNO3
_symmetry_space_group_name_H-M   'P 1'
_cell_length_a   5.10161739
_cell_length_b   10.81285055
_cell_length_c   12.71463915
_cell_angle_alpha   112.47733371
_cell_angle_beta   90.00131592
_cell_angle_gamma   89.99996601
_symmetry_Int_Tables_number   1
_chemical_formula_structural   AgH4C5SNO3
_chemical_formula_sum   'Ag4 H16 C20 S4 N4 O12'
_cell_volume   648.09488652
_cell_formula_units_Z   4
loop_
 _symmetry_equiv_pos_site_id
 _symmetry_equiv_pos_as_xyz
  1  'x, y, z'
loop_
 _atom_site_type_symbol
 _atom_site_label
 _atom_site_symmetry_multiplicity
 _atom_site_fract_x
 _atom_site_fract_y
 _atom_site_fract_z
 _atom_site_occupancy
 _atom_site_hle17_bader_spin_density
 _atom_site_hle17_ddec_charge
 _atom_site_hle17_ddec_spin_density
 _atom_site_hle17_ddec_sum_bond_order
 _atom_site_hle17_magmom
 _atom_site_hse06_10hf_bader_spin_density
 _atom_site_hse06_10hf_ddec_charge
 _atom_site_hse06_10hf_ddec_spin_density
 _atom_site_hse06_10hf_ddec_sum_bond_order
 _atom_site_hse06_10hf_magmom
 _atom_site_hse06_bader_spin_density
 _atom_site_hse06_ddec_charge
 _atom_site_hse06_ddec_spin_density
 _atom_site_hse06_ddec_sum_bond_order
 _atom_site_hse06_magmom
 _atom_site_pbe_bader_spin_density
 _atom_site_pbe_cm5_charge
 _atom_site_pbe_ddec_charge
 _atom_site_pbe_ddec_spin_density
 _atom_site_pbe_ddec_sum_bond_order
 _atom_site_pbe_magmom
Ag  Ag0  1  0.77787984  0.94539697  0.87287150  1  0  0.676996  0  1.262171  0  0  0.560119  0  1.685329  0  0  0.585877  0  1.639784  0  0  0.471786  0.54238  0  1.71702  0
Ag  Ag1  1  0.27789080  0.05460398  0.62712387  1  0  0.676899  0  1.262342  0  0  0.56006  0  1.685519  0  0  0.585815  0  1.639977  0  0  0.471763  0.542324  0  1.717214  0
Ag  Ag2  1  0.22206851  0.05461167  0.12713396  1  0  0.677068  0  1.262257  0  0  0.560226  0  1.685386  0  0  0.585982  0  1.63985  0  0  0.471848  0.542489  0  1.717072  0
Ag  Ag3  1  0.72212812  0.94540472  0.37287061  1  0  0.676962  0  1.262206  0  0  0.560129  0  1.685366  0  0  0.585889  0  1.639826  0  0  0.471795  0.542395  0  1.717057  0
H  H4  1  0.36497458  0.58723354  0.02043497  1  0  0.11371  0  0.946816  0  0  0.124797  0  1.006321  0  0  0.127747  0  1.005446  0  0  0.113145  0.122521  0  1.007512  0
H  H5  1  0.86497064  0.41276647  0.47956709  1  0  0.113617  0  0.946921  0  0  0.124732  0  1.006414  0  0  0.127694  0  1.005525  0  0  0.113125  0.122453  0  1.007601  0
H  H6  1  0.63499926  0.41275902  0.97957465  1  0  0.113636  0  0.946954  0  0  0.12476  0  1.006395  0  0  0.127723  0  1.005506  0  0  0.113135  0.122481  0  1.007591  0
H  H7  1  0.13499535  0.58723122  0.52042455  1  0  0.113623  0  0.946854  0  0  0.124756  0  1.0063  0  0  0.127716  0  1.005415  0  0  0.113123  0.122478  0  1.007486  0
H  H8  1  0.03168721  0.50211038  0.86567442  1  0  0.106432  0  0.939922  0  0  0.11958  0  0.994951  0  0  0.1219  0  0.994111  0  0  0.110179  0.117783  0  0.995927  0
H  H9  1  0.53169841  0.49791138  0.63433973  1  0  0.106381  0  0.940057  0  0  0.119639  0  0.994961  0  0  0.121893  0  0.994206  0  0  0.110184  0.117839  0  0.99594  0
H  H10  1  0.96827094  0.49788418  0.13433742  1  0  0.106288  0  0.940258  0  0  0.119513  0  0.99522  0  0  0.121783  0  0.994441  0  0  0.110107  0.117711  0  0.996202  0
H  H11  1  0.46829699  0.50210326  0.36566693  1  0  0.106448  0  0.940031  0  0  0.119633  0  0.995019  0  0  0.121926  0  0.994216  0  0  0.110217  0.117834  0  0.99599  0
H  H12  1  0.97810661  0.62409497  0.73134388  1  0  0.107402  0  0.976974  0  0  0.114524  0  1.043441  0  0  0.117263  0  1.043448  0  0  0.104129  0.112569  0  1.043516  0
H  H13  1  0.47811351  0.37591086  0.76866121  1  0  0.107378  0  0.976841  0  0  0.114489  0  1.043348  0  0  0.11723  0  1.04335  0  0  0.104101  0.112536  0  1.043429  0
H  H14  1  0.02190055  0.37589060  0.26866265  1  0  0.107469  0  0.97674  0  0  0.114596  0  1.043187  0  0  0.117339  0  1.043187  0  0  0.104123  0.112639  0  1.043261  0
H  H15  1  0.52191129  0.62409975  0.23134963  1  0  0.107447  0  0.97692  0  0  0.114564  0  1.043379  0  0  0.117305  0  1.043383  0  0  0.104125  0.112612  0  1.043452  0
H  H16  1  0.27862498  0.81301488  0.75239426  1  0  0.093233  0  0.954644  0  0  0.098681  0  1.021644  0  0  0.101986  0  1.017842  0  0  0.114672  0.096067  0  1.024833  0
H  H17  1  0.77859619  0.18697304  0.74759998  1  0  0.093206  0  0.954541  0  0  0.098621  0  1.021605  0  0  0.101928  0  1.017809  0  0  0.114617  0.09601  0  1.024795  0
H  H18  1  0.72138806  0.18695876  0.24759340  1  0  0.093188  0  0.954614  0  0  0.098557  0  1.021712  0  0  0.101873  0  1.017907  0  0  0.11457  0.095944  0  1.024898  0
H  H19  1  0.22140901  0.81303461  0.25240202  1  0  0.093161  0  0.95459  0  0  0.098638  0  1.021575  0  0  0.101954  0  1.017776  0  0  0.114627  0.096026  0  1.024769  0
C  C20  1  0.49516255  0.74278215  0.96571197  1  0  0.047056  0  3.725836  0  0  0.057155  0  3.973033  0  0  0.05837  0  3.993921  0  0  0.109369  0.056088  0  3.959416  0
C  C21  1  0.99517224  0.25721984  0.53427785  1  0  0.046858  0  3.726009  0  0  0.056826  0  3.973482  0  0  0.058033  0  3.994378  0  0  0.109278  0.055767  0  3.959859  0
C  C22  1  0.50484657  0.25720946  0.03429104  1  0  0.047116  0  3.725593  0  0  0.056969  0  3.973189  0  0  0.058183  0  3.99409  0  0  0.109417  0.0559  0  3.959569  0
C  C23  1  0.00484276  0.74278186  0.46571354  1  0  0.047022  0  3.726004  0  0  0.056945  0  3.973497  0  0  0.058154  0  3.994399  0  0  0.10933  0.055873  0  3.959884  0
C  C24  1  0.34096820  0.63379355  0.95896806  1  0  -0.090766  0  3.693536  0  0  -0.114395  0  3.941117  0  0  -0.11852  0  3.960425  0  0  -0.075102  -0.111956  0  3.928848  0
C  C25  1  0.84095851  0.36620764  0.54103504  1  0  -0.090581  0  3.693548  0  0  -0.114216  0  3.941249  0  0  -0.118342  0  3.96053  0  0  -0.075093  -0.111779  0  3.928973  0
C  C26  1  0.65905072  0.36620606  0.04103680  1  0  -0.090635  0  3.69362  0  0  -0.114213  0  3.941313  0  0  -0.118348  0  3.960597  0  0  -0.075083  -0.111775  0  3.929047  0
C  C27  1  0.15904081  0.63379703  0.45896361  1  0  -0.090668  0  3.693581  0  0  -0.114262  0  3.941234  0  0  -0.118395  0  3.96053  0  0  -0.075098  -0.111823  0  3.928959  0
C  C28  1  0.15348990  0.58769714  0.87285115  1  0  0.015444  0  3.6725  0  0  -0.003193  0  3.920235  0  0  0.000648  0  3.936719  0  0  -0.062293  -0.005794  0  3.909371  0
C  C29  1  0.65349885  0.41231620  0.62715582  1  0  0.015451  0  3.672581  0  0  -0.003289  0  3.920378  0  0  0.000598  0  3.936877  0  0  -0.062297  -0.005888  0  3.909513  0
C  C30  1  0.84648785  0.41230348  0.12715246  1  0  0.015647  0  3.672995  0  0  -0.003107  0  3.920764  0  0  0.000773  0  3.937263  0  0  -0.062253  -0.005706  0  3.909896  0
C  C31  1  0.34650634  0.58769245  0.37284808  1  0  0.015502  0  3.672711  0  0  -0.003209  0  3.92048  0  0  0.000654  0  3.936963  0  0  -0.062318  -0.005804  0  3.909603  0
C  C32  1  0.12581215  0.65342121  0.79825138  1  0  -0.118887  0  3.709853  0  0  -0.132615  0  3.962948  0  0  -0.138578  0  3.98235  0  0  -0.084362  -0.128719  0  3.950144  0
C  C33  1  0.62580593  0.34657601  0.70174689  1  0  -0.118763  0  3.7096  0  0  -0.132485  0  3.962692  0  0  -0.138444  0  3.982072  0  0  -0.084263  -0.12859  0  3.9499  0
C  C34  1  0.87420089  0.34655743  0.20174028  1  0  -0.119027  0  3.70976  0  0  -0.132709  0  3.962754  0  0  -0.138675  0  3.982143  0  0  -0.084332  -0.128809  0  3.949943  0
C  C35  1  0.37420319  0.65342962  0.29825759  1  0  -0.119085  0  3.709863  0  0  -0.132772  0  3.962937  0  0  -0.138733  0  3.982327  0  0  -0.084365  -0.128879  0  3.950141  0
C  C36  1  0.29107765  0.76068613  0.81026005  1  0  0.130192  0  3.69057  0  0  0.100823  0  3.949602  0  0  0.108522  0  3.963102  0  0  0.042726  0.095437  0  3.940882  0
C  C37  1  0.79107678  0.23931286  0.68973794  1  0  0.130291  0  3.690355  0  0  0.100997  0  3.949323  0  0  0.108686  0  3.962836  0  0  0.042828  0.095608  0  3.940608  0
C  C38  1  0.70891775  0.23929847  0.18973987  1  0  0.130348  0  3.690469  0  0  0.101051  0  3.949423  0  0  0.108734  0  3.962943  0  0  0.042876  0.095664  0  3.940693  0
C  C39  1  0.20893038  0.76069480  0.31026327  1  0  0.130514  0  3.690192  0  0  0.101139  0  3.949163  0  0  0.108822  0  3.962675  0  0  0.042883  0.095749  0  3.940459  0
S  S40  1  0.71921096  0.81125575  0.08386392  1  0  1.262147  0  5.643613  0  0  1.164091  0  6.150953  0  0  1.212256  0  6.129441  0  0  0.506927  1.130757  0  6.164573  0
S  S41  1  0.21918947  0.18874056  0.41614189  1  0  1.262278  0  5.644771  0  0  1.164263  0  6.152097  0  0  1.212424  0  6.130581  0  0  0.50704  1.130924  0  6.165718  0
S  S42  1  0.28078052  0.18873292  0.91612633  1  0  1.262189  0  5.64398  0  0  1.164192  0  6.151337  0  0  1.212351  0  6.129832  0  0  0.506907  1.130857  0  6.164961  0
S  S43  1  0.78080593  0.81127313  0.58385816  1  0  1.262014  0  5.643572  0  0  1.164071  0  6.150857  0  0  1.212237  0  6.129351  0  0  0.506983  1.13075  0  6.164461  0
N  N44  1  0.47565283  0.80421141  0.89207651  1  0  -0.331909  0  3.342101  0  0  -0.265665  0  3.627173  0  0  -0.28158  0  3.641424  0  0  -0.335231  -0.254697  0  3.6175  0
N  N45  1  0.97563356  0.19578047  0.60791138  1  0  -0.331936  0  3.34172  0  0  -0.265711  0  3.626901  0  0  -0.281625  0  3.641155  0  0  -0.335222  -0.254749  0  3.61724  0
N  N46  1  0.52435629  0.19575121  0.10790910  1  0  -0.332155  0  3.342132  0  0  -0.265863  0  3.62731  0  0  -0.281774  0  3.641561  0  0  -0.335405  -0.254909  0  3.617662  0
N  N47  1  0.02436184  0.80422621  0.39208636  1  0  -0.332088  0  3.341952  0  0  -0.265848  0  3.627174  0  0  -0.281763  0  3.641432  0  0  -0.335313  -0.254887  0  3.617525  0
O  O48  1  0.92591679  0.87978935  0.04563990  1  0  -0.684861  0  2.17518  0  0  -0.614303  0  2.480242  0  0  -0.639262  0  2.463299  0  0  -0.345456  -0.596577  0  2.491137  0
O  O49  1  0.42591331  0.12022202  0.45435464  1  0  -0.684787  0  2.175478  0  0  -0.614289  0  2.480565  0  0  -0.639246  0  2.46362  0  0  -0.345465  -0.596565  0  2.491459  0
O  O50  1  0.07407468  0.12020633  0.95435265  1  0  -0.684778  0  2.175277  0  0  -0.614234  0  2.480322  0  0  -0.639192  0  2.46338  0  0  -0.345427  -0.596507  0  2.491218  0
O  O51  1  0.57409385  0.87980374  0.54563916  1  0  -0.684543  0  2.175232  0  0  -0.614058  0  2.480285  0  0  -0.639017  0  2.463346  0  0  -0.345326  -0.596335  0  2.491174  0
O  O52  1  0.80999279  0.69762589  0.10877641  1  0  -0.642743  0  1.966459  0  0  -0.59389  0  2.219908  0  0  -0.61679  0  2.210096  0  0  -0.329332  -0.577325  0  2.226184  0
O  O53  1  0.30994811  0.30236688  0.39122197  1  0  -0.642931  0  1.96656  0  0  -0.594006  0  2.21992  0  0  -0.616905  0  2.210108  0  0  -0.329502  -0.57744  0  2.226185  0
O  O54  1  0.19002025  0.30236973  0.89122634  1  0  -0.642815  0  1.966562  0  0  -0.593921  0  2.219938  0  0  -0.616824  0  2.21013  0  0  -0.329347  -0.577362  0  2.226217  0
O  O55  1  0.69003161  0.69764678  0.60878201  1  0  -0.642899  0  1.966495  0  0  -0.594023  0  2.21989  0  0  -0.616925  0  2.210073  0  0  -0.329482  -0.577461  0  2.226154  0
O  O56  1  0.55666904  0.90616233  0.17654540  1  0  -0.683446  0  2.075496  0  0  -0.61574  0  2.371182  0  0  -0.639859  0  2.351612  0  0  -0.341138  -0.598557  0  2.38437  0
O  O57  1  0.05668349  0.09384927  0.32346160  1  0  -0.683452  0  2.076077  0  0  -0.615701  0  2.371688  0  0  -0.639832  0  2.352149  0  0  -0.341124  -0.598516  0  2.384867  0
O  O58  1  0.44331459  0.09384033  0.82345338  1  0  -0.683477  0  2.075853  0  0  -0.615699  0  2.371435  0  0  -0.639827  0  2.351886  0  0  -0.341133  -0.598518  0  2.384622  0
O  O59  1  0.94336287  0.90616739  0.67654337  1  0  -0.683379  0  2.075191  0  0  -0.615721  0  2.370914  0  0  -0.639812  0  2.351268  0  0  -0.341172  -0.59854  0  2.384092  0
