# generated using pymatgen
data_NaH17C10NO3
_symmetry_space_group_name_H-M   'P 1'
_cell_length_a   5.63880004
_cell_length_b   13.18909177
_cell_length_c   14.10188612
_cell_angle_alpha   89.99990410
_cell_angle_beta   94.75824795
_cell_angle_gamma   90.00128997
_symmetry_Int_Tables_number   1
_chemical_formula_structural   NaH17C10NO3
_chemical_formula_sum   'Na4 H68 C40 N4 O12'
_cell_volume   1045.15195421
_cell_formula_units_Z   4
loop_
 _symmetry_equiv_pos_site_id
 _symmetry_equiv_pos_as_xyz
  1  'x, y, z'
loop_
 _atom_site_type_symbol
 _atom_site_label
 _atom_site_symmetry_multiplicity
 _atom_site_fract_x
 _atom_site_fract_y
 _atom_site_fract_z
 _atom_site_occupancy
 _atom_site_pbe_bader_spin_density
 _atom_site_pbe_cm5_charge
 _atom_site_pbe_ddec_charge
 _atom_site_pbe_ddec_spin_density
 _atom_site_pbe_ddec_sum_bond_order
 _atom_site_pbe_magmom
Na  Na0  1  0.20195866  0.99188148  0.92055510  1  0  0.664765  0.841637  0  0.564138  0
Na  Na1  1  0.29809261  0.49188148  0.57944688  1  0  0.664817  0.841632  0  0.564118  0
Na  Na2  1  0.79810065  0.00809873  0.07946784  1  0  0.664806  0.841636  0  0.564178  0
Na  Na3  1  0.70195367  0.50812072  0.42056367  1  0  0.664795  0.841651  0  0.564188  0
H  H4  1  0.62711354  0.18222779  0.32304181  1  0  0.094416  0.134284  0  1.02004  0
H  H5  1  0.87285651  0.68222944  0.17697069  1  0  0.094395  0.13429  0  1.019991  0
H  H6  1  0.37288678  0.81776000  0.67697395  1  0  0.094417  0.134358  0  1.019991  0
H  H7  1  0.12711658  0.31778261  0.82303303  1  0  0.094412  0.134238  0  1.020174  0
H  H8  1  0.69970559  0.27131221  0.41635296  1  0  0.095978  0.12576  0  1.047106  0
H  H9  1  0.80028672  0.77130589  0.08365242  1  0  0.095988  0.125784  0  1.046842  0
H  H10  1  0.30029395  0.72868469  0.58364647  1  0  0.095935  0.125693  0  1.047149  0
H  H11  1  0.19967508  0.22870010  0.91633824  1  0  0.096023  0.125784  0  1.046968  0
H  H12  1  0.86078576  0.15518759  0.41260309  1  0  0.08997  0.127582  0  1.017535  0
H  H13  1  0.63920709  0.65519466  0.08741592  1  0  0.08991  0.127476  0  1.017851  0
H  H14  1  0.13920348  0.84481385  0.58740388  1  0  0.090003  0.12763  0  1.017489  0
H  H15  1  0.36076073  0.34481133  0.91258909  1  0  0.089883  0.127431  0  1.017808  0
H  H16  1  0.07665514  0.37834644  0.41406885  1  0  0.099425  0.104543  0  1.059639  0
H  H17  1  0.42334843  0.87832010  0.08590699  1  0  0.099413  0.104578  0  1.059446  0
H  H18  1  0.92331416  0.62168836  0.58589293  1  0  0.099338  0.10446  0  1.059667  0
H  H19  1  0.57662695  0.12166541  0.91407055  1  0  0.099452  0.10462  0  1.059409  0
H  H20  1  0.22638614  0.26050664  0.42624987  1  0  0.095673  0.136414  0  1.011845  0
H  H21  1  0.27359595  0.76045831  0.07376736  1  0  0.09572  0.136474  0  1.011436  0
H  H22  1  0.77359465  0.73951830  0.57376610  1  0  0.09575  0.136434  0  1.011732  0
H  H23  1  0.72637567  0.23952949  0.92624271  1  0  0.09577  0.136438  0  1.011587  0
H  H24  1  0.29677483  0.34595144  0.33545370  1  0  0.096581  0.130552  0  1.047303  0
H  H25  1  0.20326383  0.84596160  0.16454233  1  0  0.096557  0.130525  0  1.047593  0
H  H26  1  0.70321633  0.65405531  0.66451927  1  0  0.096632  0.130504  0  1.04747  0
H  H27  1  0.79672631  0.15405728  0.83544622  1  0  0.096588  0.130602  0  1.047527  0
H  H28  1  0.91418278  0.13332521  0.21857131  1  0  0.098481  0.095098  0  1.029052  0
H  H29  1  0.58579341  0.63333150  0.28142987  1  0  0.098494  0.095006  0  1.029254  0
H  H30  1  0.08583996  0.86666031  0.78143014  1  0  0.098514  0.095114  0  1.02901  0
H  H31  1  0.41419138  0.36667221  0.71855854  1  0  0.098466  0.095115  0  1.029161  0
H  H32  1  0.17759608  0.13453447  0.29644423  1  0  0.096454  0.103336  0  1.005737  0
H  H33  1  0.32241569  0.63454126  0.20355882  1  0  0.096397  0.103257  0  1.005438  0
H  H34  1  0.82241410  0.86546242  0.70355476  1  0  0.096413  0.103324  0  1.005664  0
H  H35  1  0.67756558  0.36547079  0.79643022  1  0  0.096391  0.103212  0  1.005511  0
H  H36  1  0.34535662  0.27027129  0.19543101  1  0  0.097157  0.078316  0  1.013555  0
H  H37  1  0.15462708  0.77026741  0.30458855  1  0  0.097141  0.078351  0  1.013309  0
H  H38  1  0.65462745  0.72973621  0.80457937  1  0  0.097129  0.078352  0  1.013351  0
H  H39  1  0.84534810  0.22973555  0.69542160  1  0  0.09717  0.078306  0  1.013281  0
H  H40  1  0.87394734  0.23500037  0.07533713  1  0  0.099502  0.10099  0  1.029799  0
H  H41  1  0.62607267  0.73501152  0.42465841  1  0  0.099535  0.101011  0  1.029788  0
H  H42  1  0.12608532  0.76499122  0.92464896  1  0  0.099533  0.100904  0  1.029795  0
H  H43  1  0.37395838  0.26498689  0.57533119  1  0  0.099494  0.100955  0  1.029887  0
H  H44  1  0.10125863  0.31709753  0.04186722  1  0  0.093822  0.099717  0  1.003744  0
H  H45  1  0.39880080  0.81711327  0.45813594  1  0  0.093846  0.099661  0  1.003705  0
H  H46  1  0.89876770  0.68289633  0.95813503  1  0  0.093861  0.099742  0  1.003768  0
H  H47  1  0.60123597  0.18289196  0.54186160  1  0  0.093842  0.099682  0  1.003679  0
H  H48  1  0.12131064  0.49752010  0.10447460  1  0  0.085605  0.120835  0  1.022497  0
H  H49  1  0.37874993  0.99751691  0.39556575  1  0  0.085711  0.12097  0  1.021893  0
H  H50  1  0.87869228  0.50249195  0.89555826  1  0  0.085806  0.121107  0  1.022245  0
H  H51  1  0.62127229  0.00245799  0.60446192  1  0  0.085654  0.120926  0  1.022025  0
H  H52  1  0.25748128  0.43688800  0.20759318  1  0  0.093311  0.130646  0  1.041315  0
H  H53  1  0.24257274  0.93689351  0.29239417  1  0  0.093363  0.130661  0  1.041356  0
H  H54  1  0.74251894  0.56308766  0.79242045  1  0  0.093369  0.130681  0  1.041225  0
H  H55  1  0.75744801  0.06311855  0.70760297  1  0  0.093324  0.130691  0  1.04125  0
H  H56  1  0.01081886  0.51985368  0.21769793  1  0  0.096022  0.131822  0  1.035341  0
H  H57  1  0.48925061  0.01985371  0.28232022  1  0  0.096057  0.131878  0  1.035546  0
H  H58  1  0.98918649  0.48012122  0.78234846  1  0  0.096058  0.131911  0  1.03551  0
H  H59  1  0.51077175  0.98015910  0.71771029  1  0  0.096085  0.131888  0  1.035446  0
H  H60  1  0.74677481  0.43479006  0.02196542  1  0  0.086787  0.12144  0  1.023531  0
H  H61  1  0.75329171  0.93478686  0.47802482  1  0  0.086725  0.121271  0  1.023682  0
H  H62  1  0.25324790  0.56521289  0.97803532  1  0  0.086766  0.121343  0  1.02351  0
H  H63  1  0.24671813  0.06519941  0.52196707  1  0  0.086712  0.121283  0  1.023678  0
H  H64  1  0.61110288  0.47928764  0.12399306  1  0  0.091382  0.127204  0  1.034123  0
H  H65  1  0.88894278  0.97929011  0.37601230  1  0  0.091394  0.12708  0  1.034038  0
H  H66  1  0.38890357  0.52070470  0.87600229  1  0  0.09136  0.127033  0  1.034238  0
H  H67  1  0.11105836  0.02071285  0.62398362  1  0  0.091381  0.127119  0  1.033987  0
H  H68  1  0.55617642  0.35306812  0.08176422  1  0  0.094198  0.134316  0  1.016672  0
H  H69  1  0.94385659  0.85307148  0.41823440  1  0  0.094175  0.134177  0  1.016875  0
H  H70  1  0.44384361  0.64693484  0.91821801  1  0  0.094185  0.134196  0  1.016682  0
H  H71  1  0.05616198  0.14692314  0.58175417  1  0  0.094187  0.134259  0  1.01668  0
C  C72  1  0.95559271  0.26426635  0.30877738  1  0  0.081456  0.271259  0  3.777777  0
C  C73  1  0.54439898  0.76428861  0.19123780  1  0  0.081551  0.27139  0  3.777671  0
C  C74  1  0.04441462  0.73571689  0.69123644  1  0  0.081635  0.271359  0  3.777225  0
C  C75  1  0.45558109  0.23573330  0.80876326  1  0  0.081577  0.271683  0  3.776971  0
C  C76  1  0.77288188  0.21562625  0.36917289  1  0  -0.242018  -0.451793  0  3.892856  0
C  C77  1  0.72708109  0.71563088  0.13084426  1  0  -0.241939  -0.451786  0  3.892765  0
C  C78  1  0.22711783  0.78436761  0.63083009  1  0  -0.241963  -0.451918  0  3.89252  0
C  C79  1  0.27288639  0.28437814  0.86915364  1  0  -0.241957  -0.451745  0  3.892906  0
C  C80  1  0.15142233  0.31619672  0.37434531  1  0  -0.232932  -0.439588  0  3.854942  0
C  C81  1  0.34854270  0.81618909  0.12565613  1  0  -0.232963  -0.439739  0  3.854709  0
C  C82  1  0.84857153  0.68381457  0.62564688  1  0  -0.23302  -0.439579  0  3.854912  0
C  C83  1  0.65142273  0.18381235  0.87433605  1  0  -0.233064  -0.439884  0  3.854812  0
C  C84  1  0.06115996  0.18153720  0.24807959  1  0  -0.156505  -0.243168  0  3.863752  0
C  C85  1  0.43884554  0.68155486  0.25193829  1  0  -0.156508  -0.242961  0  3.863965  0
C  C86  1  0.93885015  0.81845666  0.75191798  1  0  -0.156525  -0.243105  0  3.863658  0
C  C87  1  0.56113583  0.31845416  0.74805287  1  0  -0.156488  -0.243223  0  3.864016  0
C  C88  1  0.19542367  0.22326293  0.16658088  1  0  -0.095064  -0.109333  0  3.873618  0
C  C89  1  0.30459346  0.72325793  0.33343448  1  0  -0.095114  -0.109502  0  3.874029  0
C  C90  1  0.80459041  0.77674079  0.83342531  1  0  -0.095122  -0.109582  0  3.873548  0
C  C91  1  0.69540615  0.27674427  0.66656638  1  0  -0.095084  -0.109223  0  3.873808  0
C  C92  1  0.30240261  0.13653234  0.11041342  1  0  0.20595  0.642015  0  4.168901  0
C  C93  1  0.19761688  0.63652092  0.38959625  1  0  0.206094  0.64227  0  4.168602  0
C  C94  1  0.69763624  0.86347365  0.88959056  1  0  0.206156  0.642473  0  4.168379  0
C  C95  1  0.80238094  0.36347066  0.61040456  1  0  0.206172  0.642383  0  4.168296  0
C  C96  1  0.01783057  0.28573341  0.10317417  1  0  -0.161176  -0.250487  0  3.883744  0
C  C97  1  0.48219693  0.78573767  0.39681983  1  0  -0.161235  -0.250327  0  3.883627  0
C  C98  1  0.98219042  0.71425439  0.89682794  1  0  -0.161155  -0.250213  0  3.883267  0
C  C99  1  0.51782533  0.21426907  0.60317167  1  0  -0.161174  -0.250433  0  3.88381  0
C  C100  1  0.90832452  0.37487556  0.15396458  1  0  0.0804  0.270244  0  3.779208  0
C  C101  1  0.59167208  0.87487962  0.34602001  1  0  0.080267  0.269973  0  3.779616  0
C  C102  1  0.09166359  0.62512361  0.84601896  1  0  0.080293  0.270024  0  3.778981  0
C  C103  1  0.40833735  0.12512485  0.65396336  1  0  0.080489  0.27027  0  3.778765  0
C  C104  1  0.08696187  0.46253225  0.17272065  1  0  -0.241658  -0.445495  0  3.855308  0
C  C105  1  0.41304542  0.96254316  0.32728439  1  0  -0.241739  -0.44556  0  3.854938  0
C  C106  1  0.91303298  0.53745706  0.82729214  1  0  -0.241908  -0.445879  0  3.855363  0
C  C107  1  0.58695809  0.03745979  0.67272365  1  0  -0.241729  -0.44571  0  3.854732  0
C  C108  1  0.69041941  0.41318228  0.09193709  1  0  -0.241524  -0.443769  0  3.894622  0
C  C109  1  0.80959944  0.91317712  0.40805511  1  0  -0.241444  -0.443263  0  3.894412  0
C  C110  1  0.30959046  0.58681310  0.90805552  1  0  -0.24141  -0.44333  0  3.894188  0
C  C111  1  0.19040858  0.08682053  0.59193603  1  0  -0.241441  -0.443427  0  3.894292  0
N  N112  1  0.82825943  0.34173915  0.24685256  1  0  -0.112578  0.18557  0  3.4224  0
N  N113  1  0.67177901  0.84174914  0.25314742  1  0  -0.112814  0.185162  0  3.424394  0
N  N114  1  0.17181080  0.65825015  0.75313875  1  0  -0.112728  0.185592  0  3.42447  0
N  N115  1  0.32823815  0.15825230  0.74684892  1  0  -0.112814  0.185345  0  3.422932  0
O  O116  1  0.18873903  0.09659011  0.78726707  1  0  -0.24673  -0.441573  0  1.990906  0
O  O117  1  0.31112986  0.59658088  0.71272132  1  0  -0.246586  -0.441341  0  1.992297  0
O  O118  1  0.81118167  0.90343180  0.21271900  1  0  -0.24673  -0.441453  0  1.991699  0
O  O119  1  0.68869508  0.40339933  0.28726869  1  0  -0.246814  -0.4418  0  1.99029  0
O  O120  1  0.84203177  0.91905933  0.94140197  1  0  -0.492133  -0.724694  0  2.160474  0
O  O121  1  0.65796450  0.41902759  0.55857159  1  0  -0.492198  -0.724799  0  2.16029  0
O  O122  1  0.15800301  0.08096106  0.05859127  1  0  -0.492031  -0.724604  0  2.160572  0
O  O123  1  0.34202768  0.58093064  0.44138581  1  0  -0.492086  -0.724595  0  2.160499  0
O  O124  1  0.47412328  0.87480980  0.88115781  1  0  -0.415232  -0.664034  0  2.164049  0
O  O125  1  0.02587537  0.37481725  0.61886422  1  0  -0.415154  -0.66385  0  2.164254  0
O  O126  1  0.52588648  0.12518785  0.11886954  1  0  -0.415019  -0.663616  0  2.164517  0
O  O127  1  0.97410808  0.62520997  0.38117027  1  0  -0.415206  -0.663821  0  2.164212  0
