# generated using pymatgen
data_CaH14C24(NO2)4
_symmetry_space_group_name_H-M   'P 1'
_cell_length_a   9.40203776
_cell_length_b   9.40389981
_cell_length_c   13.17873761
_cell_angle_alpha   98.29291279
_cell_angle_beta   110.49186247
_cell_angle_gamma   107.91211530
_symmetry_Int_Tables_number   1
_chemical_formula_structural   CaH14C24(NO2)4
_chemical_formula_sum   'Ca2 H28 C48 N8 O16'
_cell_volume   996.23248261
_cell_formula_units_Z   2
loop_
 _symmetry_equiv_pos_site_id
 _symmetry_equiv_pos_as_xyz
  1  'x, y, z'
loop_
 _atom_site_type_symbol
 _atom_site_label
 _atom_site_symmetry_multiplicity
 _atom_site_fract_x
 _atom_site_fract_y
 _atom_site_fract_z
 _atom_site_occupancy
 _atom_site_pbe_bader_spin_density
 _atom_site_pbe_cm5_charge
 _atom_site_pbe_ddec_charge
 _atom_site_pbe_ddec_spin_density
 _atom_site_pbe_ddec_sum_bond_order
 _atom_site_pbe_magmom
Ca  Ca0  1  0.43897283  0.18895463  0.24996791  1  0  0.857157  1.254963  0  1.566051  0
Ca  Ca1  1  0.56102685  0.81104502  0.75003242  1  0  0.857154  1.254986  0  1.56601  0
H  H2  1  0.11310565  0.27031970  0.25263072  1  0  0.116836  0.079969  0  1.057084  0
H  H3  1  0.51787270  0.86044872  0.24745448  1  0  0.117133  0.080156  0  1.056743  0
H  H4  1  0.88689337  0.72968112  0.74736881  1  0  0.116803  0.079909  0  1.057145  0
H  H5  1  0.48212699  0.13955093  0.75254586  1  0  0.117129  0.080155  0  1.056742  0
H  H6  1  0.68450178  0.85309856  0.15932604  1  0  0.112844  0.114474  0  1.014794  0
H  H7  1  0.19379736  0.52522547  0.34066471  1  0  0.112424  0.113779  0  1.015127  0
H  H8  1  0.31549790  0.14690109  0.84067430  1  0  0.112843  0.114484  0  1.014792  0
H  H9  1  0.80620118  0.47477418  0.65933382  1  0  0.112412  0.113789  0  1.015128  0
H  H10  1  0.80873558  0.71078923  0.06815441  1  0  0.111048  0.123272  0  1.02766  0
H  H11  1  0.14275515  0.74065931  0.43191772  1  0  0.111006  0.123655  0  1.026042  0
H  H12  1  0.19126524  0.28921042  0.93184696  1  0  0.111038  0.123288  0  1.027656  0
H  H13  1  0.85724339  0.25934034  0.56808158  1  0  0.111016  0.123662  0  1.026036  0
H  H14  1  0.90219544  0.62524826  0.96072790  1  0  0.112531  0.122601  0  1.010226  0
H  H15  1  0.16422078  0.94156949  0.53902603  1  0  0.112805  0.122284  0  1.008254  0
H  H16  1  0.09780652  0.37475139  0.03927375  1  0  0.11256  0.122648  0  1.010119  0
H  H17  1  0.83578116  0.05843016  0.46097410  1  0  0.112813  0.122299  0  1.008222  0
H  H18  1  0.05868047  0.51002395  0.87930839  1  0  0.112651  0.112677  0  0.999204  0
H  H19  1  0.13086601  0.17960158  0.62060485  1  0  0.112512  0.113078  0  0.997994  0
H  H20  1  0.94132035  0.48997570  0.12069298  1  0  0.112647  0.112669  0  0.99922  0
H  H21  1  0.86913528  0.82039924  0.37939524  1  0  0.112534  0.113108  0  0.997929  0
H  H22  1  0.48061463  0.94075195  0.06116826  1  0  0.124089  0.084718  0  1.041832  0
H  H23  1  0.37981588  0.41939805  0.43873395  1  0  0.124222  0.084713  0  1.041135  0
H  H24  1  0.51938552  0.05924887  0.93883155  1  0  0.124101  0.084733  0  1.041799  0
H  H25  1  0.62018331  0.58060043  0.56126386  1  0  0.124236  0.084715  0  1.041146  0
H  H26  1  0.41446729  0.47093170  0.85217627  1  0  0.296375  0.360394  0  0.99002  0
H  H27  1  0.11899211  0.56242907  0.64787541  1  0  0.296124  0.360244  0  0.990116  0
H  H28  1  0.58553286  0.52906912  0.14782354  1  0  0.296379  0.36041  0  0.989987  0
H  H29  1  0.88100823  0.43756942  0.35212497  1  0  0.296131  0.360304  0  0.99001  0
C  C30  1  0.04289951  0.14603071  0.21301749  1  0  0.05617  0.091174  0  3.961567  0
C  C31  1  0.43317258  0.82988360  0.28704965  1  0  0.055479  0.089074  0  3.961682  0
C  C32  1  0.95709997  0.85397128  0.78698152  1  0  0.056211  0.091291  0  3.961507  0
C  C33  1  0.56682710  0.17011605  0.71295068  1  0  0.055432  0.089023  0  3.961653  0
C  C34  1  0.88770173  0.07555066  0.21242822  1  0  -0.015489  -0.093218  0  3.942413  0
C  C35  1  0.36313762  0.67529472  0.28757020  1  0  -0.015386  -0.092054  0  3.941596  0
C  C36  1  0.11229841  0.92445016  0.78757083  1  0  -0.015488  -0.093208  0  3.94243  0
C  C37  1  0.63685977  0.32470493  0.71242806  1  0  -0.015366  -0.092058  0  3.94163  0
C  C38  1  0.80405690  0.91528537  0.16043956  1  0  -0.056851  -0.02319  0  3.897861  0
C  C39  1  0.25487901  0.64365009  0.33955882  1  0  -0.055959  -0.021576  0  3.897483  0
C  C40  1  0.19594277  0.08471428  0.83955925  1  0  -0.056824  -0.023146  0  3.897846  0
C  C41  1  0.74511839  0.35634956  0.66044019  1  0  -0.055941  -0.021559  0  3.897516  0
C  C42  1  0.87476942  0.83516007  0.10919233  1  0  -0.073162  -0.139871  0  3.890172  0
C  C43  1  0.22605057  0.76561394  0.39084128  1  0  -0.07362  -0.141512  0  3.889368  0
C  C44  1  0.12523026  0.16483959  0.89080725  1  0  -0.073168  -0.139978  0  3.890224  0
C  C45  1  0.77394911  0.23438571  0.60915906  1  0  -0.073608  -0.141495  0  3.889366  0
C  C46  1  0.03017284  0.91590817  0.11332382  1  0  0.126419  0.173167  0  3.983443  0
C  C47  1  0.30269894  0.91684656  0.38669144  1  0  0.127143  0.174126  0  3.981323  0
C  C48  1  0.96982570  0.08409148  0.88667624  1  0  0.126414  0.17321  0  3.983468  0
C  C49  1  0.69730251  0.08315193  0.61330617  1  0  0.127109  0.174105  0  3.981262  0
C  C50  1  0.11306856  0.84099179  0.05923974  1  0  0.131527  0.181305  0  3.968008  0
C  C51  1  0.28162860  0.05378812  0.44058105  1  0  0.131505  0.180821  0  3.966678  0
C  C52  1  0.88693273  0.15900903  0.94076111  1  0  0.131551  0.181355  0  3.967956  0
C  C53  1  0.71837107  0.94621154  0.55941852  1  0  0.131507  0.18084  0  3.96677  0
C  C54  1  0.03213174  0.69031468  0.98427593  1  0  -0.074699  -0.153034  0  3.928953  0
C  C55  1  0.20581225  0.04788857  0.51546116  1  0  -0.07498  -0.151731  0  3.925193  0
C  C56  1  0.96786908  0.30968497  0.01572468  1  0  -0.074742  -0.153127  0  3.928854  0
C  C57  1  0.79418857  0.95211109  0.48453945  1  0  -0.074988  -0.151746  0  3.92515  0
C  C58  1  0.11850086  0.62642881  0.93806778  1  0  -0.059251  -0.038648  0  3.936619  0
C  C59  1  0.18843427  0.18058829  0.56179777  1  0  -0.059123  -0.039303  0  3.933888  0
C  C60  1  0.88150044  0.37357201  0.06193384  1  0  -0.059249  -0.038614  0  3.936565  0
C  C61  1  0.81156654  0.81941136  0.43820208  1  0  -0.059127  -0.039311  0  3.933895  0
C  C62  1  0.28286557  0.71599246  0.96483849  1  0  -0.007529  -0.08539  0  3.962702  0
C  C63  1  0.25138286  0.31815955  0.53508532  1  0  -0.008439  -0.087191  0  3.961607  0
C  C64  1  0.71713639  0.28400720  0.03516316  1  0  -0.007499  -0.085378  0  3.96264  0
C  C65  1  0.74861681  0.68184010  0.46491425  1  0  -0.008436  -0.087183  0  3.961602  0
C  C66  1  0.35262936  0.86695572  0.03735276  1  0  0.067314  0.090677  0  3.938416  0
C  C67  1  0.32980069  0.31527136  0.46254866  1  0  0.068297  0.092781  0  3.936888  0
C  C68  1  0.64737192  0.13304510  0.96264733  1  0  0.067331  0.09075  0  3.938457  0
C  C69  1  0.67019785  0.68472829  0.53744987  1  0  0.068283  0.092761  0  3.936917  0
C  C70  1  0.81842389  0.17540479  0.26427655  1  0  0.216754  0.580966  0  4.226563  0
C  C71  1  0.41095621  0.55408596  0.23562573  1  0  0.21652  0.581909  0  4.225443  0
C  C72  1  0.18157532  0.82459370  0.73572431  1  0  0.216748  0.580926  0  4.226654  0
C  C73  1  0.58904233  0.44591369  0.76437356  1  0  0.216493  0.58191  0  4.225521  0
C  C74  1  0.38290713  0.65811934  0.91667618  1  0  0.243285  0.608164  0  4.131522  0
C  C75  1  0.24172073  0.46640247  0.58324128  1  0  0.243622  0.607357  0  4.129445  0
C  C76  1  0.61709368  0.34188031  0.08332443  1  0  0.243302  0.608154  0  4.131471  0
C  C77  1  0.75828008  0.53359718  0.41675857  1  0  0.243589  0.607322  0  4.129379  0
N  N78  1  0.11464166  0.06972785  0.16775566  1  0  -0.342446  -0.330043  0  3.42159  0
N  N79  1  0.40214761  0.94687824  0.33231495  1  0  -0.342113  -0.328936  0  3.420483  0
N  N80  1  0.88535736  0.93027297  0.83224463  1  0  -0.342455  -0.330085  0  3.421539  0
N  N81  1  0.59785208  0.05312141  0.66768538  1  0  -0.342093  -0.32894  0  3.420267  0
N  N82  1  0.27205401  0.92752793  0.08473194  1  0  -0.335056  -0.31018  0  3.41375  0
N  N83  1  0.34285730  0.18725824  0.41515938  1  0  -0.335661  -0.311846  0  3.415642  0
N  N84  1  0.72794615  0.07247289  0.91526863  1  0  -0.335113  -0.310293  0  3.413788  0
N  N85  1  0.65714238  0.81274141  0.58484096  1  0  -0.33568  -0.311871  0  3.415673  0
O  O86  1  0.91820360  0.31784548  0.31402558  1  0  -0.314956  -0.547333  0  2.271237  0
O  O87  1  0.50363155  0.60412146  0.18588009  1  0  -0.315722  -0.549284  0  2.271765  0
O  O88  1  0.08179676  0.68215301  0.68597632  1  0  -0.314965  -0.547301  0  2.271288  0
O  O89  1  0.49636812  0.39587819  0.81411948  1  0  -0.315651  -0.549209  0  2.271973  0
O  O90  1  0.67242067  0.11576771  0.25402879  1  0  -0.337548  -0.586194  0  2.253373  0
O  O91  1  0.36145753  0.41833559  0.24578683  1  0  -0.336745  -0.585898  0  2.251416  0
O  O92  1  0.32757739  0.88423078  0.74597027  1  0  -0.337537  -0.58618  0  2.253423  0
O  O93  1  0.63854215  0.58166406  0.75421274  1  0  -0.336772  -0.585956  0  2.251351  0
O  O94  1  0.33330664  0.50669758  0.88423718  1  0  -0.312361  -0.482932  0  2.320796  0
O  O95  1  0.12283865  0.44928048  0.61578055  1  0  -0.312253  -0.483023  0  2.319005  0
O  O96  1  0.66669351  0.49330324  0.11576263  1  0  -0.312366  -0.482945  0  2.320748  0
O  O97  1  0.87716102  0.55071918  0.38421827  1  0  -0.312247  -0.483047  0  2.318963  0
O  O98  1  0.50319511  0.75089678  0.90856912  1  0  -0.327102  -0.560637  0  2.242832  0
O  O99  1  0.34251248  0.59476612  0.59122804  1  0  -0.32735  -0.559525  0  2.242281  0
O  O100  1  0.49680504  0.24910404  0.09143070  1  0  -0.327122  -0.560639  0  2.242801  0
O  O101  1  0.65748671  0.40523237  0.40877054  1  0  -0.327323  -0.559488  0  2.242187  0
