# generated using pymatgen
data_HgH3C3S2N2Cl
_symmetry_space_group_name_H-M   'P 1'
_cell_length_a   4.07287512
_cell_length_b   10.18489467
_cell_length_c   17.79841612
_cell_angle_alpha   90.00103748
_cell_angle_beta   90.00072297
_cell_angle_gamma   90.00003930
_symmetry_Int_Tables_number   1
_chemical_formula_structural   HgH3C3S2N2Cl
_chemical_formula_sum   'Hg4 H12 C12 S8 N8 Cl4'
_cell_volume   738.31041017
_cell_formula_units_Z   4
loop_
 _symmetry_equiv_pos_site_id
 _symmetry_equiv_pos_as_xyz
  1  'x, y, z'
loop_
 _atom_site_type_symbol
 _atom_site_label
 _atom_site_symmetry_multiplicity
 _atom_site_fract_x
 _atom_site_fract_y
 _atom_site_fract_z
 _atom_site_occupancy
 _atom_site_pbe_bader_spin_density
 _atom_site_pbe_cm5_charge
 _atom_site_pbe_ddec_charge
 _atom_site_pbe_ddec_spin_density
 _atom_site_pbe_ddec_sum_bond_order
 _atom_site_pbe_magmom
Hg  Hg0  1  0.19512404  0.00502010  0.05539402  1  0  0.484332  0.516039  0  2.565078  0
Hg  Hg1  1  0.80486897  0.50502164  0.94460703  1  0  0.484337  0.516008  0  2.565084  0
Hg  Hg2  1  0.30487277  0.00501911  0.55538530  1  0  0.484358  0.516054  0  2.565386  0
Hg  Hg3  1  0.69512024  0.50502066  0.44461237  1  0  0.484351  0.516009  0  2.565215  0
H  H4  1  0.17599155  0.31073394  0.76655494  1  0  0.089188  0.148661  0  1.021109  0
H  H5  1  0.82399683  0.81072305  0.23344257  1  0  0.089186  0.148664  0  1.021076  0
H  H6  1  0.32397476  0.31074383  0.26656292  1  0  0.089125  0.148533  0  1.021094  0
H  H7  1  0.67603326  0.81073772  0.73343627  1  0  0.089178  0.14862  0  1.021263  0
H  H8  1  0.52376160  0.27901066  0.70987048  1  0  0.081115  0.149327  0  1.032178  0
H  H9  1  0.47623658  0.77901220  0.29012782  1  0  0.081114  0.149337  0  1.032255  0
H  H10  1  0.97626924  0.27901766  0.20987388  1  0  0.081154  0.149343  0  1.032255  0
H  H11  1  0.02374612  0.77902484  0.79012161  1  0  0.081188  0.149359  0  1.032238  0
H  H12  1  0.52503270  0.41475190  0.77415894  1  0  0.079018  0.127749  0  1.077755  0
H  H13  1  0.47495577  0.91475339  0.22584752  1  0  0.079026  0.127789  0  1.077794  0
H  H14  1  0.97494758  0.41477068  0.27416795  1  0  0.079006  0.127775  0  1.077617  0
H  H15  1  0.02506790  0.91475425  0.72583402  1  0  0.079006  0.127677  0  1.077813  0
C  C16  1  0.76312593  0.06136411  0.91248043  1  0  0.09481  0.079202  0  4.186006  0
C  C17  1  0.23684750  0.56135037  0.08752008  1  0  0.094678  0.079077  0  4.186517  0
C  C18  1  0.73681211  0.06137002  0.41247860  1  0  0.094822  0.079188  0  4.186192  0
C  C19  1  0.26318832  0.56135820  0.58751854  1  0  0.094708  0.079153  0  4.186209  0
C  C20  1  0.58193726  0.22980138  0.82617336  1  0  0.126303  0.225868  0  3.956108  0
C  C21  1  0.41806087  0.72980711  0.17382611  1  0  0.126399  0.225912  0  3.955959  0
C  C22  1  0.91805292  0.22980344  0.32617152  1  0  0.126295  0.225857  0  3.955846  0
C  C23  1  0.08196239  0.72981486  0.67382402  1  0  0.126466  0.226032  0  3.955558  0
C  C24  1  0.44512082  0.31322885  0.76552718  1  0  -0.254716  -0.464259  0  3.98342  0
C  C25  1  0.55487984  0.81323556  0.23447485  1  0  -0.254747  -0.464315  0  3.983631  0
C  C26  1  0.05485281  0.31325041  0.26553153  1  0  -0.254746  -0.464188  0  3.983219  0
C  C27  1  0.94512575  0.81325426  0.73447274  1  0  -0.254839  -0.464144  0  3.983554  0
S  S28  1  0.53588135  0.06089344  0.82958394  1  0  0.120849  0.131574  0  2.774926  0
S  S29  1  0.46412399  0.56089025  0.17041994  1  0  0.120721  0.131396  0  2.77463  0
S  S30  1  0.96413341  0.06089749  0.32958618  1  0  0.120768  0.131533  0  2.774534  0
S  S31  1  0.03587930  0.56089504  0.67041939  1  0  0.120698  0.131356  0  2.774298  0
S  S32  1  0.84732357  0.91584399  0.95904312  1  0  -0.116362  -0.178164  0  2.698588  0
S  S33  1  0.15269191  0.41584690  0.04095606  1  0  -0.116269  -0.178038  0  2.698975  0
S  S34  1  0.65264958  0.91584791  0.45903653  1  0  -0.116351  -0.178109  0  2.698794  0
S  S35  1  0.34730698  0.41584396  0.54095927  1  0  -0.116291  -0.178036  0  2.698819  0
N  N36  1  0.85832706  0.18039660  0.93244197  1  0  -0.239498  -0.214206  0  3.356465  0
N  N37  1  0.14169067  0.68038122  0.06756878  1  0  -0.239377  -0.214117  0  3.356912  0
N  N38  1  0.64165141  0.18039659  0.43243928  1  0  -0.239451  -0.214166  0  3.357089  0
N  N39  1  0.35835159  0.68038418  0.56756473  1  0  -0.23943  -0.214131  0  3.356922  0
N  N40  1  0.75364302  0.27416212  0.88337895  1  0  -0.218241  -0.170128  0  3.42236  0
N  N41  1  0.24636497  0.77416796  0.11661706  1  0  -0.218279  -0.170081  0  3.422307  0
N  N42  1  0.74637227  0.27417786  0.38338894  1  0  -0.218171  -0.170111  0  3.422242  0
N  N43  1  0.25366027  0.77417774  0.61660762  1  0  -0.218246  -0.170257  0  3.42221  0
Cl  Cl44  1  0.55567247  0.12381893  0.13553603  1  0  -0.246793  -0.351668  0  1.415807  0
Cl  Cl45  1  0.44434521  0.62381977  0.86446739  1  0  -0.246796  -0.351638  0  1.415799  0
Cl  Cl46  1  0.94434210  0.12382192  0.63552212  1  0  -0.246808  -0.351679  0  1.415837  0
Cl  Cl47  1  0.05564366  0.62382071  0.36447455  1  0  -0.246794  -0.351656  0  1.415813  0
