# generated using pymatgen
data_Cu2H9C14S2N5
_symmetry_space_group_name_H-M   'P 1'
_cell_length_a   8.74460284
_cell_length_b   8.81356717
_cell_length_c   9.16839923
_cell_angle_alpha   81.41463781
_cell_angle_beta   88.73215078
_cell_angle_gamma   83.38814357
_symmetry_Int_Tables_number   1
_chemical_formula_structural   Cu2H9C14S2N5
_chemical_formula_sum   'Cu4 H18 C28 S4 N10'
_cell_volume   694.04518157
_cell_formula_units_Z   2
loop_
 _symmetry_equiv_pos_site_id
 _symmetry_equiv_pos_as_xyz
  1  'x, y, z'
loop_
 _atom_site_type_symbol
 _atom_site_label
 _atom_site_symmetry_multiplicity
 _atom_site_fract_x
 _atom_site_fract_y
 _atom_site_fract_z
 _atom_site_occupancy
 _atom_site_pbe_bader_spin_density
 _atom_site_pbe_cm5_charge
 _atom_site_pbe_ddec_charge
 _atom_site_pbe_ddec_spin_density
 _atom_site_pbe_ddec_sum_bond_order
 _atom_site_pbe_magmom
Cu  Cu0  1  0.34916292  0.31727689  0.67656472  1  0  0.487217  0.392823  0  2.657525  0
Cu  Cu1  1  0.65083552  0.68272218  0.32343206  1  0  0.487228  0.39286  0  2.657577  0
Cu  Cu2  1  0.95409978  0.63260130  0.71758796  1  0  0.487662  0.377174  0  2.66212  0
Cu  Cu3  1  0.04589674  0.36739428  0.28240503  1  0  0.487695  0.377208  0  2.66214  0
H  H4  1  0.52958379  0.63398567  0.00781031  1  0  0.104578  0.121336  0  1.01541  0
H  H5  1  0.47041821  0.36601226  0.99219202  1  0  0.104606  0.121395  0  1.015329  0
H  H6  1  0.25605300  0.63176892  0.09180004  1  0  0.095073  0.100352  0  1.027789  0
H  H7  1  0.74394938  0.36822555  0.90820280  1  0  0.09509  0.100378  0  1.027793  0
H  H8  1  0.06058308  0.84989886  0.00878894  1  0  0.091386  0.092134  0  1.055812  0
H  H9  1  0.93942032  0.15009676  0.99121479  1  0  0.091361  0.092077  0  1.055842  0
H  H10  1  0.12968938  0.08246289  0.83893916  1  0  0.090341  0.096856  0  1.078272  0
H  H11  1  0.87031390  0.91753390  0.16106549  1  0  0.090349  0.096885  0  1.078241  0
H  H12  1  0.52974092  0.20761836  0.44801427  1  0  0.100392  0.108171  0  1.050496  0
H  H13  1  0.47025969  0.79238190  0.55199101  1  0  0.100372  0.108162  0  1.050529  0
H  H14  1  0.72391522  0.32851877  0.28150068  1  0  0.107774  0.078281  0  1.046055  0
H  H15  1  0.27607992  0.67147920  0.71850289  1  0  0.107744  0.078278  0  1.046054  0
H  H16  1  0.07793270  0.14850157  0.57376258  1  0  0.105489  0.081093  0  1.020787  0
H  H17  1  0.92206512  0.85150329  0.42623662  1  0  0.105482  0.081048  0  1.020821  0
H  H18  1  0.89830599  0.02153559  0.75223467  1  0  0.107551  0.116571  0  1.019735  0
H  H19  1  0.10169514  0.97847044  0.24776864  1  0  0.107546  0.116586  0  1.019708  0
H  H20  1  0.71598799  0.82599490  0.81200564  1  0  0.308219  0.276969  0  0.997267  0
H  H21  1  0.28401263  0.17400535  0.18799637  1  0  0.308231  0.276986  0  0.997232  0
C  C22  1  0.58343870  0.03571778  0.71489230  1  0  0.229461  0.308534  0  3.969743  0
C  C23  1  0.41656293  0.96428362  0.28511061  1  0  0.229562  0.308715  0  3.969586  0
C  C24  1  0.47913935  0.85961515  0.87412418  1  0  0.097186  0.157141  0  3.994664  0
C  C25  1  0.52086302  0.14037928  0.12587430  1  0  0.097194  0.157166  0  3.994507  0
C  C26  1  0.44293322  0.72993758  0.97034900  1  0  -0.09238  -0.15939  0  3.958717  0
C  C27  1  0.55706903  0.27005802  0.02965149  1  0  -0.092383  -0.159371  0  3.958652  0
C  C28  1  0.29027049  0.73022929  0.01698098  1  0  -0.095145  -0.071346  0  3.985396  0
C  C29  1  0.70973037  0.26976864  0.98302028  1  0  -0.095206  -0.071457  0  3.985438  0
C  C30  1  0.17861145  0.85578606  0.97032773  1  0  -0.105335  -0.097801  0  4.02912  0
C  C31  1  0.82138941  0.14421187  0.02967462  1  0  -0.105287  -0.097702  0  4.02904  0
C  C32  1  0.21505356  0.98489178  0.87524033  1  0  -0.104598  -0.169498  0  3.997294  0
C  C33  1  0.78494604  0.01510734  0.12476405  1  0  -0.104568  -0.169505  0  3.997263  0
C  C34  1  0.36741236  0.98590439  0.82560130  1  0  0.080467  0.138681  0  4.057864  0
C  C35  1  0.63258850  0.01409356  0.17440323  1  0  0.080429  0.138648  0  4.057826  0
C  C36  1  0.69686749  0.10556272  0.61580993  1  0  0.011248  0.057101  0  3.988601  0
C  C37  1  0.30313390  0.89444100  0.38419481  1  0  0.01123  0.057059  0  3.988645  0
C  C38  1  0.65014244  0.19286970  0.48027860  1  0  -0.079157  -0.133281  0  3.90684  0
C  C39  1  0.34985462  0.80713174  0.51972550  1  0  -0.079131  -0.133258  0  3.906951  0
C  C40  1  0.75820455  0.25982171  0.38677608  1  0  0.038332  0.095894  0  3.929443  0
C  C41  1  0.24179034  0.74017857  0.61322606  1  0  0.038301  0.095791  0  3.929421  0
C  C42  1  0.95529379  0.15961188  0.54944903  1  0  0.035219  0.092037  0  3.949487  0
C  C43  1  0.04470531  0.84039184  0.45055359  1  0  0.035244  0.092108  0  3.949442  0
C  C44  1  0.85429277  0.08817150  0.64906301  1  0  -0.083286  -0.160117  0  3.932818  0
C  C45  1  0.14570608  0.91183454  0.35094036  1  0  -0.083276  -0.160136  0  3.932714  0
C  C46  1  0.12180746  0.36256696  0.95793575  1  0  0.157444  0.294701  0  4.181632  0
C  C47  1  0.87819747  0.63743550  0.04205710  1  0  0.157475  0.294697  0  4.181719  0
C  C48  1  0.38566411  0.48440538  0.35823674  1  0  0.149214  0.283332  0  4.184675  0
C  C49  1  0.61433547  0.51559367  0.64176002  1  0  0.14921  0.283272  0  4.184698  0
S  S50  1  0.11274898  0.39160426  0.77760473  1  0  -0.168054  -0.31032  0  3.249457  0
S  S51  1  0.88724844  0.60839360  0.22238571  1  0  -0.168046  -0.310325  0  3.249528  0
S  S52  1  0.24753918  0.38831891  0.43546644  1  0  -0.196123  -0.34254  0  3.248778  0
S  S53  1  0.75246216  0.61167433  0.56452570  1  0  -0.196119  -0.342493  0  3.248776  0
N  N54  1  0.43545049  0.09414354  0.72710714  1  0  -0.373375  -0.379104  0  3.550673  0
N  N55  1  0.56455127  0.90585673  0.27289920  1  0  -0.373393  -0.379188  0  3.550723  0
N  N56  1  0.61379425  0.89655974  0.80364786  1  0  -0.373905  -0.301546  0  3.595318  0
N  N57  1  0.38620649  0.10343934  0.19635323  1  0  -0.373967  -0.301657  0  3.595087  0
N  N58  1  0.90984299  0.24516405  0.41966154  1  0  -0.364209  -0.230131  0  3.659301  0
N  N59  1  0.09015279  0.75483851  0.58033805  1  0  -0.364191  -0.230068  0  3.659251  0
N  N60  1  0.12297096  0.33870575  0.08879442  1  0  -0.433624  -0.475368  0  3.440265  0
N  N61  1  0.87702710  0.66129675  0.91119750  1  0  -0.433683  -0.475397  0  3.440237  0
N  N62  1  0.49014553  0.55107831  0.31086643  1  0  -0.415084  -0.43877  0  3.387621  0
N  N63  1  0.50985266  0.44892306  0.68913001  1  0  -0.415077  -0.43873  0  3.387551  0
