# generated using pymatgen
data_LiMnH4(C3O4)2
_symmetry_space_group_name_H-M   'P 1'
_cell_length_a   8.57390718
_cell_length_b   9.07373532
_cell_length_c   11.23596551
_cell_angle_alpha   90.00005899
_cell_angle_beta   90.00001300
_cell_angle_gamma   117.06139958
_symmetry_Int_Tables_number   1
_chemical_formula_structural   LiMnH4(C3O4)2
_chemical_formula_sum   'Li4 Mn4 H16 C24 O32'
_cell_volume   778.42848189
_cell_formula_units_Z   4
loop_
 _symmetry_equiv_pos_site_id
 _symmetry_equiv_pos_as_xyz
  1  'x, y, z'
loop_
 _atom_site_type_symbol
 _atom_site_label
 _atom_site_symmetry_multiplicity
 _atom_site_fract_x
 _atom_site_fract_y
 _atom_site_fract_z
 _atom_site_occupancy
 _atom_site_hle17_ddec_charge
 _atom_site_hle17_ddec_spin_density
 _atom_site_hle17_ddec_sum_bond_order
 _atom_site_hle17_magmom
 _atom_site_hse06_10hf_bader_charge
 _atom_site_hse06_10hf_bader_spin_density
 _atom_site_hse06_10hf_ddec_charge
 _atom_site_hse06_10hf_ddec_spin_density
 _atom_site_hse06_10hf_ddec_sum_bond_order
 _atom_site_hse06_10hf_magmom
 _atom_site_hse06_ddec_charge
 _atom_site_hse06_ddec_spin_density
 _atom_site_hse06_ddec_sum_bond_order
 _atom_site_hse06_magmom
 _atom_site_pbe_cm5_charge
 _atom_site_pbe_ddec_charge
 _atom_site_pbe_ddec_spin_density
 _atom_site_pbe_ddec_sum_bond_order
 _atom_site_pbe_magmom
Li  Li0  1  0.07884999  0.97020098  0.67543591  1  0.856896  -0.000618  0.376275  0.0  0.870981  0.000162  0.814065  -0.000383  0.482486  0.0  0.823875  -0.000635  0.46644  0.0  0.491974  0.807101  -6.8e-05  0.493789  0.0
Li  Li1  1  0.92114788  0.52979911  0.17543516  1  0.856911  -0.000618  0.376255  0.0  0.870964  0.000162  0.814058  -0.000383  0.482501  0.0  0.823871  -0.000634  0.466453  0.0  0.491956  0.807091  -6.8e-05  0.493804  0.0
Li  Li2  1  0.92114638  0.02979850  0.32456588  1  0.856898  -0.000618  0.376272  0.0  0.870963  0.000162  0.814058  -0.000383  0.48251  0.0  0.823867  -0.000635  0.466463  0.0  0.491969  0.807092  -6.8e-05  0.493814  0.0
Li  Li3  1  0.07885201  0.47020285  0.82456307  1  0.856897  -0.000618  0.37628  0.0  0.870964  0.000162  0.814055  -0.000382  0.482512  0.0  0.823866  -0.000634  0.466464  0.0  0.491955  0.807085  -6.7e-05  0.493814  0.0
Mn  Mn4  1  0.44659730  0.20631738  0.60486759  1  1.27755  4.79544  1.662056  4.69  1.570009  4.61827  1.124738  4.721146  2.152702  4.553  1.182306  4.762537  2.077678  4.613  0.619935  1.080466  4.677049  2.208357  4.493
Mn  Mn5  1  0.55340374  0.29368236  0.10486610  1  1.277599  4.795433  1.662007  4.69  1.569985  4.618297  1.12476  4.721152  2.152635  4.553  1.182325  4.762542  2.077612  4.613  0.619946  1.080487  4.677061  2.208282  4.493
Mn  Mn6  1  0.55340317  0.79368335  0.39513153  1  1.277609  4.795446  1.662008  4.69  1.570005  4.618277  1.124768  4.721156  2.152636  4.553  1.182336  4.762545  2.077615  4.613  0.619943  1.080499  4.677061  2.20828  4.493
Mn  Mn7  1  0.44659496  0.70631713  0.89513302  1  1.277566  4.795433  1.662043  4.69  1.56998  4.618287  1.1248  4.721138  2.152617  4.553  1.182365  4.762532  2.077593  4.613  0.619949  1.080527  4.677041  2.20828  4.493
H  H8  1  0.71774797  0.35966366  0.74677627  1  0.428108  -0.000223  0.868829  0.001  0.656687  0.000741  0.398399  0.000419  0.934969  0.001  0.408886  0.00022  0.919742  0.001  0.30157  0.390984  0.000596  0.945681  0.002
H  H9  1  0.28225148  0.14033509  0.24677638  1  0.428099  -0.000222  0.868835  0.001  0.656685  0.000741  0.398391  0.000419  0.934976  0.001  0.408878  0.000219  0.91975  0.001  0.301575  0.390974  0.000596  0.945692  0.002
H  H10  1  0.28225074  0.64033583  0.25322196  1  0.428104  -0.000223  0.868799  0.001  0.656659  0.000741  0.398401  0.000419  0.93495  0.001  0.408887  0.000219  0.919725  0.001  0.301583  0.390983  0.000596  0.945669  0.002
H  H11  1  0.71774663  0.85966316  0.75322363  1  0.428133  -0.000221  0.868797  0.001  0.656781  0.000741  0.398422  0.000419  0.934935  0.001  0.40891  0.000219  0.919708  0.001  0.301581  0.391008  0.000596  0.945647  0.002
H  H12  1  0.60809757  0.45187841  0.77926216  1  0.439185  -0.000531  0.834538  0.001  0.661468  0.001496  0.411927  0.000177  0.901841  0.002  0.422152  -0.000122  0.887023  0.002  0.312732  0.404537  0.000464  0.911283  0.002
H  H13  1  0.39190369  0.04812411  0.27926222  1  0.439184  -0.00053  0.834536  0.001  0.661419  0.001496  0.411916  0.000177  0.901857  0.002  0.422142  -0.000122  0.887036  0.002  0.312715  0.404529  0.000464  0.911288  0.002
H  H14  1  0.39190232  0.54812355  0.22073519  1  0.439164  -0.000534  0.834636  0.001  0.661449  0.001496  0.411902  0.000177  0.901888  0.002  0.422127  -0.000122  0.887072  0.002  0.312727  0.404512  0.000464  0.911376  0.002
H  H15  1  0.60809855  0.95188033  0.72074047  1  0.43923  -0.000532  0.834484  0.001  0.661503  0.001496  0.411971  0.000177  0.901781  0.002  0.422197  -0.000122  0.886959  0.002  0.312751  0.40458  0.000464  0.911236  0.002
H  H16  1  0.77638139  0.72999396  0.60911046  1  0.45017  -0.000725  0.825092  0.0  0.662263  8.7e-05  0.419569  -0.000763  0.894128  0.0  0.428977  -0.000788  0.880362  0.0  0.318089  0.412878  -0.000716  0.90397  0.0
H  H17  1  0.22361526  0.77000848  0.10910889  1  0.450178  -0.000725  0.825062  0.0  0.662257  8.7e-05  0.41958  -0.000763  0.894109  0.0  0.428988  -0.000789  0.880342  0.0  0.31808  0.41289  -0.000716  0.903949  0.0
H  H18  1  0.22361616  0.27000799  0.39089044  1  0.450154  -0.000723  0.825112  0.0  0.662267  8.7e-05  0.419554  -0.000763  0.894151  0.0  0.428962  -0.000789  0.880384  0.0  0.318085  0.412864  -0.000716  0.903991  0.0
H  H19  1  0.77638171  0.22999224  0.89088934  1  0.450191  -0.000731  0.825073  0.0  0.662268  8.7e-05  0.41958  -0.000763  0.894116  0.0  0.428988  -0.000788  0.880349  0.0  0.318092  0.412887  -0.000716  0.90396  0.0
H  H20  1  0.85595720  0.69218786  0.72563716  1  0.437744  -0.000157  0.849791  0.0  0.65641  0.000311  0.404766  -7.5e-05  0.922899  0.0  0.414477  -0.000153  0.908669  0.0  0.309091  0.39795  1.2e-05  0.932874  0.0
H  H21  1  0.14404130  0.80781108  0.22563738  1  0.437724  -0.000154  0.849831  0.0  0.656422  0.000311  0.404744  -7.4e-05  0.922933  0.0  0.414454  -0.000153  0.908704  0.0  0.309084  0.397926  1.2e-05  0.932911  0.0
H  H22  1  0.14404033  0.30781162  0.27436285  1  0.437718  -0.000153  0.849837  0.0  0.656338  0.000311  0.404736  -7.4e-05  0.922945  0.0  0.414447  -0.000153  0.908715  0.0  0.309082  0.397918  1.2e-05  0.932924  0.0
H  H23  1  0.85595916  0.19218965  0.77436174  1  0.43774  -0.000157  0.849818  0.0  0.656437  0.000311  0.404761  -7.4e-05  0.922912  0.0  0.414472  -0.000153  0.908682  0.0  0.309089  0.397942  1.2e-05  0.932891  0.0
C  C24  1  0.11394865  0.27293711  0.60352992  1  0.666933  0.003279  3.917565  0.004  1.636535  0.007646  0.612049  0.006775  4.223243  0.006  0.646604  0.004776  4.213206  0.005  0.233052  0.588373  0.009153  4.229353  0.008
C  C25  1  0.88605182  0.22706386  0.10352755  1  0.666918  0.003264  3.917519  0.004  1.636558  0.007646  0.611941  0.006775  4.223314  0.006  0.646495  0.004774  4.213277  0.005  0.233013  0.588267  0.009153  4.229424  0.008
C  C26  1  0.88605358  0.72706486  0.39647187  1  0.666943  0.003279  3.917618  0.004  1.636548  0.007646  0.612027  0.006775  4.223323  0.006  0.646584  0.004776  4.213282  0.005  0.233052  0.58835  0.009154  4.229435  0.008
C  C27  1  0.11394806  0.77293563  0.89647246  1  0.666912  0.003274  3.917545  0.004  1.63657  0.007646  0.611944  0.006775  4.223344  0.006  0.646498  0.004773  4.213308  0.005  0.233021  0.588269  0.009153  4.229453  0.008
C  C28  1  0.04931749  0.39072963  0.55655759  1  -0.083076  0.000912  3.707639  0.001  0.016793  0.004007  -0.082225  0.002567  3.956343  0.002  -0.083997  0.0013  3.97103  0.001  0.003112  -0.082397  0.005832  3.948501  0.004
C  C29  1  0.95068702  0.10927250  0.05655513  1  -0.083093  0.000962  3.70764  0.001  0.016882  0.004004  -0.082195  0.002564  3.956316  0.002  -0.083955  0.001301  3.971017  0.001  0.003069  -0.082369  0.005832  3.948478  0.004
C  C30  1  0.95068474  0.60927233  0.44344687  1  -0.083195  0.000999  3.707797  0.001  0.016724  0.004004  -0.082269  0.002564  3.956396  0.002  -0.084014  0.001305  3.971107  0.001  0.003103  -0.082439  0.005832  3.948558  0.004
C  C31  1  0.04931342  0.89072576  0.94344310  1  -0.083144  0.000949  3.707692  0.001  0.016856  0.004004  -0.082201  0.002564  3.956366  0.002  -0.083972  0.001305  3.971055  0.001  0.003045  -0.082383  0.005831  3.948542  0.004
C  C32  1  0.88092288  0.32871919  0.50729084  1  -0.064979  0.001619  3.671496  0.001  -0.02097  0.005567  -0.061984  0.003915  3.916348  0.003  -0.063062  0.002449  3.930888  0.002  0.011659  -0.062261  0.007282  3.908079  0.006
C  C33  1  0.11907866  0.17128408  0.00728650  1  -0.065126  0.001579  3.671628  0.001  -0.020589  0.00557  -0.062137  0.003918  3.916386  0.003  -0.063249  0.002447  3.930967  0.002  0.011597  -0.062415  0.007281  3.908114  0.006
C  C34  1  0.11907819  0.67128524  0.49271451  1  -0.065115  0.001553  3.671771  0.001  -0.020759  0.005569  -0.062085  0.003916  3.91644  0.003  -0.063245  0.002447  3.931084  0.002  0.0116  -0.062363  0.007282  3.908166  0.006
C  C35  1  0.88092004  0.82871541  0.99270995  1  -0.065061  0.001587  3.67165  0.001  -0.020623  0.00557  -0.062156  0.003918  3.916529  0.003  -0.063235  0.002445  3.931068  0.002  0.011607  -0.062435  0.007282  3.908259  0.006
C  C36  1  0.75309456  0.14637962  0.51855370  1  0.716926  0.009666  3.841034  0.01  1.641327  0.017181  0.660648  0.016324  4.141151  0.015  0.696377  0.011999  4.131361  0.011  0.246743  0.635734  0.020979  4.147482  0.019
C  C37  1  0.24690581  0.35362119  0.01854953  1  0.716961  0.009646  3.841039  0.01  1.641232  0.017179  0.660733  0.016321  4.141041  0.015  0.696468  0.012  4.131256  0.011  0.246763  0.635826  0.020977  4.147363  0.019
C  C38  1  0.24690593  0.85362358  0.48145165  1  0.717093  0.009662  3.840929  0.01  1.641248  0.017181  0.660819  0.016323  4.140973  0.015  0.696566  0.012  4.131189  0.011  0.24683  0.635911  0.020979  4.147298  0.019
C  C39  1  0.75309230  0.64637706  0.98144781  1  0.716871  0.009639  3.841332  0.01  1.641282  0.017178  0.660674  0.016321  4.141331  0.015  0.696404  0.011999  4.13154  0.011  0.246754  0.635758  0.020976  4.147657  0.019
C  C40  1  0.16577263  0.56072760  0.55140635  1  -0.069606  0.002833  3.698931  0.003  -0.001508  0.006809  -0.071029  0.004797  3.949117  0.004  -0.072602  0.003196  3.963752  0.003  0.00947  -0.070279  0.005551  3.941206  0.004
C  C41  1  0.83422803  0.93927351  0.05140592  1  -0.069633  0.002815  3.698792  0.003  -0.001849  0.006808  -0.071047  0.004795  3.949091  0.004  -0.072651  0.003195  3.963704  0.003  0.009496  -0.070298  0.005551  3.941187  0.004
C  C42  1  0.83422959  0.43927437  0.44859455  1  -0.069611  0.002767  3.698855  0.003  -0.001285  0.00681  -0.071092  0.004797  3.949203  0.004  -0.072692  0.003191  3.963815  0.003  0.009441  -0.070348  0.005551  3.941302  0.004
C  C43  1  0.16577068  0.06072598  0.94859231  1  -0.069531  0.00282  3.698815  0.003  -0.001889  0.006811  -0.071001  0.004798  3.949018  0.004  -0.072589  0.003193  3.963645  0.003  0.009533  -0.070254  0.005551  3.94111  0.004
C  C44  1  0.33231648  0.62423339  0.62251822  1  0.706662  0.006351  3.858295  0.007  1.65314  0.013191  0.653606  0.012224  4.155032  0.012  0.688609  0.009004  4.146303  0.01  0.241109  0.628951  0.015499  4.161036  0.015
C  C45  1  0.66768658  0.87576538  0.12251771  1  0.706879  0.006339  3.858164  0.007  1.653149  0.013193  0.653767  0.012225  4.155018  0.012  0.688783  0.009006  4.146265  0.01  0.241176  0.629103  0.015498  4.161032  0.015
C  C46  1  0.66768806  0.37576611  0.37748357  1  0.706767  0.006351  3.858123  0.007  1.652945  0.013192  0.653652  0.012224  4.154997  0.012  0.688655  0.009006  4.146265  0.01  0.241117  0.628993  0.015498  4.161006  0.015
C  C47  1  0.33231268  0.12423040  0.87748052  1  0.706615  0.006328  3.858442  0.007  1.653009  0.013191  0.653673  0.012223  4.155026  0.012  0.688668  0.009004  4.146308  0.01  0.241146  0.629016  0.015498  4.16103  0.015
O  O48  1  0.01681700  0.15409421  0.67009824  1  -0.680014  0.001704  1.973146  0.003  -1.236525  0.006989  -0.629307  0.004307  2.206289  0.005  -0.651827  0.002982  2.195727  0.004  -0.352138  -0.613455  0.005867  2.212998  0.007
O  O49  1  0.98318120  0.34590687  0.17009687  1  -0.679984  0.001702  1.973152  0.003  -1.236496  0.006989  -0.629264  0.004307  2.206359  0.005  -0.651785  0.002981  2.195798  0.004  -0.352091  -0.61342  0.005866  2.213074  0.007
O  O50  1  0.98318405  0.84590776  0.32990444  1  -0.679983  0.001702  1.973209  0.003  -1.236519  0.006989  -0.629274  0.004307  2.206362  0.005  -0.651791  0.002982  2.195797  0.004  -0.352117  -0.613427  0.005867  2.213074  0.007
O  O51  1  0.01682219  0.65409510  0.82990136  1  -0.679993  0.001702  1.97316  0.003  -1.236502  0.006988  -0.629282  0.004306  2.206397  0.005  -0.651804  0.002982  2.195837  0.004  -0.352118  -0.613431  0.005866  2.213103  0.007
O  O52  1  0.26511032  0.30006362  0.56479807  1  -0.659688  0.031587  2.062438  0.018  -1.227155  0.052187  -0.588949  0.03716  2.321301  0.02  -0.618961  0.033479  2.306396  0.017  -0.290627  -0.56635  0.040198  2.33148  0.022
O  O53  1  0.73488892  0.19993480  0.06479387  1  -0.659741  0.031602  2.062449  0.018  -1.227149  0.052176  -0.58889  0.03716  2.321262  0.02  -0.618898  0.03348  2.306357  0.017  -0.290642  -0.566286  0.040199  2.331432  0.022
O  O54  1  0.73489074  0.69993834  0.43520461  1  -0.659702  0.031588  2.062406  0.018  -1.227151  0.052186  -0.588953  0.037159  2.321272  0.02  -0.618964  0.033478  2.306367  0.017  -0.290664  -0.566348  0.040198  2.33144  0.022
O  O55  1  0.26510803  0.80006345  0.93520703  1  -0.659684  0.031593  2.062465  0.018  -1.22714  0.052178  -0.588927  0.037161  2.321376  0.02  -0.618934  0.03348  2.306468  0.017  -0.290645  -0.566325  0.0402  2.331553  0.022
O  O56  1  0.77220788  0.04435919  0.45044291  1  -0.693149  0.027568  2.036739  0.018  -1.242075  0.050226  -0.639375  0.037401  2.303346  0.026  -0.665319  0.032985  2.287321  0.022  -0.348651  -0.620226  0.041093  2.314411  0.029
O  O57  1  0.22779183  0.45564486  0.95044189  1  -0.693107  0.02758  2.03666  0.018  -1.242123  0.050228  -0.639377  0.037401  2.303254  0.026  -0.66532  0.032986  2.287228  0.022  -0.348635  -0.620224  0.041093  2.314308  0.029
O  O58  1  0.22779205  0.95564772  0.54955799  1  -0.693083  0.027578  2.036664  0.018  -1.242176  0.050227  -0.639358  0.0374  2.303293  0.026  -0.665297  0.032984  2.287259  0.022  -0.348625  -0.620206  0.041092  2.314351  0.029
O  O59  1  0.77220631  0.54435833  0.04955723  1  -0.693102  0.027583  2.036927  0.018  -1.242104  0.050226  -0.63935  0.037401  2.303507  0.026  -0.665296  0.032986  2.287483  0.022  -0.348638  -0.620195  0.041094  2.314561  0.029
O  O60  1  0.63269443  0.10652158  0.59632803  1  -0.66176  0.027176  2.061764  0.014  -1.209625  0.049263  -0.593907  0.034627  2.321319  0.018  -0.623975  0.030668  2.306869  0.015  -0.292108  -0.572154  0.038812  2.330911  0.022
O  O61  1  0.36730601  0.39347690  0.09632214  1  -0.661779  0.02718  2.06179  0.014  -1.209476  0.049261  -0.59388  0.034625  2.321227  0.018  -0.623956  0.030665  2.306794  0.015  -0.292099  -0.572149  0.03881  2.330842  0.022
O  O62  1  0.36730718  0.89347668  0.40367910  1  -0.661922  0.027172  2.061738  0.014  -1.209459  0.049263  -0.59398  0.034628  2.321158  0.018  -0.624069  0.030667  2.306747  0.015  -0.292164  -0.572249  0.038812  2.330772  0.022
O  O63  1  0.63269209  0.60651887  0.90367432  1  -0.661714  0.02718  2.061776  0.014  -1.209546  0.049261  -0.593886  0.034626  2.321282  0.018  -0.623952  0.030665  2.306824  0.015  -0.292102  -0.57214  0.03881  2.33088  0.022
O  O64  1  0.30985187  0.58284608  0.73274015  1  -0.724943  0.030602  2.061362  0.018  -1.248558  0.052293  -0.664706  0.038836  2.330211  0.022  -0.693796  0.03479  2.31467  0.019  -0.348864  -0.643501  0.042916  2.341023  0.025
O  O65  1  0.69015075  0.91715413  0.23274056  1  -0.725035  0.030605  2.061267  0.018  -1.24858  0.052296  -0.664765  0.038839  2.330151  0.022  -0.693858  0.034793  2.314599  0.019  -0.348909  -0.643559  0.042918  2.340963  0.025
O  O66  1  0.69014977  0.41715465  0.26726076  1  -0.725048  0.030608  2.061236  0.018  -1.248547  0.052293  -0.664771  0.038838  2.330126  0.022  -0.693863  0.034793  2.314581  0.019  -0.348911  -0.643568  0.042916  2.340942  0.025
O  O67  1  0.30984503  0.08284412  0.76725589  1  -0.724963  0.030607  2.061303  0.018  -1.248493  0.052293  -0.664731  0.038837  2.330079  0.022  -0.693822  0.03479  2.314543  0.019  -0.348922  -0.643529  0.042916  2.340894  0.025
O  O68  1  0.47778405  0.71568658  0.57525753  1  -0.620618  0.032528  2.058963  0.022  -1.220994  0.057024  -0.555486  0.040157  2.317829  0.026  -0.58387  0.035599  2.303569  0.022  -0.283858  -0.534792  0.044759  2.327579  0.031
O  O69  1  0.52222064  0.78430346  0.07525781  1  -0.620716  0.032531  2.05902  0.022  -1.220963  0.057025  -0.555605  0.04016  2.317953  0.026  -0.583994  0.035601  2.303682  0.022  -0.283907  -0.534907  0.044763  2.327708  0.031
O  O70  1  0.52222103  0.28430674  0.42474248  1  -0.620604  0.03252  2.058969  0.022  -1.220948  0.057025  -0.555472  0.040159  2.317893  0.026  -0.583852  0.035598  2.303627  0.022  -0.283835  -0.534776  0.04476  2.32764  0.031
O  O71  1  0.47778146  0.21568121  0.92473864  1  -0.620532  0.032532  2.059072  0.022  -1.220925  0.057029  -0.555499  0.040157  2.317949  0.026  -0.583872  0.035598  2.303684  0.022  -0.283837  -0.534806  0.04476  2.327695  0.031
O  O72  1  0.64480471  0.40780912  0.71026318  1  -0.835068  0.031537  1.872225  0.019  -1.30743  0.055335  -0.774978  0.040651  2.085519  0.024  -0.799205  0.036242  2.050718  0.021  -0.558868  -0.75634  0.044666  2.108642  0.028
O  O73  1  0.35519295  0.09219079  0.21026326  1  -0.835037  0.031533  1.872194  0.019  -1.30737  0.055331  -0.774965  0.04065  2.085522  0.024  -0.799189  0.036241  2.050721  0.021  -0.558864  -0.756327  0.044664  2.10864  0.028
O  O74  1  0.35519342  0.59219160  0.28973417  1  -0.835015  0.031539  1.872257  0.019  -1.307377  0.055334  -0.774942  0.04065  2.085544  0.024  -0.799166  0.036241  2.050743  0.021  -0.558881  -0.7563  0.044665  2.108711  0.028
O  O75  1  0.64480458  0.90780869  0.78973853  1  -0.835112  0.031534  1.872139  0.019  -1.307513  0.055332  -0.775038  0.040651  2.085428  0.024  -0.799263  0.036242  2.050626  0.021  -0.558887  -0.756401  0.044665  2.108565  0.028
O  O76  1  0.84664579  0.78132456  0.68069223  1  -0.887252  -0.000523  1.863201  0.0  -1.3109  0.001206  -0.837787  -0.000266  2.053448  0.001  -0.855584  -0.00053  2.022998  0.0  -0.623368  -0.825165  5.1e-05  2.074641  0.001
O  O77  1  0.15335386  0.71867678  0.18069239  1  -0.887243  -0.000526  1.863205  0.0  -1.310909  0.001206  -0.837778  -0.000266  2.053456  0.001  -0.855576  -0.00053  2.023012  0.0  -0.623359  -0.825155  5.1e-05  2.074647  0.001
O  O78  1  0.15335234  0.21867616  0.31930778  1  -0.887208  -0.00053  1.863225  0.0  -1.31082  0.001207  -0.837752  -0.000266  2.053481  0.001  -0.855545  -0.00053  2.023027  0.0  -0.623359  -0.82513  5.1e-05  2.074672  0.001
O  O79  1  0.84664720  0.28132519  0.81930673  1  -0.887265  -0.000516  1.863216  0.0  -1.310938  0.001206  -0.837798  -0.000267  2.053456  0.001  -0.855596  -0.000531  2.023007  0.0  -0.623369  -0.825176  5.1e-05  2.074648  0.001
