# generated using pymatgen
data_TbH8(C3O5)2
_symmetry_space_group_name_H-M   'P 1'
_cell_length_a   6.02486183
_cell_length_b   7.38000295
_cell_length_c   13.08642997
_cell_angle_alpha   105.40962659
_cell_angle_beta   101.95978102
_cell_angle_gamma   90.02215036
_symmetry_Int_Tables_number   1
_chemical_formula_structural   TbH8(C3O5)2
_chemical_formula_sum   'Tb2 H16 C12 O20'
_cell_volume   547.82504198
_cell_formula_units_Z   2
loop_
 _symmetry_equiv_pos_site_id
 _symmetry_equiv_pos_as_xyz
  1  'x, y, z'
loop_
 _atom_site_type_symbol
 _atom_site_label
 _atom_site_symmetry_multiplicity
 _atom_site_fract_x
 _atom_site_fract_y
 _atom_site_fract_z
 _atom_site_occupancy
 _atom_site_pbe_bader_charge
 _atom_site_pbe_bader_spin_density
 _atom_site_pbe_cm5_charge
 _atom_site_pbe_ddec_charge
 _atom_site_pbe_ddec_spin_density
 _atom_site_pbe_ddec_sum_bond_order
 _atom_site_pbe_magmom
Tb  Tb0  1  0.01193242  0.82534439  0.68164021  1  2.169338  0  1.493434  2.006618  0  2.16173  0
Tb  Tb1  1  0.98881564  0.15363385  0.31269279  1  2.170989  0  1.493369  2.005633  0  2.167582  0
H  H2  1  0.37667013  0.96481627  0.06127680  1  0.052517  0  0.108795  0.054337  0  1.000762  0
H  H3  1  0.62316341  0.90181805  0.93608995  1  0.073857  0  0.109798  0.057977  0  0.995518  0
H  H4  1  0.49778026  0.31974962  0.56552516  1  0.115872  0  0.132446  0.114132  0  0.937946  0
H  H5  1  0.46874862  0.30569256  0.73838161  1  0.112845  0  0.132993  0.108067  0  0.944845  0
H  H6  1  0.50508637  0.75668955  0.42984828  1  0.094456  0  0.132537  0.114088  0  0.938868  0
H  H7  1  0.53222627  0.58538545  0.25642595  1  0.109143  0  0.133256  0.108094  0  0.938262  0
H  H8  1  0.18975785  0.24849352  0.08029501  1  0.627432  0  0.297989  0.350464  0  0.974673  0
H  H9  1  0.79720743  0.15964359  0.90562068  1  0.632371  0  0.299029  0.351242  0  0.971716  0
H  H10  1  0.19184955  0.99299157  0.48568261  1  0.646605  0  0.304888  0.344347  0  1.006338  0
H  H11  1  0.15538826  0.21041342  0.77243852  1  0.641954  0  0.33445  0.386981  0  0.884566  0
H  H12  1  0.81172621  0.50318284  0.50767924  1  0.647847  0  0.304365  0.343569  0  1.008996  0
H  H13  1  0.84020390  0.44824220  0.21912148  1  0.664766  0  0.333399  0.385586  0  0.886771  0
H  H14  1  0.76573894  0.65752587  0.81805787  1  0.622558  0  0.339238  0.428838  0  0.850444  0
H  H15  1  0.59118915  0.71823294  0.72381107  1  0.664522  0  0.307677  0.408963  0  0.92347  0
H  H16  1  0.23396707  0.85821595  0.17751534  1  0.629475  0  0.336173  0.423634  0  0.859642  0
H  H17  1  0.41036081  0.00857435  0.27078299  1  0.670129  0  0.307142  0.407897  0  0.925436  0
C  C18  1  0.20276430  0.97069725  0.90428981  1  1.549963  0  0.187979  0.543194  0  4.200709  0
C  C19  1  0.37701892  0.06072098  0.00914087  1  0.508211  0  -0.000162  0.064581  0  3.905748  0
C  C20  1  0.61650621  0.04945585  0.98327850  1  0.501846  0  -0.000464  0.062912  0  3.903446  0
C  C21  1  0.79150878  0.07312136  0.08967545  1  1.532863  0  0.187573  0.545506  0  4.198218  0
C  C22  1  0.15093381  0.38621152  0.56730721  1  1.599734  0  0.243546  0.636502  0  4.098388  0
C  C23  1  0.33929848  0.24691263  0.56654032  1  0.469406  0  0.00786  0.045969  0  3.842967  0
C  C24  1  0.37176597  0.18927142  0.67344042  1  0.445281  0  0.009604  0.037995  0  3.841372  0
C  C25  1  0.50652918  0.01282764  0.67201655  1  1.609144  0  0.233667  0.618569  0  4.142542  0
C  C26  1  0.85177173  0.82193583  0.42826728  1  1.590968  0  0.24147  0.63388  0  4.108483  0
C  C27  1  0.66317713  0.68263009  0.42804325  1  0.496868  0  0.008778  0.046443  0  3.844734  0
C  C28  1  0.62916112  0.52673542  0.31994094  1  0.437143  0  0.009305  0.038373  0  3.835642  0
C  C29  1  0.49346810  0.35121267  0.32028919  1  1.605714  0  0.231708  0.616711  0  4.14461  0
O  O30  1  0.21703296  0.79803161  0.85808211  1  -1.181538  0  -0.381387  -0.609474  0  2.182017  0
O  O31  1  0.05152905  0.06851002  0.86233833  1  -1.204628  0  -0.362584  -0.644285  0  2.282752  0
O  O32  1  0.34096973  0.24753587  0.06205761  1  -1.134489  0  -0.406776  -0.481263  0  2.235793  0
O  O33  1  0.64620345  0.17795967  0.92389108  1  -1.146293  0  -0.405923  -0.48171  0  2.238425  0
O  O34  1  0.78616659  0.94811398  0.13967209  1  -1.175698  0  -0.381339  -0.610175  0  2.188723  0
O  O35  1  0.93473407  0.21665926  0.12881367  1  -1.200109  0  -0.363461  -0.644772  0  2.271606  0
O  O36  1  0.17368522  0.53371372  0.64393998  1  -1.198868  0  -0.380143  -0.6085  0  2.300532  0
O  O37  1  0.97750118  0.34131650  0.48788745  1  -1.174412  0  -0.3779  -0.62942  0  2.355206  0
O  O38  1  0.28489364  0.09406391  0.47054570  1  -1.168775  0  -0.423079  -0.548255  0  2.373424  0
O  O39  1  0.15297976  0.15815913  0.69490515  1  -1.137618  0  -0.417932  -0.538701  0  2.403027  0
O  O40  1  0.40637750  0.87266511  0.68698740  1  -1.182826  0  -0.369026  -0.633449  0  2.370583  0
O  O41  1  0.70656785  0.01738223  0.65768797  1  -1.192594  0  -0.388313  -0.620019  0  2.293319  0
O  O42  1  0.02730268  0.84788592  0.50638677  1  -1.184329  0  -0.376874  -0.627289  0  2.349177  0
O  O43  1  0.82686061  0.90129583  0.35335272  1  -1.178869  0  -0.379701  -0.607759  0  2.313574  0
O  O44  1  0.71726112  0.61763481  0.52314202  1  -1.17206  0  -0.423805  -0.549656  0  2.373138  0
O  O45  1  0.84719795  0.47547423  0.29743017  1  -1.157864  0  -0.414096  -0.535253  0  2.390723  0
O  O46  1  0.59444478  0.19733847  0.30598716  1  -1.183852  0  -0.368499  -0.633212  0  2.372017  0
O  O47  1  0.29263419  0.36834080  0.33353582  1  -1.190174  0  -0.385724  -0.618199  0  2.291155  0
O  O48  1  0.74184500  0.66315848  0.74328299  1  -1.257845  0  -0.627285  -0.836784  0  2.040888  0
O  O49  1  0.25987748  0.93496569  0.25219699  1  -1.270978  0  -0.627996  -0.832927  0  2.055939  0
