# generated using pymatgen
data_CdH11C7(NO2)3
_symmetry_space_group_name_H-M   'P 1'
_cell_length_a   7.56345315
_cell_length_b   7.99945778
_cell_length_c   10.27479633
_cell_angle_alpha   75.36929890
_cell_angle_beta   79.49092066
_cell_angle_gamma   67.74733171
_symmetry_Int_Tables_number   1
_chemical_formula_structural   CdH11C7(NO2)3
_chemical_formula_sum   'Cd2 H22 C14 N6 O12'
_cell_volume   554.08756169
_cell_formula_units_Z   2
loop_
 _symmetry_equiv_pos_site_id
 _symmetry_equiv_pos_as_xyz
  1  'x, y, z'
loop_
 _atom_site_type_symbol
 _atom_site_label
 _atom_site_symmetry_multiplicity
 _atom_site_fract_x
 _atom_site_fract_y
 _atom_site_fract_z
 _atom_site_occupancy
 _atom_site_hle17_bader_spin_density
 _atom_site_hle17_ddec_charge
 _atom_site_hle17_ddec_spin_density
 _atom_site_hle17_ddec_sum_bond_order
 _atom_site_hle17_magmom
 _atom_site_hse06_10hf_bader_spin_density
 _atom_site_hse06_10hf_ddec_charge
 _atom_site_hse06_10hf_ddec_spin_density
 _atom_site_hse06_10hf_ddec_sum_bond_order
 _atom_site_hse06_10hf_magmom
 _atom_site_hse06_bader_spin_density
 _atom_site_hse06_ddec_charge
 _atom_site_hse06_ddec_spin_density
 _atom_site_hse06_ddec_sum_bond_order
 _atom_site_hse06_magmom
 _atom_site_pbe_bader_spin_density
 _atom_site_pbe_cm5_charge
 _atom_site_pbe_ddec_charge
 _atom_site_pbe_ddec_spin_density
 _atom_site_pbe_ddec_sum_bond_order
 _atom_site_pbe_magmom
Cd  Cd0  1  0.22708364  0.34829199  0.09712734  1  0  1.194812  0  1.63952  0  0  1.005868  0  2.087903  0  0  1.063128  0  2.032295  0  0  0.784554  0.964742  0  2.126125  0
Cd  Cd1  1  0.77291648  0.65170837  0.90287388  1  0  1.194854  0  1.639461  0  0  1.005928  0  2.087813  0  0  1.063188  0  2.032205  0  0  0.784573  0.964801  0  2.126038  0
H  H2  1  0.97252125  0.03264834  0.84971252  1  0  0.108374  0  0.931997  0  0  0.121259  0  0.997786  0  0  0.12363  0  0.996615  0  0  0.103778  0.119885  0  0.998129  0
H  H3  1  0.02750043  0.96735195  0.15028517  1  0  0.108365  0  0.931806  0  0  0.121199  0  0.99772  0  0  0.12357  0  0.996534  0  0  0.103729  0.119823  0  0.998069  0
H  H4  1  0.79036318  0.03258523  0.98160641  1  0  0.109244  0  0.936729  0  0  0.123522  0  0.998558  0  0  0.125461  0  0.998081  0  0  0.102751  0.12203  0  0.999187  0
H  H5  1  0.20966208  0.96740545  0.01838875  1  0  0.109162  0  0.936769  0  0  0.123489  0  0.998567  0  0  0.12542  0  0.998088  0  0  0.102734  0.121997  0  0.999195  0
H  H6  1  0.26569938  0.27688743  0.43138892  1  0  0.103024  0  0.964024  0  0  0.114107  0  1.02436  0  0  0.116023  0  1.02399  0  0  0.116229  0.112574  0  1.02497  0
H  H7  1  0.73429433  0.72310888  0.56860701  1  0  0.103083  0  0.964039  0  0  0.114155  0  1.024374  0  0  0.11607  0  1.024018  0  0  0.11626  0.112673  0  1.024926  0
H  H8  1  0.97757578  0.22709588  0.63051754  1  0  0.122781  0  0.956453  0  0  0.134825  0  1.014694  0  0  0.137278  0  1.013117  0  0  0.125399  0.133171  0  1.015704  0
H  H9  1  0.02242271  0.77289075  0.36948158  1  0  0.122772  0  0.956482  0  0  0.134861  0  1.014666  0  0  0.137316  0  1.013087  0  0  0.125409  0.133206  0  1.015679  0
H  H10  1  0.80599332  0.28198103  0.24782130  1  0  0.106215  0  0.957552  0  0  0.110939  0  1.029529  0  0  0.113884  0  1.025616  0  0  0.133368  0.108764  0  1.032263  0
H  H11  1  0.19398896  0.71803181  0.75217582  1  0  0.106254  0  0.957645  0  0  0.11097  0  1.029627  0  0  0.113918  0  1.025711  0  0  0.133364  0.108796  0  1.032355  0
H  H12  1  0.68128551  0.12514874  0.61041170  1  0  0.079461  0  0.934905  0  0  0.092394  0  1.001175  0  0  0.093006  0  1.001525  0  0  0.106372  0.091851  0  1.001023  0
H  H13  1  0.31870694  0.87486124  0.38959447  1  0  0.079366  0  0.935046  0  0  0.092334  0  1.00131  0  0  0.092942  0  1.001667  0  0  0.106363  0.091792  0  1.00116  0
H  H14  1  0.59465000  0.20054172  0.44808140  1  0  0.077794  0  0.941607  0  0  0.090424  0  1.010836  0  0  0.091511  0  1.009926  0  0  0.109419  0.089447  0  1.0118  0
H  H15  1  0.40533533  0.79945452  0.55192723  1  0  0.077766  0  0.941643  0  0  0.090355  0  1.010953  0  0  0.09149  0  1.00999  0  0  0.109418  0.089377  0  1.011921  0
H  H16  1  0.58809210  0.45016156  0.63489429  1  0  0.079076  0  0.932788  0  0  0.099393  0  0.991212  0  0  0.100177  0  0.991661  0  0  0.093446  0.09872  0  0.990996  0
H  H17  1  0.41190201  0.54984434  0.36510564  1  0  0.079066  0  0.93281  0  0  0.099382  0  0.991211  0  0  0.100165  0  0.991659  0  0  0.093446  0.098708  0  0.990993  0
H  H18  1  0.39122947  0.39708813  0.61362095  1  0  0.082613  0  0.939774  0  0  0.099817  0  1.001173  0  0  0.100793  0  1.001236  0  0  0.094957  0.099048  0  1.001234  0
H  H19  1  0.60876091  0.60292052  0.38638086  1  0  0.082612  0  0.939841  0  0  0.099809  0  1.00123  0  0  0.100784  0  1.001293  0  0  0.094961  0.09904  0  1.001292  0
H  H20  1  0.52430021  0.35658628  0.89027263  1  0  0.427166  0  0.876938  0  0  0.395746  0  0.940988  0  0  0.407153  0  0.924723  0  0  0.288495  0.387635  0  0.952525  0
H  H21  1  0.47571299  0.64340709  0.10973515  1  0  0.427235  0  0.876838  0  0  0.3958  0  0.940918  0  0  0.407208  0  0.924651  0  0  0.288523  0.387689  0  0.952453  0
H  H22  1  0.43443624  0.21758576  0.87054927  1  0  0.413044  0  0.894112  0  0  0.379026  0  0.964201  0  0  0.390723  0  0.947139  0  0  0.288132  0.370639  0  0.976425  0
H  H23  1  0.56557058  0.78241457  0.12945213  1  0  0.41299  0  0.894197  0  0  0.378965  0  0.964299  0  0  0.390663  0  0.947234  0  0  0.288086  0.370576  0  0.976525  0
C  C24  1  0.87858579  0.26544956  0.94000355  1  0  0.722461  0  3.805341  0  0  0.671238  0  4.101163  0  0  0.705654  0  4.094485  0  0  0.211763  0.647737  0  4.105293  0
C  C25  1  0.12141721  0.73454668  0.05999615  1  0  0.722199  0  3.80585  0  0  0.671137  0  4.101484  0  0  0.705531  0  4.094822  0  0  0.211703  0.647634  0  4.105611  0
C  C26  1  0.92461249  0.06138971  0.95214187  1  0  -0.24492  0  3.700995  0  0  -0.28599  0  3.954858  0  0  -0.291218  0  3.962975  0  0  -0.168269  -0.28256  0  3.949479  0
C  C27  1  0.07540436  0.93860924  0.04785470  1  0  -0.244697  0  3.700733  0  0  -0.285898  0  3.954668  0  0  -0.291084  0  3.962762  0  0  -0.168247  -0.282473  0  3.949292  0
C  C28  1  0.12819505  0.27035336  0.42241933  1  0  -0.001107  0  3.768005  0  0  -0.037739  0  4.039195  0  0  -0.035507  0  4.060414  0  0  -0.008753  -0.039263  0  4.024955  0
C  C29  1  0.87179686  0.72964016  0.57758123  1  0  -0.001032  0  3.768053  0  0  -0.03764  0  4.039246  0  0  -0.035414  0  4.060472  0  0  -0.008714  -0.039209  0  4.024985  0
C  C30  1  0.98710667  0.24541722  0.52184727  1  0  -0.053258  0  3.661365  0  0  -0.096949  0  3.921788  0  0  -0.09491  0  3.940117  0  0  0.00238  -0.098297  0  3.909348  0
C  C31  1  0.01288512  0.75458045  0.47815156  1  0  -0.053239  0  3.661413  0  0  -0.096969  0  3.921794  0  0  -0.094932  0  3.940124  0  0  0.00243  -0.098318  0  3.909363  0
C  C32  1  0.89580961  0.27304391  0.32220712  1  0  0.17181  0  3.646512  0  0  0.109959  0  3.912909  0  0  0.124457  0  3.92574  0  0  0.141704  0.100707  0  3.903506  0
C  C33  1  0.10417954  0.72696479  0.67778996  1  0  0.171695  0  3.646746  0  0  0.109837  0  3.913143  0  0  0.124331  0  3.925979  0  0  0.141725  0.100587  0  3.903737  0
C  C34  1  0.65585819  0.23747035  0.52102121  1  0  -0.000502  0  3.621985  0  0  -0.064645  0  3.886247  0  0  -0.06051  0  3.897523  0  0  -0.055117  -0.067289  0  3.878727  0
C  C35  1  0.34413823  0.76253277  0.47897993  1  0  -0.000321  0  3.62191  0  0  -0.064546  0  3.886275  0  0  -0.060437  0  3.897527  0  0  -0.055084  -0.067196  0  3.878762  0
C  C36  1  0.52298521  0.41944274  0.56036900  1  0  -0.136468  0  3.681433  0  0  -0.178812  0  3.944227  0  0  -0.180426  0  3.958088  0  0  -0.16936  -0.177543  0  3.934611  0
C  C37  1  0.47700574  0.58056455  0.43963007  1  0  -0.136419  0  3.68153  0  0  -0.178693  0  3.944293  0  0  -0.180313  0  3.958172  0  0  -0.169295  -0.177425  0  3.93468  0
N  N38  1  0.06964723  0.28728697  0.29832422  1  0  -0.42021  0  3.306963  0  0  -0.338654  0  3.595083  0  0  -0.362937  0  3.61391  0  0  -0.369461  -0.321842  0  3.581318  0
N  N39  1  0.93033833  0.71272034  0.70167548  1  0  -0.420332  0  3.307123  0  0  -0.338787  0  3.595266  0  0  -0.363068  0  3.614091  0  0  -0.36955  -0.321978  0  3.581521  0
N  N40  1  0.84211214  0.24668679  0.45681512  1  0  -0.056122  0  3.566883  0  0  0.04045  0  3.78211  0  0  0.025583  0  3.809007  0  0  -0.240544  0.050263  0  3.763831  0
N  N41  1  0.15787686  0.75331503  0.54318131  1  0  -0.056153  0  3.566756  0  0  0.040471  0  3.781974  0  0  0.025599  0  3.808884  0  0  -0.240655  0.050285  0  3.763694  0
N  N42  1  0.57114249  0.04441015  0.21640069  1  0  0.683099  0  4.150755  0  0  0.727198  0  4.427774  0  0  0.75563  0  4.434014  0  0  0.094862  0.708108  0  4.423051  0
N  N43  1  0.42885823  0.95558886  0.78359682  1  0  0.683089  0  4.150785  0  0  0.727146  0  4.427867  0  0  0.755577  0  4.434109  0  0  0.094817  0.708057  0  4.423142  0
O  O44  1  0.97942538  0.32493238  0.99015286  1  0  -0.670418  0  2.024257  0  0  -0.591254  0  2.283356  0  0  -0.622861  0  2.271857  0  0  -0.326726  -0.568928  0  2.290578  0
O  O45  1  0.02059012  0.67506658  0.00984387  1  0  -0.670314  0  2.024667  0  0  -0.591213  0  2.283718  0  0  -0.622814  0  2.272229  0  0  -0.326688  -0.568889  0  2.29094  0
O  O46  1  0.39812636  0.33951692  0.89562457  1  0  -0.826791  0  1.897279  0  0  -0.761436  0  2.1025  0  0  -0.786274  0  2.067655  0  0  -0.587011  -0.74386  0  2.12682  0
O  O47  1  0.60188225  0.66048201  0.10437882  1  0  -0.826782  0  1.897221  0  0  -0.761426  0  2.10245  0  0  -0.786266  0  2.067602  0  0  -0.586989  -0.743849  0  2.12677  0
O  O48  1  0.73558950  0.37878166  0.87551724  1  0  -0.664348  0  1.988748  0  0  -0.594348  0  2.224821  0  0  -0.623397  0  2.212902  0  0  -0.325959  -0.57404  0  2.232544  0
O  O49  1  0.26441184  0.62121865  0.12448871  1  0  -0.664304  0  1.988808  0  0  -0.594332  0  2.224799  0  0  -0.62338  0  2.212892  0  0  -0.325941  -0.574023  0  2.23252  0
O  O50  1  0.45784100  0.00546881  0.15841296  1  0  -0.519587  0  1.822249  0  0  -0.49773  0  2.044105  0  0  -0.517338  0  2.035913  0  0  -0.197299  -0.483997  0  2.049557  0
O  O51  1  0.54215882  0.99452881  0.84158686  1  0  -0.519582  0  1.822245  0  0  -0.49771  0  2.044105  0  0  -0.517317  0  2.035915  0  0  -0.197288  -0.483978  0  2.049558  0
O  O52  1  0.53621073  0.21386878  0.21444042  1  0  -0.475983  0  1.771137  0  0  -0.459162  0  1.986669  0  0  -0.476957  0  1.979474  0  0  -0.185916  -0.44673  0  1.991389  0
O  O53  1  0.46378906  0.78612884  0.78556038  1  0  -0.476026  0  1.771124  0  0  -0.459193  0  1.986665  0  0  -0.476992  0  1.979481  0  0  -0.185954  -0.446763  0  1.991387  0
O  O54  1  0.70900043  0.91942702  0.27174279  1  0  -0.411301  0  1.740536  0  0  -0.409472  0  1.939807  0  0  -0.421787  0  1.935304  0  0  -0.163197  -0.400985  0  1.942846  0
O  O55  1  0.29100763  0.08057063  0.72824922  1  0  -0.411266  0  1.740547  0  0  -0.409408  0  1.939822  0  0  -0.421722  0  1.93532  0  0  -0.163133  -0.400924  0  1.942862  0
