# generated using pymatgen
data_Zn4H12C40Cl8O17
_symmetry_space_group_name_H-M   'P 1'
_cell_length_a   23.80642306
_cell_length_b   23.80791676
_cell_length_c   23.80631677
_cell_angle_alpha   66.51327859
_cell_angle_beta   72.50398326
_cell_angle_gamma   107.50451783
_symmetry_Int_Tables_number   1
_chemical_formula_structural   Zn4H12C40Cl8O17
_chemical_formula_sum   'Zn8 H24 C80 Cl16 O34'
_cell_volume   10348.67001424
_cell_formula_units_Z   2
loop_
 _symmetry_equiv_pos_site_id
 _symmetry_equiv_pos_as_xyz
  1  'x, y, z'
loop_
 _atom_site_type_symbol
 _atom_site_label
 _atom_site_symmetry_multiplicity
 _atom_site_fract_x
 _atom_site_fract_y
 _atom_site_fract_z
 _atom_site_occupancy
 _atom_site_pbe_bader_charge
 _atom_site_pbe_bader_spin_density
 _atom_site_pbe_cm5_charge
 _atom_site_pbe_ddec_charge
 _atom_site_pbe_ddec_spin_density
 _atom_site_pbe_ddec_sum_bond_order
 _atom_site_pbe_magmom
Zn  Zn0  1  0.05747810  0.95775870  0.48477498  1  1.320325  0  0.678915  0.963983  0  2.374477  0
Zn  Zn1  1  0.05747502  0.09971776  0.45776110  1  1.319621  0  0.678981  0.96405  0  2.374433  0
Zn  Zn2  1  0.94251833  0.98477326  0.45775194  1  1.320219  0  0.678903  0.963996  0  2.374496  0
Zn  Zn3  1  0.94253541  0.95775556  0.59972046  1  1.320018  0  0.67895  0.964037  0  2.374439  0
Zn  Zn4  1  0.94252405  0.54224287  0.01522570  1  1.320301  0  0.678936  0.964063  0  2.374423  0
Zn  Zn5  1  0.05748422  0.51522974  0.04224721  1  1.320021  0  0.678963  0.964116  0  2.374384  0
Zn  Zn6  1  0.94252440  0.40028218  0.04224385  1  1.320083  0  0.678914  0.964015  0  2.374528  0
Zn  Zn7  1  0.05746370  0.54223944  0.90028030  1  1.319847  0  0.678882  0.963928  0  2.374472  0
H  H8  1  0.92332913  0.65215931  0.11217704  1  0.131119  0  0.115983  0.139936  0  0.980719  0
H  H9  1  0.07666682  0.61216845  0.15219650  1  0.130882  0  0.116026  0.140035  0  0.980619  0
H  H10  1  0.92332888  0.88782822  0.34780933  1  0.130966  0  0.115919  0.139853  0  0.980709  0
H  H11  1  0.07661776  0.84777694  0.38789017  1  0.131792  0  0.115924  0.13992  0  0.981022  0
H  H12  1  0.07668174  0.46446883  0.77117791  1  0.138453  0  0.11597  0.139859  0  0.980822  0
H  H13  1  0.92334205  0.27114426  0.96450546  1  0.138071  0  0.115956  0.139927  0  0.980708  0
H  H14  1  0.07661824  0.22884435  0.53550772  1  0.138083  0  0.115977  0.140037  0  0.980889  0
H  H15  1  0.92332885  0.03550427  0.72884516  1  0.138192  0  0.115952  0.139907  0  0.980773  0
H  H16  1  0.73565095  0.46448897  0.11214856  1  0.134054  0  0.115977  0.139996  0  0.980685  0
H  H17  1  0.73564791  0.27114929  0.15219934  1  0.133729  0  0.116038  0.140076  0  0.980597  0
H  H18  1  0.26435370  0.22885287  0.34779734  1  0.133734  0  0.115988  0.139972  0  0.980708  0
H  H19  1  0.26435122  0.03552692  0.38778202  1  0.134765  0  0.115943  0.139761  0  0.980849  0
H  H20  1  0.26435895  0.61213063  0.96448641  1  0.134291  0  0.115988  0.140066  0  0.980841  0
H  H21  1  0.26434317  0.65219097  0.77113837  1  0.13335  0  0.115984  0.139939  0  0.980691  0
H  H22  1  0.73565999  0.84780600  0.72885871  1  0.133164  0  0.115949  0.139932  0  0.980745  0
H  H23  1  0.73564035  0.88780239  0.53552461  1  0.134653  0  0.11597  0.139936  0  0.980726  0
H  H24  1  0.91941840  0.83724477  0.74333456  1  0.63821  0  0.307861  0.351224  0  0.968955  0
H  H25  1  0.08058415  0.66275575  0.75666591  1  0.638193  0  0.307867  0.351192  0  0.96893  0
H  H26  1  0.91941538  0.66275103  0.91782828  1  0.63541  0  0.307857  0.351244  0  0.968887  0
H  H27  1  0.08058673  0.83724905  0.58217250  1  0.635407  0  0.307845  0.351263  0  0.968865  0
H  H28  1  0.91941335  0.08217702  0.33723258  1  0.635769  0  0.307872  0.351416  0  0.968897  0
H  H29  1  0.08058675  0.41782309  0.16276915  1  0.635785  0  0.307865  0.351447  0  0.968947  0
H  H30  1  0.91941945  0.25667384  0.16273797  1  0.637831  0  0.307801  0.351259  0  0.96899  0
H  H31  1  0.08058201  0.24332659  0.33726196  1  0.637819  0  0.30779  0.351246  0  0.969009  0
C  C32  1  0.18216434  0.09109296  0.40890796  1  1.545879  0  0.231502  0.609815  0  4.155172  0
C  C33  1  0.99999497  0.13965200  0.36034685  1  1.429458  0  0.227958  0.63349  0  4.109295  0
C  C34  1  0.99998524  0.90891217  0.40892989  1  1.527289  0  0.231641  0.609967  0  4.155066  0
C  C35  1  0.81783975  0.90890699  0.59109834  1  1.546335  0  0.23177  0.610072  0  4.1549  0
C  C36  1  0.00000595  0.86034688  0.63965579  1  1.429417  0  0.227866  0.633294  0  4.109554  0
C  C37  1  0.99998853  0.09107779  0.59108646  1  1.559643  0  0.231727  0.61007  0  4.155006  0
C  C38  1  0.00000248  0.59107284  0.09108760  1  1.527317  0  0.231664  0.610087  0  4.154723  0
C  C39  1  0.00000488  0.36034839  0.13965527  1  1.429517  0  0.227946  0.633334  0  4.109223  0
C  C40  1  0.81783695  0.40891151  0.09107531  1  1.546362  0  0.231694  0.610109  0  4.155135  0
C  C41  1  0.99999600  0.40890319  0.90893198  1  1.559238  0  0.231729  0.610061  0  4.154801  0
C  C42  1  0.99999595  0.63965249  0.86034450  1  1.429792  0  0.227984  0.633509  0  4.109744  0
C  C43  1  0.18216286  0.59107636  0.90890263  1  1.545926  0  0.231809  0.610089  0  4.155041  0
C  C44  1  0.00000376  0.80423336  0.69576728  1  0.016241  0  -0.052141  -0.303532  0  4.025619  0
C  C45  1  0.99999859  0.69576644  0.80423312  1  0.016826  0  -0.052262  -0.303697  0  4.025944  0
C  C46  1  0.95611572  0.77688359  0.76700023  1  0.580443  0  0.070534  0.198459  0  4.063047  0
C  C47  1  0.04388683  0.72311693  0.73300066  1  0.67386  0  0.070576  0.198528  0  4.06306  0
C  C48  1  0.95611406  0.72311412  0.82076875  1  0.607849  0  0.070553  0.198407  0  4.063177  0
C  C49  1  0.04388780  0.77688625  0.67923199  1  0.514367  0  0.070536  0.198372  0  4.063306  0
C  C50  1  0.99999761  0.19576595  0.30423421  1  0.016299  0  -0.05228  -0.303808  0  4.025855  0
C  C51  1  0.00000225  0.30423443  0.19576791  1  0.016566  0  -0.052193  -0.303539  0  4.025578  0
C  C52  1  0.95611437  0.17923520  0.27687626  1  0.51535  0  0.070458  0.198285  0  4.063444  0
C  C53  1  0.04388529  0.32076447  0.22312578  1  0.515343  0  0.07055  0.19836  0  4.063385  0
C  C54  1  0.95611539  0.23300351  0.22310797  1  0.674049  0  0.070636  0.198634  0  4.062828  0
C  C55  1  0.04388471  0.26699660  0.27689376  1  0.674954  0  0.070526  0.198607  0  4.063004  0
C  C56  1  0.00000064  0.62852642  0.12854403  1  -0.004711  0  -0.012403  -0.00501  0  3.984022  0
C  C57  1  0.95670209  0.65721304  0.13471637  1  0.088834  0  -0.086062  -0.16523  0  3.953576  0
C  C58  1  0.95678604  0.69203617  0.16963544  1  0.001562  0  0.025704  0.125195  0  4.006368  0
C  C59  1  0.99999093  0.69940164  0.19943471  1  0.209892  0  -0.000898  0.027119  0  4.057325  0
C  C60  1  0.04320210  0.66961982  0.19206848  1  0.000474  0  0.025927  0.125767  0  4.006103  0
C  C61  1  0.04329025  0.63470173  0.15724360  1  0.087996  0  -0.086127  -0.165571  0  3.953915  0
C  C62  1  0.99998116  0.73464797  0.23469625  1  -0.035097  0  -0.038329  -0.067279  0  4.129308  0
C  C63  1  0.99997557  0.76530022  0.26535769  1  -0.237557  0  -0.038123  -0.066996  0  4.129139  0
C  C64  1  0.99997444  0.80055365  0.30060960  1  0.209627  0  -0.000871  0.02711  0  4.057346  0
C  C65  1  0.95677949  0.83035801  0.30795497  1  0.000802  0  0.025736  0.125299  0  4.00638  0
C  C66  1  0.95669282  0.86527914  0.34277777  1  0.088652  0  -0.085942  -0.165306  0  3.953832  0
C  C67  1  0.99997387  0.87144536  0.37148689  1  -0.004414  0  -0.012491  -0.004685  0  3.983752  0
C  C68  1  0.04325443  0.84273392  0.36533865  1  0.086325  0  -0.086032  -0.165629  0  3.953629  0
C  C69  1  0.04317241  0.80791428  0.33041467  1  0.002157  0  0.025795  0.125576  0  4.006041  0
C  C70  1  0.00000796  0.37144877  0.87147840  1  0.008782  0  -0.01242  -0.005078  0  3.984293  0
C  C71  1  0.04330629  0.40856123  0.79949865  1  0.073607  0  -0.086043  -0.165236  0  3.953856  0
C  C72  1  0.04322037  0.37355770  0.76475975  1  0.036428  0  0.025788  0.125418  0  4.006317  0
C  C73  1  0.00000501  0.30056400  0.80059858  1  0.130703  0  -0.000846  0.027226  0  4.05712  0
C  C74  1  0.95680018  0.26472762  0.87359010  1  0.035932  0  0.025857  0.125634  0  4.006072  0
C  C75  1  0.95671648  0.29946545  0.90859608  1  0.071988  0  -0.086091  -0.16542  0  3.953623  0
C  C76  1  0.99999613  0.26531414  0.76533892  1  -0.238122  0  -0.038343  -0.067397  0  4.12957  0
C  C77  1  0.99998396  0.23466344  0.73468264  1  -0.033271  0  -0.038193  -0.066991  0  4.129317  0
C  C78  1  0.99997957  0.19941547  0.69942056  1  0.130921  0  -0.000752  0.027292  0  4.056946  0
C  C79  1  0.04317338  0.23525703  0.62642485  1  0.03718  0  0.025849  0.125583  0  4.005892  0
C  C80  1  0.04325442  0.20052227  0.59141802  1  0.071754  0  -0.086013  -0.165523  0  3.953728  0
C  C81  1  0.99997576  0.12853454  0.62853821  1  0.008958  0  -0.012519  -0.004971  0  3.984155  0
C  C82  1  0.95669200  0.09141471  0.70052364  1  0.073065  0  -0.086011  -0.165402  0  3.953877  0
C  C83  1  0.95678089  0.12641860  0.73526151  1  0.036512  0  0.025681  0.125274  0  4.006527  0
C  C84  1  0.74292770  0.37145787  0.12853309  1  -0.01815  0  -0.012395  -0.004904  0  3.983916  0
C  C85  1  0.70806263  0.40857914  0.13469415  1  0.088203  0  -0.08613  -0.165514  0  3.953558  0
C  C86  1  0.63832106  0.37357439  0.16961288  1  0.025921  0  0.025835  0.125531  0  4.006148  0
C  C87  1  0.60116409  0.30058022  0.19940929  1  0.149243  0  -0.000856  0.027222  0  4.05708  0
C  C88  1  0.63831829  0.26473714  0.19206005  1  0.157314  0  0.025921  0.125462  0  4.006291  0
C  C89  1  0.70806223  0.29947302  0.15723895  1  -0.017914  0  -0.086236  -0.165652  0  3.953801  0
C  C90  1  0.53065434  0.26532737  0.23465301  1  -0.318554  0  -0.038339  -0.067336  0  4.129639  0
C  C91  1  0.46934609  0.23468100  0.26529452  1  0.001569  0  -0.038153  -0.066893  0  4.129582  0
C  C92  1  0.39883861  0.19943407  0.30054318  1  0.149872  0  -0.000854  0.026935  0  4.05749  0
C  C93  1  0.36168472  0.23527010  0.30791739  1  0.157164  0  0.025792  0.125524  0  4.0063  0
C  C94  1  0.29194042  0.20053177  0.34274042  1  -0.018493  0  -0.08603  -0.165338  0  3.953689  0
C  C95  1  0.25707286  0.12854747  0.37143451  1  -0.019469  0  -0.012466  -0.00517  0  3.984448  0
C  C96  1  0.29193758  0.09143425  0.36524809  1  0.089391  0  -0.08602  -0.164977  0  3.953775  0
C  C97  1  0.36168149  0.12643820  0.33032435  1  0.027208  0  0.025761  0.125348  0  4.006486  0
C  C98  1  0.25707250  0.62852099  0.87145251  1  -0.015456  0  -0.01259  -0.004985  0  3.984213  0
C  C99  1  0.29194271  0.63467728  0.90857564  1  0.085738  0  -0.086083  -0.165651  0  3.953867  0
C  C100  1  0.36168520  0.66959850  0.87357260  1  0.025941  0  0.025845  0.125593  0  4.006329  0
C  C101  1  0.39883675  0.69939980  0.80057650  1  0.149354  0  -0.000806  0.027241  0  4.057167  0
C  C102  1  0.36167649  0.69204883  0.76473132  1  0.156974  0  0.025693  0.125125  0  4.006536  0
C  C103  1  0.29193223  0.65722610  0.79946434  1  -0.01808  0  -0.085968  -0.165187  0  3.953734  0
C  C104  1  0.46934603  0.73464749  0.76532530  1  -0.001376  0  -0.038312  -0.067223  0  4.129626  0
C  C105  1  0.53065407  0.76529887  0.73468397  1  -0.315262  0  -0.038226  -0.06711  0  4.129559  0
C  C106  1  0.60116379  0.80055744  0.69943547  1  0.150031  0  -0.000888  0.027209  0  4.057125  0
C  C107  1  0.63832348  0.80793188  0.73527234  1  0.157425  0  0.025852  0.125411  0  4.006449  0
C  C108  1  0.70806891  0.84275422  0.70053576  1  -0.018591  0  -0.086077  -0.165422  0  3.953757  0
C  C109  1  0.74292956  0.87144876  0.62854941  1  -0.019221  0  -0.012376  -0.004859  0  3.983946  0
C  C110  1  0.70805679  0.86526691  0.59143509  1  0.089405  0  -0.086156  -0.165511  0  3.953927  0
C  C111  1  0.63831523  0.83034558  0.62643832  1  0.026395  0  0.025812  0.125447  0  4.006023  0
Cl  Cl112  1  0.09656653  0.67700774  0.22709399  1  -0.185015  0  -0.000946  -0.066307  0  1.474041  0
Cl  Cl113  1  0.90342072  0.72704925  0.17701610  1  -0.181727  0  -0.000924  -0.06617  0  1.474358  0
Cl  Cl114  1  0.09651714  0.77287272  0.32306748  1  -0.180969  0  -0.000893  -0.066204  0  1.474184  0
Cl  Cl115  1  0.90343210  0.82299029  0.27291000  1  -0.185501  0  -0.000885  -0.066138  0  1.474201  0
Cl  Cl116  1  0.90343371  0.17634713  0.91956873  1  -0.178165  0  -0.000948  -0.066315  0  1.474161  0
Cl  Cl117  1  0.09658296  0.41953032  0.67638246  1  -0.180215  0  -0.000912  -0.066213  0  1.474401  0
Cl  Cl118  1  0.90343355  0.08043876  0.82364546  1  -0.178257  0  -0.000892  -0.06614  0  1.474383  0
Cl  Cl119  1  0.09652015  0.32364133  0.58044393  1  -0.177297  0  -0.000959  -0.066306  0  1.474183  0
Cl  Cl120  1  0.59591465  0.17635327  0.22709567  1  -0.18814  0  -0.000938  -0.066183  0  1.47426  0
Cl  Cl121  1  0.59591908  0.41955567  0.17697973  1  -0.182832  0  -0.000948  -0.066263  0  1.47426  0
Cl  Cl122  1  0.40408471  0.08046501  0.32293669  1  -0.184425  0  -0.000911  -0.066185  0  1.474354  0
Cl  Cl123  1  0.40408672  0.32364916  0.27290224  1  -0.188294  0  -0.000928  -0.066227  0  1.474257  0
Cl  Cl124  1  0.40407468  0.72708776  0.67634480  1  -0.188036  0  -0.000952  -0.066159  0  1.47435  0
Cl  Cl125  1  0.40409259  0.67695743  0.91955937  1  -0.182986  0  -0.000904  -0.066264  0  1.474387  0
Cl  Cl126  1  0.59590546  0.82295709  0.58046190  1  -0.183671  0  -0.000877  -0.066172  0  1.474277  0
Cl  Cl127  1  0.59592971  0.77291252  0.82365563  1  -0.188073  0  -0.000989  -0.066264  0  1.474135  0
O  O128  1  0.00000059  0.00000092  0.49999941  1  -1.234725  0  -0.573109  -1.02792  0  2.55295  0
O  O129  1  0.15308461  0.02542651  0.43428733  1  -1.164726  0  -0.313313  -0.543647  0  2.336845  0
O  O130  1  0.04019193  0.15598059  0.38421388  1  -1.180674  0  -0.308016  -0.54943  0  2.369098  0
O  O131  1  0.95969303  0.93428737  0.41262879  1  -1.164826  0  -0.313534  -0.543974  0  2.337128  0
O  O132  1  0.15308640  0.12767573  0.41262906  1  -1.164183  0  -0.313394  -0.543751  0  2.33705  0
O  O133  1  0.04028731  0.91263044  0.43429469  1  -1.164541  0  -0.313295  -0.543699  0  2.336952  0
O  O134  1  0.95979514  0.07559542  0.38420511  1  -1.178674  0  -0.307966  -0.549365  0  2.368694  0
O  O135  1  0.84691354  0.93428202  0.52542657  1  -1.165271  0  -0.313402  -0.543745  0  2.336663  0
O  O136  1  0.95981222  0.88420949  0.65598733  1  -1.180642  0  -0.307924  -0.549255  0  2.369129  0
O  O137  1  0.84692181  0.91262058  0.62767914  1  -1.164289  0  -0.313519  -0.543877  0  2.337362  0
O  O138  1  0.04020240  0.88421053  0.57559716  1  -1.178682  0  -0.307949  -0.549357  0  2.369043  0
O  O139  1  0.04028757  0.12766620  0.52542089  1  -1.179576  0  -0.313393  -0.543741  0  2.336573  0
O  O140  1  0.95970888  0.02541424  0.62767120  1  -1.180165  0  -0.313512  -0.543897  0  2.337239  0
O  O141  1  0.00000083  0.50000000  0.00000087  1  -1.234702  0  -0.573071  -1.027976  0  2.553018  0
O  O142  1  0.95970516  0.58736142  0.06571571  1  -1.164397  0  -0.313335  -0.543759  0  2.336885  0
O  O143  1  0.04020492  0.42440569  0.11579666  1  -1.178739  0  -0.308081  -0.549451  0  2.368622  0
O  O144  1  0.84691420  0.37232855  0.08736793  1  -1.164796  0  -0.313493  -0.543947  0  2.3373  0
O  O145  1  0.04030296  0.56570802  0.08737788  1  -1.164787  0  -0.313559  -0.543981  0  2.336891  0
O  O146  1  0.84691620  0.47457851  0.06570258  1  -1.164793  0  -0.313385  -0.543737  0  2.336746  0
O  O147  1  0.95980885  0.34401968  0.11578801  1  -1.180632  0  -0.307981  -0.549368  0  2.369149  0
O  O148  1  0.95969807  0.37232061  0.97459419  1  -1.180373  0  -0.313497  -0.543864  0  2.337093  0
O  O149  1  0.04018816  0.61578783  0.84401338  1  -1.180689  0  -0.307898  -0.549267  0  2.369145  0
O  O150  1  0.04028419  0.47457060  0.87234282  1  -1.179298  0  -0.31339  -0.543685  0  2.33658  0
O  O151  1  0.95979995  0.61578928  0.92440324  1  -1.178799  0  -0.307987  -0.549451  0  2.369013  0
O  O152  1  0.15308800  0.56571018  0.97457079  1  -1.164625  0  -0.313457  -0.543791  0  2.336488  0
O  O153  1  0.15307908  0.58737047  0.87231971  1  -1.164466  0  -0.313492  -0.543889  0  2.337313  0
O  O154  1  0.91301419  0.79987026  0.78711088  1  -1.130338  0  -0.356822  -0.417293  0  2.274675  0
O  O155  1  0.08698879  0.70013071  0.71288929  1  -1.130333  0  -0.356827  -0.417259  0  2.274671  0
O  O156  1  0.91301228  0.70012401  0.88685716  1  -1.122089  0  -0.356821  -0.417253  0  2.274667  0
O  O157  1  0.08699026  0.79987652  0.61314331  1  -1.122127  0  -0.356765  -0.417233  0  2.274659  0
O  O158  1  0.91301254  0.11314934  0.29985627  1  -1.123454  0  -0.356704  -0.417291  0  2.274957  0
O  O159  1  0.08698780  0.38685049  0.20014508  1  -1.123512  0  -0.356758  -0.41741  0  2.274977  0
O  O160  1  0.91301626  0.21289635  0.20010999  1  -1.130224  0  -0.356762  -0.417339  0  2.274764  0
O  O161  1  0.08698545  0.28710381  0.29988999  1  -1.130283  0  -0.356689  -0.417279  0  2.274841  0
