# generated using pymatgen
data_Zn2H25C39N5O11F4
_symmetry_space_group_name_H-M   'P 1'
_cell_length_a   12.39763299
_cell_length_b   14.25463195
_cell_length_c   16.24627440
_cell_angle_alpha   83.70726185
_cell_angle_beta   71.33564048
_cell_angle_gamma   70.56476206
_symmetry_Int_Tables_number   1
_chemical_formula_structural   Zn2H25C39N5O11F4
_chemical_formula_sum   'Zn4 H50 C78 N10 O22 F8'
_cell_volume   2565.09666430
_cell_formula_units_Z   2
loop_
 _symmetry_equiv_pos_site_id
 _symmetry_equiv_pos_as_xyz
  1  'x, y, z'
loop_
 _atom_site_type_symbol
 _atom_site_label
 _atom_site_symmetry_multiplicity
 _atom_site_fract_x
 _atom_site_fract_y
 _atom_site_fract_z
 _atom_site_occupancy
 _atom_site_pbe_bader_charge
 _atom_site_pbe_bader_spin_density
 _atom_site_pbe_cm5_charge
 _atom_site_pbe_ddec_charge
 _atom_site_pbe_ddec_spin_density
 _atom_site_pbe_ddec_sum_bond_order
 _atom_site_pbe_magmom
Zn  Zn0  1  0.69689000  0.28561468  0.23263588  1  1.270419  0  0.696948  0.858072  0  2.294832  0
Zn  Zn1  1  0.30311039  0.71438434  0.76736542  1  1.270553  0  0.696947  0.858053  0  2.294806  0
Zn  Zn2  1  0.05289887  0.76256523  0.35867416  1  1.248152  0  0.688709  0.745402  0  2.390989  0
Zn  Zn3  1  0.94709414  0.23743750  0.64132792  1  1.248243  0  0.688672  0.745417  0  2.390888  0
H  H4  1  0.59467874  0.26107013  0.38118804  1  0.655965  0  0.277547  0.372308  0  0.984037  0
H  H5  1  0.40531939  0.73893026  0.61880997  1  0.655999  0  0.277535  0.372298  0  0.984046  0
H  H6  1  0.69448597  0.31146625  0.39199609  1  0.624003  0  0.329044  0.412457  0  0.863533  0
H  H7  1  0.30551131  0.68853416  0.60800274  1  0.624003  0  0.329038  0.412416  0  0.863595  0
H  H8  1  0.04369779  0.37917351  0.18223984  1  0.506339  0  0.298726  0.267337  0  1.012798  0
H  H9  1  0.95630685  0.62082552  0.81776102  1  0.506313  0  0.298709  0.26731  0  1.012694  0
H  H10  1  0.61588536  0.75663195  0.08488768  1  0.466563  0  0.329508  0.292365  0  0.906818  0
H  H11  1  0.38411360  0.24336185  0.91511400  1  0.466569  0  0.329516  0.292382  0  0.906881  0
H  H12  1  0.27843802  0.24368182  0.44369485  1  0.12733  0  0.10767  0.122134  0  1.00773  0
H  H13  1  0.72156890  0.75631795  0.55630535  1  0.1274  0  0.107676  0.122153  0  1.007691  0
H  H14  1  0.00573750  0.33294537  0.31623344  1  0.099607  0  0.108216  0.11979  0  1.036016  0
H  H15  1  0.99425976  0.66705530  0.68377337  1  0.099727  0  0.108215  0.119767  0  1.036057  0
H  H16  1  0.36438039  0.33740904  0.17492746  1  0.13326  0  0.106212  0.12791  0  1.025156  0
H  H17  1  0.63561999  0.66258317  0.82507098  1  0.133196  0  0.106215  0.127926  0  1.025298  0
H  H18  1  0.91255883  0.23525257  0.07895927  1  0.125214  0  0.111925  0.080794  0  1.041867  0
H  H19  1  0.08743846  0.76475459  0.92104059  1  0.12536  0  0.111978  0.080909  0  1.041836  0
H  H20  1  0.08212025  0.08240926  0.01752317  1  0.123144  0  0.108433  0.124158  0  1.019144  0
H  H21  1  0.91787680  0.91760281  0.98246754  1  0.123197  0  0.108415  0.124169  0  1.019142  0
H  H22  1  0.07567131  0.91745352  0.08964533  1  0.093548  0  0.114804  0.108575  0  0.968654  0
H  H23  1  0.92433370  0.08255538  0.91033824  1  0.093592  0  0.114776  0.108535  0  0.968699  0
H  H24  1  0.90098336  0.91271130  0.21822994  1  0.166772  0  0.113365  0.133591  0  1.03097  0
H  H25  1  0.09902871  0.08728799  0.78175487  1  0.166359  0  0.113282  0.133602  0  1.031028  0
H  H26  1  0.73672876  0.07341725  0.27075075  1  0.102755  0  0.128563  0.099433  0  0.962526  0
H  H27  1  0.26327986  0.92657787  0.72924405  1  0.102666  0  0.128577  0.09939  0  0.962501  0
H  H28  1  0.93000859  0.50415236  0.27395469  1  0.095119  0  0.110624  0.120685  0  1.025362  0
H  H29  1  0.06999662  0.49584745  0.72604717  1  0.095199  0  0.110636  0.120709  0  1.025335  0
H  H30  1  0.82289624  0.80495206  0.18468016  1  0.143431  0  0.109214  0.127219  0  1.047554  0
H  H31  1  0.17710756  0.19504455  0.81531566  1  0.143353  0  0.109189  0.127154  0  1.047596  0
H  H32  1  0.67765838  0.59231726  0.12621951  1  0.102289  0  0.111275  0.128862  0  1.000583  0
H  H33  1  0.32234567  0.40767213  0.87378328  1  0.102276  0  0.111267  0.128847  0  1.000693  0
H  H34  1  0.24513748  0.78164079  0.41405237  1  0.093817  0  0.11849  0.085526  0  1.003303  0
H  H35  1  0.75486037  0.21836259  0.58594596  1  0.093745  0  0.118486  0.085496  0  1.003331  0
H  H36  1  0.46477276  0.69387342  0.39227830  1  0.072071  0  0.114993  0.123856  0  0.97649  0
H  H37  1  0.53522397  0.30613062  0.60771777  1  0.072025  0  0.115037  0.123916  0  0.976466  0
H  H38  1  0.56549957  0.54005840  0.29811896  1  0.119918  0  0.104634  0.103809  0  1.030667  0
H  H39  1  0.43449062  0.45994495  0.70188005  1  0.119924  0  0.104614  0.103762  0  1.030665  0
H  H40  1  0.44382795  0.48216692  0.23128737  1  0.133188  0  0.113928  0.128361  0  0.999243  0
H  H41  1  0.55615741  0.51784026  0.76871546  1  0.133126  0  0.113935  0.128355  0  0.999237  0
H  H42  1  0.22381986  0.57963202  0.26046279  1  0.156098  0  0.123813  0.10708  0  1.006264  0
H  H43  1  0.77617120  0.42037576  0.73953486  1  0.156208  0  0.123775  0.107079  0  1.006301  0
H  H44  1  0.89311907  0.94507837  0.44835694  1  0.11351  0  0.122128  0.099158  0  0.989666  0
H  H45  1  0.10687647  0.05491777  0.55164839  1  0.113632  0  0.122153  0.099199  0  0.98967  0
H  H46  1  0.84794566  0.13091921  0.42512093  1  0.099846  0  0.110183  0.120503  0  1.004929  0
H  H47  1  0.15205158  0.86907472  0.57488486  1  0.099752  0  0.110193  0.12052  0  1.004887  0
H  H48  1  0.99042771  0.19319791  0.30477157  1  0.09755  0  0.112825  0.116217  0  1.012818  0
H  H49  1  0.00956188  0.80680276  0.69523654  1  0.097529  0  0.1128  0.116217  0  1.012771  0
H  H50  1  0.17803263  0.06982900  0.21398600  1  0.09385  0  0.103484  0.108413  0  1.018215  0
H  H51  1  0.82195303  0.93017731  0.78601317  1  0.093622  0  0.103465  0.108356  0  1.018382  0
H  H52  1  0.20894598  0.88763515  0.24473676  1  0.065458  0  0.115052  0.078489  0  0.987881  0
H  H53  1  0.79104393  0.11236891  0.75526101  1  0.065256  0  0.11501  0.078455  0  0.987904  0
C  C54  1  0.45675374  0.27790376  0.31148056  1  1.531218  0  0.214753  0.579906  0  4.174441  0
C  C55  1  0.54324496  0.72209966  0.68851879  1  1.5312  0  0.214631  0.579772  0  4.174471  0
C  C56  1  0.04120879  0.26276786  0.46708728  1  1.563462  0  0.197158  0.566586  0  4.218726  0
C  C57  1  0.95879217  0.73723421  0.53291597  1  1.563421  0  0.197212  0.566605  0  4.218735  0
C  C58  1  0.33305757  0.28953106  0.30966462  1  -0.037619  0  -0.019642  -0.031843  0  4.004968  0
C  C59  1  0.66694424  0.71046634  0.69033283  1  -0.037891  0  -0.019658  -0.031791  0  4.004859  0
C  C60  1  0.25094365  0.26921015  0.38573411  1  0.000518  0  -0.078198  -0.11112  0  3.917662  0
C  C61  1  0.74905730  0.73078734  0.61426601  1  0.000972  0  -0.078163  -0.111053  0  3.917406  0
C  C62  1  0.13327787  0.28316928  0.38723647  1  0.015576  0  -0.014571  -0.006625  0  3.983742  0
C  C63  1  0.86672733  0.71682833  0.61276627  1  0.015603  0  -0.014543  -0.00661  0  3.983604  0
C  C64  1  0.09886739  0.31866460  0.31327685  1  -0.057734  0  -0.078526  -0.180139  0  3.912799  0
C  C65  1  0.90113414  0.68133590  0.68672399  1  -0.057918  0  -0.078537  -0.180087  0  3.912952  0
C  C66  1  0.18114460  0.33753951  0.23644838  1  0.351805  0  0.096612  0.250156  0  4.013922  0
C  C67  1  0.81885719  0.66245583  0.76355425  1  0.351809  0  0.096522  0.249904  0  4.013903  0
C  C68  1  0.29970972  0.32264921  0.23393000  1  -0.000136  0  -0.086839  -0.187388  0  3.897431  0
C  C69  1  0.70029037  0.67734387  0.76607211  1  -7.9e-05  0  -0.086768  -0.187325  0  3.897337  0
C  C70  1  0.18448885  0.40481151  0.08683867  1  1.484288  0  0.241038  0.510654  0  4.129236  0
C  C71  1  0.81553739  0.59518894  0.91315601  1  1.484566  0  0.241051  0.510706  0  4.128825  0
C  C72  1  0.09072434  0.45394243  0.04051467  1  0.083775  0  -0.022244  -0.210019  0  4.043165  0
C  C73  1  0.90928598  0.54605740  0.95948652  1  0.083309  0  -0.022285  -0.210277  0  4.043693  0
C  C74  1  0.05698503  0.55607327  0.02449457  1  0.486237  0  0.094958  0.164524  0  4.079305  0
C  C75  1  0.94302219  0.44393478  0.97550764  1  0.485956  0  0.09513  0.164914  0  4.07915  0
C  C76  1  0.96743512  0.60070182  0.98520727  1  0.587523  0  0.090693  0.144226  0  4.096234  0
C  C77  1  0.03257776  0.39930028  0.01479424  1  0.587455  0  0.090648  0.144093  0  4.096088  0
C  C78  1  0.91326023  0.16234108  0.10702283  1  0.442035  0  0.047536  0.093721  0  3.940198  0
C  C79  1  0.08673963  0.83766598  0.89297395  1  0.442113  0  0.047408  0.093552  0  3.940298  0
C  C80  1  0.00735768  0.07697990  0.07370789  1  0.015082  0  -0.081384  -0.13331  0  3.964842  0
C  C81  1  0.99264106  0.92302997  0.92628389  1  0.015272  0  -0.081404  -0.133438  0  3.965141  0
C  C82  1  0.00323206  0.98596042  0.11388357  1  -0.11556  0  -0.056432  -0.014767  0  3.947789  0
C  C83  1  0.99677179  0.01404487  0.88610380  1  -0.116162  0  -0.056349  -0.014611  0  3.947908  0
C  C84  1  0.90533064  0.98287279  0.18526938  1  0.008036  0  -0.075251  -0.113424  0  3.934474  0
C  C85  1  0.09467717  0.01712657  0.81471833  1  0.008689  0  -0.075191  -0.113455  0  3.934761  0
C  C86  1  0.81476906  0.07147076  0.21476252  1  0.472466  0  0.057228  0.104007  0  3.918781  0
C  C87  1  0.18523618  0.92852877  0.78523075  1  0.472182  0  0.057203  0.104006  0  3.918815  0
C  C88  1  0.80319371  0.43152885  0.20441940  1  1.562498  0  0.202501  0.559747  0  4.226993  0
C  C89  1  0.19681234  0.56846423  0.79558183  1  1.56285  0  0.202407  0.559794  0  4.226874  0
C  C90  1  0.96662091  0.67666674  0.27368430  1  1.565367  0  0.195027  0.561723  0  4.212877  0
C  C91  1  0.03337977  0.32333373  0.72631553  1  1.565477  0  0.195023  0.561748  0  4.212994  0
C  C92  1  0.80366918  0.53677151  0.19988391  1  -0.018409  0  -0.025359  -0.036385  0  4.034032  0
C  C93  1  0.19633942  0.46322163  0.80011853  1  -0.018382  0  -0.025267  -0.036152  0  4.033915  0
C  C94  1  0.87751062  0.55983470  0.23842138  1  -0.008229  0  -0.08122  -0.125374  0  3.945751  0
C  C95  1  0.12249402  0.44016204  0.76157791  1  -0.008402  0  -0.081256  -0.125513  0  3.945646  0
C  C96  1  0.88420237  0.65605733  0.23287265  1  0.010078  0  -0.014901  -0.002963  0  3.991413  0
C  C97  1  0.11579917  0.34394303  0.76712390  1  0.010053  0  -0.015012  -0.003031  0  3.991301  0
C  C98  1  0.81638370  0.73050148  0.18961967  1  -0.01715  0  -0.083998  -0.17823  0  3.893545  0
C  C99  1  0.18362293  0.26949226  0.81037887  1  -0.016396  0  -0.083908  -0.178102  0  3.893387  0
C  C100  1  0.74098000  0.70781402  0.15188873  1  0.337162  0  0.089819  0.23451  0  4.033879  0
C  C101  1  0.25902209  0.29217819  0.84810928  1  0.33443  0  0.089783  0.234527  0  4.033809  0
C  C102  1  0.73391047  0.61102917  0.15732517  1  -0.071731  0  -0.087421  -0.20092  0  3.936504  0
C  C103  1  0.26609247  0.38896536  0.84267543  1  -0.071587  0  -0.087429  -0.201007  0  3.936832  0
C  C104  1  0.67296492  0.87458561  0.08563353  1  1.459032  0  0.24674  0.512109  0  4.124939  0
C  C105  1  0.32703460  0.12540439  0.91436600  1  1.459109  0  0.246816  0.512352  0  4.125007  0
C  C106  1  0.58053899  0.93526092  0.04205895  1  0.006682  0  -0.027162  -0.225077  0  4.064876  0
C  C107  1  0.41945797  0.06473150  0.95794648  1  0.006661  0  -0.027216  -0.225317  0  4.065011  0
C  C108  1  0.59597471  0.92285541  0.95461608  1  0.539867  0  0.092412  0.150674  0  4.09426  0
C  C109  1  0.40402508  0.07713635  0.04539119  1  0.539999  0  0.092486  0.150861  0  4.094187  0
C  C110  1  0.51673284  0.98648773  0.91303198  1  0.602962  0  0.093737  0.162373  0  4.095603  0
C  C111  1  0.48326497  0.01350689  0.08697235  1  0.603204  0  0.093662  0.162163  0  4.095655  0
C  C112  1  0.29410960  0.71603794  0.37300685  1  0.473175  0  0.046307  0.085758  0  3.965405  0
C  C113  1  0.70588400  0.28396540  0.62699131  1  0.473372  0  0.046357  0.085943  0  3.965053  0
C  C114  1  0.41519794  0.66625714  0.36132848  1  -0.031484  0  -0.085469  -0.140555  0  3.99084  0
C  C115  1  0.58479680  0.33374773  0.63867045  1  -0.03158  0  -0.085494  -0.140559  0  3.99068  0
C  C116  1  0.47072880  0.58110274  0.30963272  1  -0.072993  0  -0.065536  -0.020742  0  3.957014  0
C  C117  1  0.52926594  0.41889988  0.69036587  1  -0.073828  0  -0.065581  -0.020812  0  3.957093  0
C  C118  1  0.40339023  0.54865399  0.27150930  1  -0.03756  0  -0.075424  -0.115886  0  3.936242  0
C  C119  1  0.59659656  0.45135164  0.72849152  1  -0.036897  0  -0.075357  -0.115733  0  3.93615  0
C  C120  1  0.28246115  0.60232653  0.28619675  1  0.490471  0  0.056542  0.09818  0  3.894001  0
C  C121  1  0.71752819  0.39767905  0.71380221  1  0.490335  0  0.056604  0.098217  0  3.894138  0
C  C122  1  0.95321530  0.97700687  0.39765749  1  0.460843  0  0.048604  0.082923  0  3.932328  0
C  C123  1  0.04678168  0.02299220  0.60234589  1  0.460884  0  0.048572  0.082826  0  3.932508  0
C  C124  1  0.92896533  0.07895025  0.38447783  1  0.035962  0  -0.075492  -0.111379  0  3.960103  0
C  C125  1  0.07102852  0.92104812  0.61552765  1  0.036086  0  -0.075476  -0.111447  0  3.959962  0
C  C126  1  0.00919960  0.11376967  0.31714963  1  -0.000973  0  -0.056964  -0.006507  0  3.91652  0
C  C127  1  0.99079226  0.88622945  0.68285625  1  -0.00087  0  -0.056991  -0.006433  0  3.91634  0
C  C128  1  0.11274712  0.04528588  0.26651937  1  -0.100261  0  -0.082678  -0.128255  0  3.981078  0
C  C129  1  0.88724021  0.95471611  0.73348421  1  -0.100227  0  -0.082592  -0.128181  0  3.981347  0
C  C130  1  0.13048761  0.94431444  0.28353909  1  0.535353  0  0.042709  0.075644  0  3.980968  0
C  C131  1  0.86950483  0.05568533  0.71646411  1  0.535372  0  0.042666  0.075562  0  3.981038  0
N  N132  1  0.13321199  0.37390541  0.16738555  1  -1.288977  0  -0.391761  -0.369224  0  3.589614  0
N  N133  1  0.86678583  0.62609145  0.83261851  1  -1.289607  0  -0.391618  -0.368929  0  3.589924  0
N  N134  1  0.81889245  0.15973372  0.17658278  1  -1.258636  0  -0.336617  -0.253354  0  3.621178  0
N  N135  1  0.18111022  0.84026816  0.82341454  1  -1.258445  0  -0.336533  -0.25322  0  3.620991  0
N  N136  1  0.67031121  0.78010086  0.10738317  1  -1.234432  0  -0.385201  -0.367795  0  3.56752  0
N  N137  1  0.32969314  0.21989216  0.89261664  1  -1.23249  0  -0.385241  -0.367959  0  3.567481  0
N  N138  1  0.22926725  0.68491958  0.33571487  1  -1.253762  0  -0.328395  -0.225616  0  3.605124  0
N  N139  1  0.77072465  0.31508835  0.66428686  1  -1.25355  0  -0.328486  -0.225953  0  3.605334  0
N  N140  1  0.05194205  0.91057568  0.34738624  1  -1.277591  0  -0.330527  -0.24098  0  3.583921  0
N  N141  1  0.94805919  0.08942333  0.65261486  1  -1.277507  0  -0.330454  -0.240802  0  3.583781  0
O  O142  1  0.53272970  0.29176942  0.23918598  1  -1.175596  0  -0.33296  -0.562133  0  2.304785  0
O  O143  1  0.46726816  0.70823845  0.76081303  1  -1.175578  0  -0.332872  -0.562041  0  2.30484  0
O  O144  1  0.47953520  0.25670109  0.38343703  1  -1.168494  0  -0.322649  -0.53815  0  2.165506  0
O  O145  1  0.52046408  0.74330532  0.61656243  1  -1.168531  0  -0.322635  -0.538159  0  2.165353  0
O  O146  1  0.07862004  0.23426004  0.53471578  1  -1.161825  0  -0.336836  -0.545772  0  2.312802  0
O  O147  1  0.92137808  0.76574046  0.46528592  1  -1.161748  0  -0.336851  -0.545785  0  2.312689  0
O  O148  1  0.93755690  0.27307257  0.46549350  1  -1.181414  0  -0.340253  -0.574982  0  2.105433  0
O  O149  1  0.06244209  0.72693464  0.53450778  1  -1.181446  0  -0.340274  -0.574978  0  2.105606  0
O  O150  1  0.29133789  0.39791680  0.05251494  1  -1.121954  0  -0.303086  -0.48129  0  2.047119  0
O  O151  1  0.70865254  0.60208168  0.94749446  1  -1.121571  0  -0.303325  -0.481646  0  2.045754  0
O  O152  1  0.68549286  0.26048410  0.36193776  1  -1.259969  0  -0.565202  -0.75991  0  2.10814  0
O  O153  1  0.31450809  0.73951118  0.63806325  1  -1.260108  0  -0.565194  -0.759847  0  2.108253  0
O  O154  1  0.70748331  0.41847458  0.19777701  1  -1.161008  0  -0.329959  -0.549823  0  2.315636  0
O  O155  1  0.29252162  0.58152375  0.80222510  1  -1.161112  0  -0.329945  -0.549868  0  2.315472  0
O  O156  1  0.89146208  0.36187516  0.21558349  1  -1.191737  0  -0.314375  -0.554414  0  2.193955  0
O  O157  1  0.10854341  0.63811708  0.78441490  1  -1.191929  0  -0.314326  -0.554495  0  2.194112  0
O  O158  1  0.97231199  0.76666332  0.26725227  1  -1.174365  0  -0.339142  -0.560964  0  2.266443  0
O  O159  1  0.02768443  0.23333938  0.73274834  1  -1.174503  0  -0.339095  -0.560944  0  2.266438  0
O  O160  1  0.02541244  0.60813634  0.31261372  1  -1.16055  0  -0.316453  -0.529902  0  2.112299  0
O  O161  1  0.97458824  0.39186641  0.68738768  1  -1.160531  0  -0.316449  -0.529919  0  2.112339  0
O  O162  1  0.74066984  0.91363280  0.09937024  1  -1.106345  0  -0.272581  -0.452816  0  2.117469  0
O  O163  1  0.25933879  0.08636230  0.90062395  1  -1.106396  0  -0.272604  -0.452876  0  2.117644  0
F  F164  1  0.93436332  0.70089991  0.97307398  1  -0.644927  0  -0.077097  -0.102571  0  1.432411  0
F  F165  1  0.06564701  0.29910204  0.02692387  1  -0.644905  0  -0.077135  -0.10262  0  1.432512  0
F  F166  1  0.10911777  0.61364454  0.04876124  1  -0.620786  0  -0.084844  -0.102875  0  1.355685  0
F  F167  1  0.89088886  0.38635837  0.95124358  1  -0.620489  0  -0.084941  -0.103017  0  1.355553  0
F  F168  1  0.69117256  0.84919254  0.90855730  1  -0.627642  0  -0.077499  -0.096396  0  1.400467  0
F  F169  1  0.30882782  0.15080427  0.09144489  1  -0.627634  0  -0.077526  -0.096458  0  1.400439  0
F  F170  1  0.53552753  0.97249331  0.82798365  1  -0.610806  0  -0.084438  -0.099781  0  1.350585  0
F  F171  1  0.46447596  0.02750441  0.17202258  1  -0.610942  0  -0.084418  -0.099752  0  1.350602  0
