# generated using pymatgen
data_Ag2HC3(NO)3
_symmetry_space_group_name_H-M   'P 1'
_cell_length_a   6.61337201
_cell_length_b   9.12219481
_cell_length_c   9.12222192
_cell_angle_alpha   91.24595611
_cell_angle_beta   95.09064779
_cell_angle_gamma   95.09046946
_symmetry_Int_Tables_number   1
_chemical_formula_structural   Ag2HC3(NO)3
_chemical_formula_sum   'Ag8 H4 C12 N12 O12'
_cell_volume   545.75356222
_cell_formula_units_Z   4
loop_
 _symmetry_equiv_pos_site_id
 _symmetry_equiv_pos_as_xyz
  1  'x, y, z'
loop_
 _atom_site_type_symbol
 _atom_site_label
 _atom_site_symmetry_multiplicity
 _atom_site_fract_x
 _atom_site_fract_y
 _atom_site_fract_z
 _atom_site_occupancy
 _atom_site_pbe_bader_spin_density
 _atom_site_pbe_cm5_charge
 _atom_site_pbe_ddec_charge
 _atom_site_pbe_ddec_spin_density
 _atom_site_pbe_ddec_sum_bond_order
 _atom_site_pbe_magmom
Ag  Ag0  1  0.92171500  0.02507822  0.85223491  1  0  0.431599  0.397741  0  2.083562  0
Ag  Ag1  1  0.57828575  0.14776787  0.97492102  1  0  0.431575  0.39769  0  2.083624  0
Ag  Ag2  1  0.07828694  0.97492064  0.14776711  1  0  0.431586  0.397717  0  2.083597  0
Ag  Ag3  1  0.42171344  0.85223320  0.02507759  1  0  0.431569  0.397709  0  2.083674  0
Ag  Ag4  1  0.99999980  0.50000023  0.49999759  1  0  0.477618  0.294153  0  2.359757  0
Ag  Ag5  1  0.50000180  0.49999998  0.50000053  1  0  0.477635  0.294213  0  2.359681  0
Ag  Ag6  1  0.24999811  0.32017605  0.67982464  1  0  0.398367  0.496337  0  1.806549  0
Ag  Ag7  1  0.74999969  0.67982611  0.32017720  1  0  0.398376  0.496364  0  1.80654  0
H  H8  1  0.77435407  0.49876534  0.03652770  1  0  0.316135  0.324456  0  0.976605  0
H  H9  1  0.72564227  0.96347250  0.50123262  1  0  0.316122  0.324488  0  0.976525  0
H  H10  1  0.22564512  0.50123573  0.96347200  1  0  0.316108  0.324435  0  0.976601  0
H  H11  1  0.27435539  0.03652857  0.49876809  1  0  0.31611  0.324454  0  0.976574  0
C  C12  1  0.84403937  0.70834218  0.95627623  1  0  0.322908  0.649516  0  4.162817  0
C  C13  1  0.65595665  0.04372354  0.29165436  1  0  0.323023  0.64962  0  4.162699  0
C  C14  1  0.15596119  0.29165778  0.04372354  1  0  0.322917  0.64957  0  4.162753  0
C  C15  1  0.34404087  0.95627642  0.70834522  1  0  0.322948  0.64955  0  4.162791  0
C  C16  1  0.65525248  0.50384566  0.81978167  1  0  0.331275  0.6777  0  4.124592  0
C  C17  1  0.84474788  0.18021697  0.49615751  1  0  0.331309  0.67769  0  4.124626  0
C  C18  1  0.34475015  0.49615871  0.18021834  1  0  0.331308  0.677737  0  4.124567  0
C  C19  1  0.15524523  0.81978411  0.50383742  1  0  0.331343  0.677795  0  4.124792  0
C  C20  1  0.72673679  0.73203480  0.70695474  1  0  0.306335  0.654487  0  4.168137  0
C  C21  1  0.77326464  0.29304189  0.26796479  1  0  0.306319  0.654419  0  4.168188  0
C  C22  1  0.27326971  0.26796405  0.29304867  1  0  0.306405  0.654513  0  4.168245  0
C  C23  1  0.22673011  0.70694816  0.73203656  1  0  0.30635  0.654492  0  4.168328  0
N  N24  1  0.82198773  0.79359980  0.83729103  1  0  -0.396775  -0.54947  0  3.514329  0
N  N25  1  0.67801265  0.16270911  0.20640014  1  0  -0.396827  -0.549517  0  3.51442  0
N  N26  1  0.17801463  0.20640236  0.16271000  1  0  -0.39681  -0.549589  0  3.51443  0
N  N27  1  0.32198445  0.83728755  0.79359933  1  0  -0.396817  -0.549597  0  3.514359  0
N  N28  1  0.76490325  0.56379340  0.94447520  1  0  -0.391357  -0.458734  0  3.472145  0
N  N29  1  0.73509339  0.05552346  0.43620285  1  0  -0.391389  -0.458822  0  3.472003  0
N  N30  1  0.23509745  0.43620766  0.05552570  1  0  -0.391348  -0.458751  0  3.472086  0
N  N31  1  0.26490400  0.94447540  0.56379779  1  0  -0.391441  -0.458836  0  3.471969  0
N  N32  1  0.64595493  0.58788695  0.69936134  1  0  -0.412696  -0.522355  0  3.546398  0
N  N33  1  0.85404727  0.30063957  0.41211002  1  0  -0.412692  -0.522331  0  3.546217  0
N  N34  1  0.35404743  0.41211522  0.30063969  1  0  -0.412754  -0.522427  0  3.546287  0
N  N35  1  0.14595177  0.69936040  0.58788746  1  0  -0.412698  -0.522354  0  3.546114  0
O  O36  1  0.56760198  0.37550194  0.82043729  1  0  -0.314874  -0.508953  0  2.34189  0
O  O37  1  0.93239366  0.17956018  0.62449162  1  0  -0.314877  -0.508918  0  2.342284  0
O  O38  1  0.43239872  0.62449913  0.17956142  1  0  -0.314888  -0.508967  0  2.342013  0
O  O39  1  0.06760386  0.82043978  0.37551014  1  0  -0.314855  -0.508922  0  2.342612  0
O  O40  1  0.93096615  0.75401374  0.08043552  1  0  -0.318261  -0.503465  0  2.412968  0
O  O41  1  0.56902787  0.91956233  0.24598486  1  0  -0.318321  -0.503534  0  2.412961  0
O  O42  1  0.06903468  0.24598842  0.91956651  1  0  -0.318261  -0.503473  0  2.412961  0
O  O43  1  0.43096606  0.08043323  0.75401438  1  0  -0.318247  -0.503451  0  2.412994  0
O  O44  1  0.71100637  0.80709588  0.59320603  1  0  -0.312269  -0.556155  0  2.286981  0
O  O45  1  0.78899885  0.40679259  0.19290314  1  0  -0.312281  -0.556103  0  2.286918  0
O  O46  1  0.28899902  0.19290630  0.40679081  1  0  -0.312255  -0.556061  0  2.287089  0
O  O47  1  0.21100309  0.59320629  0.80709121  1  0  -0.312247  -0.55606  0  2.287204  0
