# generated using pymatgen
data_ZnH12C14(NO2)2
_symmetry_space_group_name_H-M   'P 1'
_cell_length_a   8.07038196
_cell_length_b   12.89482071
_cell_length_c   13.18150000
_cell_angle_alpha   90.00000000
_cell_angle_beta   104.08304595
_cell_angle_gamma   90.00000000
_symmetry_Int_Tables_number   1
_chemical_formula_structural   ZnH12C14(NO2)2
_chemical_formula_sum   'Zn4 H48 C56 N8 O16'
_cell_volume   1330.51850638
_cell_formula_units_Z   4
loop_
 _symmetry_equiv_pos_site_id
 _symmetry_equiv_pos_as_xyz
  1  'x, y, z'
loop_
 _atom_site_type_symbol
 _atom_site_label
 _atom_site_symmetry_multiplicity
 _atom_site_fract_x
 _atom_site_fract_y
 _atom_site_fract_z
 _atom_site_occupancy
 _atom_site_hle17_bader_spin_density
 _atom_site_hle17_ddec_charge
 _atom_site_hle17_ddec_spin_density
 _atom_site_hle17_ddec_sum_bond_order
 _atom_site_hle17_magmom
 _atom_site_hse06_10hf_bader_spin_density
 _atom_site_hse06_10hf_ddec_charge
 _atom_site_hse06_10hf_ddec_spin_density
 _atom_site_hse06_10hf_ddec_sum_bond_order
 _atom_site_hse06_10hf_magmom
 _atom_site_hse06_bader_spin_density
 _atom_site_hse06_ddec_charge
 _atom_site_hse06_ddec_spin_density
 _atom_site_hse06_ddec_sum_bond_order
 _atom_site_hse06_magmom
 _atom_site_pbe_bader_charge
 _atom_site_pbe_bader_spin_density
 _atom_site_pbe_cm5_charge
 _atom_site_pbe_ddec_charge
 _atom_site_pbe_ddec_spin_density
 _atom_site_pbe_ddec_sum_bond_order
 _atom_site_pbe_magmom
Zn  Zn0  1  0.24098155  0.93651554  0.16325893  1  0  1.058293  0  1.859454  0  0  0.874807  0  2.332374  0  0  0.92107  0  2.275643  0  1.3086  0  0.691027  0.842568  0  2.371334  0
Zn  Zn1  1  0.25901723  0.43651634  0.33674051  1  0  1.058314  0  1.85949  0  0  0.874819  0  2.332395  0  0  0.921077  0  2.275663  0  1.308567  0  0.691019  0.842578  0  2.371355  0
Zn  Zn2  1  0.75902112  0.06348518  0.83674223  1  0  1.05832  0  1.859482  0  0  0.874772  0  2.332426  0  0  0.921029  0  2.275692  0  1.308602  0  0.691006  0.842532  0  2.371387  0
Zn  Zn3  1  0.74098162  0.56348360  0.66325856  1  0  1.058299  0  1.859447  0  0  0.874776  0  2.332392  0  0  0.921033  0  2.275666  0  1.308626  0  0.691023  0.84254  0  2.371348  0
H  H4  1  0.97863785  0.07521935  0.06594774  1  0  0.42692  0  0.880185  0  0  0.396488  0  0.941465  0  0  0.407963  0  0.924994  0  0.63316  0  0.288729  0.388391  0  0.95306  0
H  H5  1  0.52136106  0.57522010  0.43405172  1  0  0.426909  0  0.880203  0  0  0.396483  0  0.941473  0  0  0.407958  0  0.925002  0  0.633164  0  0.288742  0.388387  0  0.953068  0
H  H6  1  0.02136227  0.92477982  0.93405228  1  0  0.42689  0  0.880227  0  0  0.396462  0  0.941502  0  0  0.407938  0  0.92503  0  0.633155  0  0.288735  0.388368  0  0.953094  0
H  H7  1  0.47863779  0.42477985  0.56594735  1  0  0.426899  0  0.880215  0  0  0.396471  0  0.941491  0  0  0.407947  0  0.925021  0  0.633159  0  0.288723  0.388376  0  0.953084  0
H  H8  1  0.13134821  0.13420970  0.14775140  1  0  0.412617  0  0.904984  0  0  0.380639  0  0.97242  0  0  0.391349  0  0.956951  0  0.639318  0  0.28322  0.373117  0  0.983263  0
H  H9  1  0.36865185  0.63420967  0.35224899  1  0  0.412612  0  0.904987  0  0  0.380642  0  0.972408  0  0  0.391352  0  0.956937  0  0.639315  0  0.283228  0.373119  0  0.983251  0
H  H10  1  0.86865319  0.86579025  0.85224805  1  0  0.412627  0  0.904969  0  0  0.380652  0  0.972398  0  0  0.391363  0  0.956927  0  0.639317  0  0.283232  0.37313  0  0.98324  0
H  H11  1  0.63134699  0.36579027  0.64775160  1  0  0.41263  0  0.904966  0  0  0.380652  0  0.972401  0  0  0.391362  0  0.956931  0  0.639317  0  0.283228  0.37313  0  0.983244  0
H  H12  1  0.11440351  0.80784373  0.82780790  1  0  0.123285  0  0.966169  0  0  0.133955  0  1.02586  0  0  0.137981  0  1.023852  0  0.092664  0  0.105738  0.131098  0  1.027431  0
H  H13  1  0.38559527  0.30784608  0.67219002  1  0  0.123322  0  0.96613  0  0  0.133987  0  1.02583  0  0  0.138015  0  1.023818  0  0.092702  0  0.105754  0.13113  0  1.027402  0
H  H14  1  0.88559533  0.19215312  0.17219268  1  0  0.123276  0  0.966163  0  0  0.133945  0  1.025854  0  0  0.137972  0  1.023847  0  0.092664  0  0.105742  0.131088  0  1.027426  0
H  H15  1  0.61440102  0.69215309  0.32780715  1  0  0.123281  0  0.966145  0  0  0.133949  0  1.025839  0  0  0.137978  0  1.023831  0  0.092644  0  0.105735  0.131093  0  1.027411  0
H  H16  1  0.31303483  0.73323392  0.73081987  1  0  0.087773  0  0.965768  0  0  0.097012  0  1.031903  0  0  0.099764  0  1.029245  0  0.077427  0  0.099225  0.095003  0  1.03379  0
H  H17  1  0.18696651  0.23323318  0.76917919  1  0  0.087778  0  0.965755  0  0  0.097017  0  1.031889  0  0  0.099767  0  1.029233  0  0.077438  0  0.099228  0.095008  0  1.033775  0
H  H18  1  0.68696657  0.26676602  0.26918185  1  0  0.087735  0  0.965775  0  0  0.096986  0  1.031907  0  0  0.099725  0  1.02926  0  0.077394  0  0.099238  0.094976  0  1.033794  0
H  H19  1  0.81303489  0.76676522  0.23081950  1  0  0.087739  0  0.96578  0  0  0.097002  0  1.031898  0  0  0.099731  0  1.029264  0  0.077412  0  0.099218  0.094992  0  1.033785  0
H  H20  1  0.74119112  0.82093270  0.97830930  1  0  0.09805  0  0.959505  0  0  0.107954  0  1.024254  0  0  0.111696  0  1.020361  0  0.106722  0  0.106418  0.10524  0  1.026991  0
H  H21  1  0.75880778  0.32093273  0.52169016  1  0  0.098092  0  0.959494  0  0  0.108002  0  1.024226  0  0  0.111743  0  1.020335  0  0.106732  0  0.106442  0.105286  0  1.026965  0
H  H22  1  0.25881155  0.17906957  0.02168958  1  0  0.098107  0  0.959513  0  0  0.107994  0  1.024262  0  0  0.111737  0  1.020368  0  0.106931  0  0.106428  0.10528  0  1.027  0
H  H23  1  0.24119106  0.67906877  0.47831119  1  0  0.098068  0  0.959516  0  0  0.107976  0  1.024261  0  0  0.111717  0  1.020368  0  0.106909  0  0.106415  0.105261  0  1.027  0
H  H24  1  0.71839295  0.90353408  0.12271093  1  0  0.074496  0  0.907931  0  0  0.089922  0  0.968068  0  0  0.092655  0  0.96359  0  0.080852  0  0.118792  0.087764  0  0.971501  0
H  H25  1  0.78160213  0.40353489  0.37728568  1  0  0.07447  0  0.907915  0  0  0.089894  0  0.968066  0  0  0.092629  0  0.963586  0  0.080811  0  0.118785  0.087736  0  0.971498  0
H  H26  1  0.28160845  0.09646431  0.87728700  1  0  0.074517  0  0.907974  0  0  0.089947  0  0.9681  0  0  0.092676  0  0.963628  0  0.080895  0  0.118803  0.08779  0  0.971532  0
H  H27  1  0.21839161  0.59646428  0.62271339  1  0  0.074502  0  0.907972  0  0  0.089935  0  0.968103  0  0  0.092665  0  0.96363  0  0.080896  0  0.1188  0.087778  0  0.971535  0
H  H28  1  0.71222776  0.02122635  0.26216191  1  0  0.080176  0  0.929199  0  0  0.098309  0  0.989197  0  0  0.098501  0  0.989386  0  0.062895  0  0.109206  0.09808  0  0.989178  0
H  H29  1  0.78777243  0.52122555  0.23783394  1  0  0.08015  0  0.929188  0  0  0.098308  0  0.989175  0  0  0.0985  0  0.989368  0  0.063018  0  0.109233  0.098081  0  0.989153  0
H  H30  1  0.28777492  0.97877437  0.73783697  1  0  0.080208  0  0.929189  0  0  0.098329  0  0.989207  0  0  0.098519  0  0.989398  0  0.062962  0  0.109228  0.098102  0  0.989184  0
H  H31  1  0.21222514  0.47877362  0.76216342  1  0  0.080211  0  0.929185  0  0  0.098342  0  0.989189  0  0  0.098534  0  0.98938  0  0.062997  0  0.10923  0.098115  0  0.989167  0
H  H32  1  0.66521594  0.90560623  0.32291377  1  0  0.086148  0  0.928081  0  0  0.106079  0  0.987415  0  0  0.105409  0  0.988786  0  0.108172  0  0.113499  0.106507  0  0.986488  0
H  H33  1  0.83478297  0.40560316  0.17708342  1  0  0.086127  0  0.927972  0  0  0.106049  0  0.987347  0  0  0.105386  0  0.988721  0  0.108081  0  0.113482  0.106477  0  0.986421  0
H  H34  1  0.33478546  0.09439526  0.67708568  1  0  0.086109  0  0.928092  0  0  0.106041  0  0.987439  0  0  0.105372  0  0.988809  0  0.10814  0  0.113477  0.10647  0  0.986511  0
H  H35  1  0.16521588  0.59439446  0.82291565  1  0  0.08612  0  0.928065  0  0  0.106056  0  0.987398  0  0  0.105389  0  0.988772  0  0.108134  0  0.113484  0.106485  0  0.986471  0
H  H36  1  0.71242449  0.11237380  0.43783663  1  0  0.102609  0  0.938877  0  0  0.115866  0  0.993086  0  0  0.118475  0  0.993497  0  0.052025  0  0.105793  0.113985  0  0.992982  0
H  H37  1  0.78757314  0.61237532  0.06216187  1  0  0.102552  0  0.938922  0  0  0.115814  0  0.993122  0  0  0.118421  0  0.993539  0  0.05201  0  0.105773  0.113933  0  0.993017  0
H  H38  1  0.28757180  0.88762537  0.56216433  1  0  0.102627  0  0.938856  0  0  0.115878  0  0.993074  0  0  0.118485  0  0.993489  0  0.051991  0  0.105816  0.113996  0  0.992968  0
H  H39  1  0.21242571  0.38762385  0.93783644  1  0  0.10263  0  0.938915  0  0  0.115883  0  0.993126  0  0  0.11849  0  0.993542  0  0.052011  0  0.105809  0.114002  0  0.993021  0
H  H40  1  0.52540560  0.19718304  0.53911279  1  0  0.106058  0  0.963157  0  0  0.115902  0  1.023876  0  0  0.11861  0  1.021895  0  0.14065  0  0.108033  0.113849  0  1.025449  0
H  H41  1  0.97459969  0.69718612  0.96088914  1  0  0.106061  0  0.963181  0  0  0.11586  0  1.023948  0  0  0.118568  0  1.021966  0  0.140641  0  0.108007  0.113809  0  1.025516  0
H  H42  1  0.47459452  0.80281380  0.46088950  1  0  0.106  0  0.963195  0  0  0.115807  0  1.023967  0  0  0.118513  0  1.021986  0  0.140637  0  0.108009  0.113757  0  1.025531  0
H  H43  1  0.02540299  0.30281305  0.03911202  1  0  0.106094  0  0.963081  0  0  0.115894  0  1.023851  0  0  0.118602  0  1.021869  0  0.140615  0  0.108032  0.113842  0  1.025421  0
H  H44  1  0.20898797  0.16178976  0.48791565  1  0  0.095011  0  0.973839  0  0  0.105405  0  1.033612  0  0  0.107333  0  1.034928  0  0.071533  0  0.102319  0.103972  0  1.032943  0
H  H45  1  0.29101593  0.66179051  0.01208835  1  0  0.095108  0  0.973834  0  0  0.1055  0  1.033591  0  0  0.107426  0  1.034909  0  0.071517  0  0.102376  0.104066  0  1.032921  0
H  H46  1  0.79100960  0.83820941  0.51208702  1  0  0.095069  0  0.97384  0  0  0.105459  0  1.033603  0  0  0.107387  0  1.03492  0  0.071554  0  0.102348  0.104027  0  1.032933  0
H  H47  1  0.70898547  0.33820866  0.98791490  1  0  0.095144  0  0.973801  0  0  0.105527  0  1.033564  0  0  0.107456  0  1.034879  0  0.071498  0  0.102372  0.104079  0  1.032909  0
H  H48  1  0.09521426  0.04249458  0.33555794  1  0  0.077401  0  0.923981  0  0  0.088262  0  0.982124  0  0  0.091146  0  0.979298  0  0.11844  0  0.117251  0.086111  0  0.984236  0
H  H49  1  0.40478580  0.54249378  0.16444472  1  0  0.077402  0  0.923937  0  0  0.088271  0  0.982079  0  0  0.091155  0  0.979255  0  0.118456  0  0.117261  0.08612  0  0.984191  0
H  H50  1  0.90478458  0.95750381  0.66444189  1  0  0.077376  0  0.923993  0  0  0.088257  0  0.982113  0  0  0.091141  0  0.979288  0  0.118463  0  0.117255  0.086106  0  0.984225  0
H  H51  1  0.59521432  0.45750307  0.83555757  1  0  0.077382  0  0.923974  0  0  0.088261  0  0.982096  0  0  0.091146  0  0.979271  0  0.118476  0  0.117253  0.08611  0  0.984209  0
C  C52  1  0.49515197  0.85794213  0.00484047  1  0  -0.127835  0  3.795573  0  0  -0.107377  0  4.042277  0  0  -0.122453  0  4.069761  0  0.013366  0  -0.038577  -0.097567  0  4.023666  0
C  C53  1  0.00484682  0.35794449  0.49515821  1  0  -0.127892  0  3.795555  0  0  -0.107465  0  4.042257  0  0  -0.122541  0  4.069742  0  0.013394  0  -0.038633  -0.097656  0  4.023648  0
C  C54  1  0.50484943  0.14205626  0.99515898  1  0  -0.127792  0  3.795456  0  0  -0.107345  0  4.042155  0  0  -0.12242  0  4.069637  0  0.013367  0  -0.038584  -0.097534  0  4.023544  0
C  C55  1  0.99515075  0.64205856  0.50484295  1  0  -0.127855  0  3.795515  0  0  -0.107365  0  4.042226  0  0  -0.122445  0  4.069716  0  0.013349  0  -0.0386  -0.097552  0  4.023609  0
C  C56  1  0.31289686  0.85618717  0.96195359  1  0  0.368442  0  3.830701  0  0  0.346235  0  4.090033  0  0  0.366077  0  4.103673  0  0.657081  0  0.101503  0.333054  0  4.080244  0
C  C57  1  0.18710065  0.35618874  0.53804414  1  0  0.368475  0  3.830903  0  0  0.346353  0  4.09011  0  0  0.366195  0  4.103753  0  0.657055  0  0.101568  0.333171  0  4.080321  0
C  C58  1  0.68710454  0.14381200  0.03804510  1  0  0.368416  0  3.830848  0  0  0.346222  0  4.090158  0  0  0.366064  0  4.1038  0  0.65704  0  0.101479  0.333041  0  4.080368  0
C  C59  1  0.81289692  0.64381353  0.46195625  1  0  0.368445  0  3.830707  0  0  0.346199  0  4.090085  0  0  0.366042  0  4.103731  0  0.657065  0  0.101493  0.333017  0  4.080296  0
C  C60  1  0.25181471  0.81093101  0.86101059  1  0  -0.23613  0  3.735395  0  0  -0.252679  0  3.993124  0  0  -0.263031  0  4.010871  0  -0.035179  0  -0.117516  -0.246009  0  3.98114  0
C  C61  1  0.24818152  0.31093259  0.63898695  1  0  -0.236212  0  3.735454  0  0  -0.252783  0  3.993154  0  0  -0.263135  0  4.010901  0  -0.035169  0  -0.117594  -0.246112  0  3.98117  0
C  C62  1  0.74818541  0.18906661  0.13898942  1  0  -0.236122  0  3.735313  0  0  -0.252672  0  3.99304  0  0  -0.263025  0  4.010784  0  -0.035181  0  -0.117547  -0.246001  0  3.981054  0
C  C63  1  0.75181350  0.68906813  0.36101079  1  0  -0.236079  0  3.73523  0  0  -0.252611  0  3.992979  0  0  -0.262963  0  4.010721  0  -0.035187  0  -0.117488  -0.245942  0  3.980996  0
C  C64  1  0.36220689  0.76883659  0.80717625  1  0  -0.030067  0  3.788895  0  0  -0.056796  0  4.043165  0  0  -0.049867  0  4.060655  0  -0.077839  0  -0.08627  -0.060841  0  4.030971  0
C  C65  1  0.13779445  0.26883662  0.69282281  1  0  -0.030038  0  3.788852  0  0  -0.056748  0  4.043122  0  0  -0.04982  0  4.060615  0  -0.077834  0  -0.086247  -0.060794  0  4.03093  0
C  C66  1  0.63779579  0.23116490  0.19282566  1  0  -0.030032  0  3.788746  0  0  -0.056765  0  4.043031  0  0  -0.049825  0  4.060524  0  -0.07783  0  -0.086279  -0.06081  0  4.030838  0
C  C67  1  0.86220312  0.73116488  0.30717607  1  0  -0.030054  0  3.788814  0  0  -0.056806  0  4.043083  0  0  -0.04986  0  4.060586  0  -0.077851  0  -0.086287  -0.060851  0  4.03089  0
C  C68  1  0.54074321  0.77159274  0.84775287  1  0  -0.125353  0  3.821236  0  0  -0.105163  0  4.064938  0  0  -0.119275  0  4.091153  0  0.01145  0  -0.047372  -0.096183  0  4.047297  0
C  C69  1  0.95925825  0.27159432  0.65224773  1  0  -0.125368  0  3.821244  0  0  -0.105235  0  4.06501  0  0  -0.11934  0  4.091225  0  0.011418  0  -0.047361  -0.096257  0  4.047372  0
C  C70  1  0.45926074  0.22840798  0.15224772  1  0  -0.125265  0  3.821133  0  0  -0.105103  0  4.064841  0  0  -0.119212  0  4.091053  0  0.011381  0  -0.047333  -0.096123  0  4.0472  0
C  C71  1  0.04073804  0.72840718  0.34775248  1  0  -0.125305  0  3.821271  0  0  -0.105107  0  4.064971  0  0  -0.11922  0  4.091183  0  0.011448  0  -0.047363  -0.096127  0  4.047331  0
C  C72  1  0.60352187  0.81697762  0.94540197  1  0  -0.073661  0  3.740428  0  0  -0.107836  0  3.991719  0  0  -0.101449  0  4.010731  0  -0.122324  0  -0.079766  -0.111517  0  3.978595  0
C  C73  1  0.89648087  0.31697688  0.55459806  1  0  -0.073718  0  3.740461  0  0  -0.107879  0  3.991759  0  0  -0.101493  0  4.010773  0  -0.122289  0  -0.079796  -0.11156  0  3.978637  0
C  C74  1  0.39648208  0.18302620  0.05459786  1  0  -0.073816  0  3.740414  0  0  -0.107967  0  3.991723  0  0  -0.101582  0  4.010739  0  -0.122452  0  -0.079816  -0.111648  0  3.978599  0
C  C75  1  0.10351926  0.68302617  0.44540348  1  0  -0.073757  0  3.740394  0  0  -0.107952  0  3.991695  0  0  -0.101565  0  4.010715  0  -0.122442  0  -0.079798  -0.111634  0  3.978572  0
C  C76  1  0.57758489  0.90060965  0.10580604  1  0  0.178471  0  3.686488  0  0  0.130139  0  3.945777  0  0  0.146725  0  3.957011  0  0.614297  0  0.082076  0.119095  0  3.938138  0
C  C77  1  0.92241529  0.40061123  0.39418906  1  0  0.178521  0  3.686519  0  0  0.13017  0  3.945795  0  0  0.146752  0  3.957031  0  0.61436  0  0.082104  0.119125  0  3.938154  0
C  C78  1  0.42241523  0.09939029  0.89419246  1  0  0.178357  0  3.686442  0  0  0.130018  0  3.945743  0  0  0.146606  0  3.956976  0  0.614264  0  0.082009  0.118975  0  3.938103  0
C  C79  1  0.07758483  0.59939104  0.60580717  1  0  0.178436  0  3.686401  0  0  0.130066  0  3.945719  0  0  0.146656  0  3.956951  0  0.614254  0  0.082023  0.119021  0  3.938077  0
C  C80  1  0.65561045  0.72470259  0.78706407  1  0  0.647647  0  3.918746  0  0  0.596624  0  4.215073  0  0  0.631376  0  4.208687  0  1.556722  0  0.199973  0.573131  0  4.218619  0
C  C81  1  0.84439484  0.22470417  0.71293786  1  0  0.647863  0  3.918739  0  0  0.596863  0  4.215043  0  0  0.631598  0  4.208678  0  1.556641  0  0.199989  0.57337  0  4.218594  0
C  C82  1  0.34439095  0.27529813  0.21293538  1  0  0.647788  0  3.91867  0  0  0.596831  0  4.214917  0  0  0.631578  0  4.208536  0  1.556695  0  0.200075  0.573338  0  4.218466  0
C  C83  1  0.15560784  0.77529732  0.28706482  1  0  0.647588  0  3.918837  0  0  0.596584  0  4.215148  0  0  0.631337  0  4.208764  0  1.556719  0  0.199986  0.573091  0  4.218695  0
C  C84  1  0.60688807  0.97231519  0.27452691  1  0  -0.053157  0  3.709647  0  0  -0.114412  0  3.961345  0  0  -0.110906  0  3.973499  0  0.249322  0  -0.056051  -0.11662  0  3.952973  0
C  C85  1  0.89310956  0.47231134  0.22546857  1  0  -0.053041  0  3.709424  0  0  -0.114346  0  3.961146  0  0  -0.110866  0  3.973333  0  0.249208  0  -0.056068  -0.116551  0  3.952778  0
C  C86  1  0.39311333  0.02768709  0.72547178  1  0  -0.053137  0  3.70958  0  0  -0.114414  0  3.961327  0  0  -0.110911  0  3.973485  0  0.249303  0  -0.056047  -0.116615  0  3.952961  0
C  C87  1  0.10688801  0.52768628  0.77453031  1  0  -0.053138  0  3.709646  0  0  -0.114413  0  3.961364  0  0  -0.110921  0  3.973538  0  0.249362  0  -0.056055  -0.116619  0  3.952993  0
C  C88  1  0.50179877  0.03142967  0.33576887  1  0  0.24021  0  3.726726  0  0  0.239429  0  3.971515  0  0  0.247265  0  3.992855  0  0.500221  0  0.12505  0.234306  0  3.95698  0
C  C89  1  0.99819885  0.53142887  0.16422661  1  0  0.240203  0  3.726646  0  0  0.239399  0  3.971484  0  0  0.247246  0  3.992827  0  0.500302  0  0.124989  0.234255  0  3.956979  0
C  C90  1  0.49820135  0.96857027  0.66422887  1  0  0.240214  0  3.726693  0  0  0.239405  0  3.971485  0  0  0.247244  0  3.992823  0  0.500209  0  0.124991  0.234258  0  3.956985  0
C  C91  1  0.00179871  0.46856952  0.83577227  1  0  0.240164  0  3.726762  0  0  0.239368  0  3.971552  0  0  0.247211  0  3.992893  0  0.500117  0  0.124961  0.234239  0  3.957027  0
C  C92  1  0.57514487  0.09801222  0.41809208  1  0  -0.164035  0  3.711347  0  0  -0.181506  0  3.961949  0  0  -0.190791  0  3.985173  0  -0.017379  0  -0.08361  -0.17556  0  3.946379  0
C  C93  1  0.92485403  0.59800831  0.08190662  1  0  -0.164029  0  3.711452  0  0  -0.18149  0  3.962034  0  0  -0.190773  0  3.98525  0  -0.01742  0  -0.083582  -0.175538  0  3.946473  0
C  C94  1  0.42485269  0.90198850  0.58190832  1  0  -0.164078  0  3.711369  0  0  -0.181528  0  3.961973  0  0  -0.190812  0  3.985195  0  -0.017408  0  -0.08361  -0.175574  0  3.946411  0
C  C95  1  0.07514609  0.40198853  0.91809188  1  0  -0.164114  0  3.71146  0  0  -0.181582  0  3.962066  0  0  -0.190864  0  3.985281  0  -0.017398  0  -0.083645  -0.175634  0  3.946502  0
C  C96  1  0.47039284  0.14578644  0.47390160  1  0  0.021028  0  3.680445  0  0  -0.001249  0  3.935777  0  0  0.003858  0  3.953347  0  0.012346  0  -0.063408  -0.004309  0  3.923776  0
C  C97  1  0.02960595  0.64578486  0.02609632  1  0  0.021038  0  3.680413  0  0  -0.001188  0  3.935709  0  0  0.003921  0  3.953277  0  0.01222  0  -0.063407  -0.004248  0  3.923703  0
C  C98  1  0.52960345  0.85421351  0.52609861  1  0  0.021094  0  3.680427  0  0  -0.001157  0  3.93577  0  0  0.003952  0  3.953337  0  0.012379  0  -0.063403  -0.004219  0  3.923769  0
C  C99  1  0.97039417  0.35421276  0.97390294  1  0  0.021015  0  3.680277  0  0  -0.001212  0  3.935586  0  0  0.003896  0  3.953155  0  0.012228  0  -0.063423  -0.004273  0  3.92358  0
C  C100  1  0.29491484  0.12563494  0.44628677  1  0  -0.124643  0  3.73871  0  0  -0.139545  0  3.994246  0  0  -0.146747  0  4.015637  0  -0.062773  0  -0.087313  -0.135041  0  3.979975  0
C  C101  1  0.20508905  0.62563336  0.05371343  1  0  -0.124797  0  3.738748  0  0  -0.139688  0  3.994265  0  0  -0.146892  0  4.015656  0  -0.062557  0  -0.087361  -0.135184  0  3.979994  0
C  C102  1  0.70508528  0.87436656  0.55371249  1  0  -0.124771  0  3.738675  0  0  -0.139669  0  3.994205  0  0  -0.146871  0  4.015593  0  -0.062773  0  -0.087355  -0.135166  0  3.979934  0
C  C103  1  0.79491235  0.37436659  0.94628905  1  0  -0.124888  0  3.738752  0  0  -0.139782  0  3.994286  0  0  -0.146988  0  4.015677  0  -0.06259  0  -0.087404  -0.135266  0  3.980025  0
C  C104  1  0.23120872  0.05969916  0.36288709  1  0  0.139691  0  3.726183  0  0  0.108654  0  3.976582  0  0  0.115759  0  3.994436  0  0.457769  0  0.048297  0.104089  0  3.964443  0
C  C105  1  0.26878751  0.55969991  0.13711121  1  0  0.139811  0  3.726265  0  0  0.108753  0  3.976687  0  0  0.115858  0  3.994546  0  0.457729  0  0.048317  0.104189  0  3.964547  0
C  C106  1  0.76879013  0.94030078  0.63711274  1  0  0.139808  0  3.726191  0  0  0.108732  0  3.976581  0  0  0.115836  0  3.994437  0  0.457781  0  0.048323  0.104168  0  3.964441  0
C  C107  1  0.73121133  0.44029926  0.86289089  1  0  0.139858  0  3.726219  0  0  0.108802  0  3.97661  0  0  0.115907  0  3.994468  0  0.457655  0  0.048344  0.104237  0  3.96447  0
N  N108  1  0.50204789  0.93395793  0.17569143  1  0  -0.353164  0  3.224636  0  0  -0.271525  0  3.516337  0  0  -0.291769  0  3.527663  0  -1.175573  0  -0.344628  -0.258053  0  3.508676  0
N  N109  1  0.99794719  0.43395640  0.32430898  1  0  -0.353176  0  3.224774  0  0  -0.271472  0  3.516403  0  0  -0.291703  0  3.527736  0  -1.175508  0  -0.344597  -0.257993  0  3.508733  0
N  N110  1  0.49795351  0.06604279  0.82430726  1  0  -0.353035  0  3.224503  0  0  -0.27137  0  3.516186  0  0  -0.29161  0  3.527512  0  -1.175593  0  -0.344523  -0.257903  0  3.508533  0
N  N111  1  0.00204655  0.56604199  0.67569388  1  0  -0.353077  0  3.224522  0  0  -0.271385  0  3.516181  0  0  -0.291623  0  3.52751  0  -1.175658  0  -0.344517  -0.257916  0  3.508527  0
N  N112  1  0.33305956  0.01409170  0.30926797  1  0  -0.368929  0  3.277495  0  0  -0.294595  0  3.536977  0  0  -0.313808  0  3.553986  0  -1.233681  0  -0.327924  -0.281649  0  3.525347  0
N  N113  1  0.16694177  0.51408935  0.19073109  1  0  -0.36899  0  3.277467  0  0  -0.294652  0  3.536978  0  0  -0.313869  0  3.553986  0  -1.233773  0  -0.327895  -0.281699  0  3.525355  0
N  N114  1  0.66693928  0.98590902  0.69073034  1  0  -0.368994  0  3.277516  0  0  -0.294594  0  3.536958  0  0  -0.31381  0  3.553972  0  -1.233704  0  -0.327911  -0.281641  0  3.525337  0
N  N115  1  0.83305835  0.48590904  0.80927120  1  0  -0.368926  0  3.277395  0  0  -0.294576  0  3.536878  0  0  -0.31379  0  3.553884  0  -1.23354  0  -0.327845  -0.281629  0  3.525253  0
O  O116  1  0.20276785  0.89326407  0.01058797  1  0  -0.618325  0  2.135068  0  0  -0.533309  0  2.38625  0  0  -0.563262  0  2.377619  0  -1.180309  0  -0.321668  -0.512201  0  2.39137  0
O  O117  1  0.29722966  0.39326797  0.48941279  1  0  -0.618325  0  2.135157  0  0  -0.533341  0  2.386323  0  0  -0.563296  0  2.377694  0  -1.180352  0  -0.321663  -0.512234  0  2.391444  0
O  O118  1  0.79723100  0.10673433  0.98941413  1  0  -0.618351  0  2.135274  0  0  -0.533317  0  2.386449  0  0  -0.563268  0  2.377817  0  -1.180314  0  -0.321635  -0.51221  0  2.391571  0
O  O119  1  0.70276791  0.60673507  0.51058760  1  0  -0.618328  0  2.135028  0  0  -0.533296  0  2.38623  0  0  -0.563249  0  2.377601  0  -1.180304  0  -0.321669  -0.512189  0  2.391351  0
O  O120  1  0.58513489  0.65928796  0.71562786  1  0  -0.645394  0  2.032624  0  0  -0.57888  0  2.305204  0  0  -0.607047  0  2.290464  0  -1.176941  0  -0.333149  -0.559219  0  2.314604  0
O  O121  1  0.91486785  0.15928798  0.78437141  1  0  -0.64548  0  2.032699  0  0  -0.578932  0  2.305255  0  0  -0.607091  0  2.290518  0  -1.176885  0  -0.333108  -0.559271  0  2.314658  0
O  O122  1  0.41486524  0.34071276  0.28437216  1  0  -0.645456  0  2.032576  0  0  -0.578972  0  2.30514  0  0  -0.607136  0  2.290401  0  -1.176888  0  -0.333168  -0.55931  0  2.314542  0
O  O123  1  0.08513738  0.84071196  0.21562937  1  0  -0.645362  0  2.032712  0  0  -0.57888  0  2.305309  0  0  -0.607045  0  2.290566  0  -1.17689  0  -0.333145  -0.55922  0  2.31471  0
O  O124  1  0.81264014  0.74882003  0.80767986  1  0  -0.640422  0  1.980986  0  0  -0.589246  0  2.211996  0  0  -0.613089  0  2.201668  0  -1.208088  0  -0.324337  -0.572593  0  2.218536  0
O  O125  1  0.68736259  0.24882083  0.69232396  1  0  -0.640563  0  1.980986  0  0  -0.589406  0  2.212013  0  0  -0.613235  0  2.201673  0  -1.208021  0  -0.324404  -0.572734  0  2.218514  0
O  O126  1  0.18736253  0.25118069  0.19232130  1  0  -0.640506  0  1.981031  0  0  -0.589373  0  2.212046  0  0  -0.613209  0  2.201712  0  -1.208049  0  -0.324427  -0.572715  0  2.218578  0
O  O127  1  0.31264008  0.75117989  0.30767947  1  0  -0.640377  0  1.980921  0  0  -0.589216  0  2.211937  0  0  -0.613057  0  2.201603  0  -1.208057  0  -0.324352  -0.572558  0  2.218467  0
O  O128  1  0.08747903  0.06376436  0.12125759  1  0  -0.863218  0  1.947993  0  0  -0.797541  0  2.172986  0  0  -0.819507  0  2.135774  0  -1.274963  0  -0.594544  -0.781983  0  2.198746  0
O  O129  1  0.41252231  0.56376433  0.37874147  1  0  -0.8632  0  1.948008  0  0  -0.797551  0  2.173041  0  0  -0.819494  0  2.135782  0  -1.274953  0  -0.594567  -0.781991  0  2.198799  0
O  O130  1  0.91252365  0.93623558  0.87874205  1  0  -0.86319  0  1.948003  0  0  -0.797532  0  2.173037  0  0  -0.81948  0  2.13579  0  -1.274948  0  -0.594561  -0.781974  0  2.198798  0
O  O131  1  0.58747781  0.43623561  0.62125779  1  0  -0.863206  0  1.947989  0  0  -0.797549  0  2.173024  0  0  -0.819504  0  2.135792  0  -1.274957  0  -0.594554  -0.78199  0  2.198778  0
