# generated using pymatgen
data_Hf3H5C30N9O16
_symmetry_space_group_name_H-M   'P 1'
_cell_length_a   16.38159828
_cell_length_b   16.38572997
_cell_length_c   16.47030637
_cell_angle_alpha   84.78923830
_cell_angle_beta   89.56240278
_cell_angle_gamma   89.67863126
_symmetry_Int_Tables_number   1
_chemical_formula_structural   Hf3H5C30N9O16
_chemical_formula_sum   'Hf6 H10 C60 N18 O32'
_cell_volume   4402.58027581
_cell_formula_units_Z   2
loop_
 _symmetry_equiv_pos_site_id
 _symmetry_equiv_pos_as_xyz
  1  'x, y, z'
loop_
 _atom_site_type_symbol
 _atom_site_label
 _atom_site_symmetry_multiplicity
 _atom_site_fract_x
 _atom_site_fract_y
 _atom_site_fract_z
 _atom_site_occupancy
 _atom_site_pbe_bader_charge
 _atom_site_pbe_bader_spin_density
 _atom_site_pbe_cm5_charge
 _atom_site_pbe_ddec_charge
 _atom_site_pbe_ddec_spin_density
 _atom_site_pbe_ddec_sum_bond_order
 _atom_site_pbe_magmom
Hf  Hf0  1  0.96552449  0.80004607  0.15878579  1  2.623491  0  1.508787  2.14335  0  3.321269  0
Hf  Hf1  1  0.84749796  0.75560933  0.99191585  1  2.626945  0  1.511353  2.144253  0  3.32753  0
Hf  Hf2  1  0.99084201  0.00133579  0.07158467  1  2.623387  0  1.511474  2.141839  0  3.333028  0
Hf  Hf3  1  0.79391325  0.92042427  0.10328483  1  2.623523  0  1.510219  2.143067  0  3.327659  0
Hf  Hf4  1  0.04345100  0.83697172  0.95951169  1  2.623951  0  1.511498  2.141511  0  3.333115  0
Hf  Hf5  1  0.87198865  0.95789770  0.90494978  1  2.622949  0  1.509371  2.143042  0  3.324258  0
H  H6  1  0.80041116  0.75262769  0.15735466  1  0.617562  0  0.341148  0.419607  0  0.853897  0
H  H7  1  0.11235920  0.87969521  0.10446000  1  0.615603  0  0.34258  0.423739  0  0.848418  0
H  H8  1  0.84263826  0.07256095  0.02076982  1  0.623367  0  0.342257  0.423438  0  0.849363  0
H  H9  1  0.92293686  0.81333870  0.84167650  1  0.624594  0  0.342516  0.424011  0  0.84927  0
H  H10  1  0.93233777  0.47468130  0.51715066  1  0.140506  0  0.121408  0.132865  0  0.981005  0
H  H11  1  0.91707211  0.28606344  0.54605453  1  0.132256  0  0.121652  0.131833  0  0.984031  0
H  H12  1  0.32616276  0.36714764  0.02881821  1  0.144257  0  0.120967  0.131328  0  0.98406  0
H  H13  1  0.51327122  0.39299872  0.02479083  1  0.120287  0  0.120883  0.131317  0  0.982015  0
H  H14  1  0.40676666  0.88642846  0.62322567  1  0.137418  0  0.121335  0.131297  0  0.984943  0
H  H15  1  0.43253165  0.87894433  0.43763813  1  0.09945  0  0.121159  0.132334  0  0.982206  0
C  C16  1  0.20086513  0.93576436  0.45209559  1  1.220271  0  0.271076  0.435431  0  4.093462  0
C  C17  1  0.30546902  0.91079077  0.54028072  1  1.067282  0  0.258408  0.416768  0  4.005892  0
C  C18  1  0.17878512  0.94092333  0.58696025  1  1.191875  0  0.270563  0.437878  0  4.087933  0
C  C19  1  0.63455983  0.82872659  0.61382797  1  1.154027  0  0.271234  0.43718  0  4.092735  0
C  C20  1  0.66193082  0.82862351  0.47930660  1  1.163623  0  0.27024  0.437001  0  4.08566  0
C  C21  1  0.53294145  0.85494861  0.52235401  1  1.069853  0  0.259193  0.418392  0  4.003652  0
C  C22  1  0.49309941  0.16834843  0.96502358  1  1.209057  0  0.271276  0.437707  0  4.091553  0
C  C23  1  0.40703898  0.26934422  0.99743414  1  1.054086  0  0.258695  0.417847  0  4.00338  0
C  C24  1  0.35725722  0.14589869  0.96887434  1  1.193453  0  0.271151  0.437991  0  4.089335  0
C  C25  1  0.34173391  0.58786362  0.09016486  1  1.186263  0  0.271241  0.436867  0  4.0904  0
C  C26  1  0.43068141  0.49001842  0.05595198  1  1.090737  0  0.259356  0.417011  0  4.004742  0
C  C27  1  0.47640381  0.61604677  0.08118249  1  1.221229  0  0.270991  0.438243  0  4.082877  0
C  C28  1  0.98130056  0.47861680  0.74764486  1  1.164351  0  0.270445  0.434733  0  4.092306  0
C  C29  1  0.95223422  0.41093943  0.63725961  1  1.100781  0  0.259017  0.418009  0  4.004678  0
C  C30  1  0.97410243  0.34053807  0.76047869  1  1.222951  0  0.271935  0.439706  0  4.088105  0
C  C31  1  0.86571539  0.27578500  0.31844678  1  1.182506  0  0.27144  0.438142  0  4.091235  0
C  C32  1  0.89719932  0.34747782  0.42545010  1  1.040718  0  0.259279  0.417938  0  4.003654  0
C  C33  1  0.87766228  0.41341435  0.29972374  1  1.208024  0  0.271135  0.437099  0  4.090103  0
C  C34  1  0.07019932  0.92912684  0.24468544  1  1.64952  0  0.257684  0.701751  0  4.153977  0
C  C35  1  0.89117512  0.62362703  0.14771653  1  1.703062  0  0.255994  0.701373  0  4.144482  0
C  C36  1  0.81427137  0.83683619  0.28306500  1  1.681452  0  0.256392  0.700702  0  4.144228  0
C  C37  1  0.13142419  0.71626114  0.09267176  1  1.681399  0  0.259245  0.704511  0  4.14924  0
C  C38  1  0.75999502  0.83094604  0.82410445  1  1.680326  0  0.258556  0.704885  0  4.150124  0
C  C39  1  0.95616691  0.13026633  0.91131968  1  1.656875  0  0.257545  0.703193  0  4.147384  0
C  C40  1  0.67047249  0.77042807  0.06785153  1  1.675614  0  0.256681  0.701608  0  4.144096  0
C  C41  1  0.98048764  0.66983070  0.88737291  1  1.686444  0  0.25739  0.702147  0  4.158762  0
C  C42  1  0.16359429  0.99157556  0.98599170  1  1.682719  0  0.258703  0.705151  0  4.143949  0
C  C43  1  0.86095731  0.08172552  0.18368182  1  1.666808  0  0.259298  0.703988  0  4.149652  0
C  C44  1  0.70081368  0.03382485  0.96771779  1  1.70599  0  0.257212  0.701798  0  4.155022  0
C  C45  1  0.02718799  0.92987925  0.78332735  1  1.677218  0  0.257389  0.703041  0  4.144524  0
C  C46  1  0.85455158  0.20105910  0.28178155  1  -0.550664  0  0.010246  -0.043306  0  3.926162  0
C  C47  1  0.85208591  0.14329022  0.24047986  1  0.408634  0  -0.001981  -0.117733  0  3.863367  0
C  C48  1  0.88068929  0.54552361  0.19487535  1  -0.047152  0  -0.009172  -0.127672  0  3.874222  0
C  C49  1  0.87788253  0.48621747  0.24480027  1  -0.162766  0  0.005643  -0.047917  0  3.938971  0
C  C50  1  0.97514160  0.26608629  0.81292690  1  -0.302941  0  0.005664  -0.050099  0  3.938095  0
C  C51  1  0.97166548  0.20616627  0.86202479  1  0.125309  0  -0.007443  -0.124  0  3.873748  0
C  C52  1  0.98979759  0.55156716  0.78796038  1  -0.293967  0  0.010492  -0.039932  0  3.92494  0
C  C53  1  0.99089799  0.60714722  0.83208655  1  0.143452  0  -0.002984  -0.121917  0  3.869532  0
C  C54  1  0.93308696  0.41392020  0.55022652  1  -0.063784  0  -0.054691  -0.128385  0  3.852598  0
C  C55  1  0.91648204  0.34645501  0.51222576  1  0.014733  0  -0.055051  -0.125697  0  3.855173  0
C  C56  1  0.26144669  0.61947500  0.10120156  1  0.198202  0  0.009183  -0.045673  0  3.927915  0
C  C57  1  0.19844289  0.65884510  0.10321864  1  -0.401591  0  -0.002921  -0.118859  0  3.863497  0
C  C58  1  0.59543454  0.72456381  0.07997317  1  0.091555  0  -0.008948  -0.128491  0  3.867965  0
C  C59  1  0.54122979  0.67397183  0.08284819  1  -0.275286  0  0.005685  -0.046617  0  3.933307  0
C  C60  1  0.23631469  0.03991000  0.96885677  1  0.284086  0  -0.007492  -0.12642  0  3.866677  0
C  C61  1  0.29085445  0.09012565  0.96552864  1  -0.474178  0  0.006687  -0.045697  0  3.932932  0
C  C62  1  0.57218961  0.13290030  0.95665228  1  0.110396  0  0.008552  -0.045238  0  3.926535  0
C  C63  1  0.63312928  0.09022685  0.95595317  1  -0.303926  0  -0.002513  -0.119752  0  3.868655  0
C  C64  1  0.39048882  0.35204227  0.02085628  1  0.030181  0  -0.055392  -0.127487  0  3.853261  0
C  C65  1  0.44880732  0.40743307  0.03286786  1  -0.098085  0  -0.054818  -0.126754  0  3.851666  0
C  C66  1  0.66682684  0.82260073  0.69441096  1  0.116051  0  0.009031  -0.044753  0  3.929072  0
C  C67  1  0.70514753  0.82233591  0.75735489  1  -0.274719  0  -0.00211  -0.119081  0  3.866987  0
C  C68  1  0.72007821  0.82371776  0.41469702  1  -0.458154  0  0.005727  -0.045496  0  3.932115  0
C  C69  1  0.77004010  0.82493550  0.35961276  1  0.271689  0  -0.008657  -0.128614  0  3.86474  0
C  C70  1  0.07343854  0.94654415  0.70856010  1  0.326823  0  -0.007778  -0.125629  0  3.864555  0
C  C71  1  0.12275885  0.94787297  0.65293709  1  -0.497303  0  0.007728  -0.045439  0  3.932582  0
C  C72  1  0.12381152  0.93886848  0.31210617  1  -0.535647  0  -0.002879  -0.118366  0  3.869737  0
C  C73  1  0.16511035  0.93964429  0.37304844  1  0.385712  0  0.009323  -0.045092  0  3.928726  0
C  C74  1  0.39083438  0.88993901  0.55881825  1  0.020663  0  -0.055757  -0.126884  0  3.85675  0
C  C75  1  0.44774236  0.87531076  0.50221464  1  -0.029523  0  -0.055109  -0.128431  0  3.854291  0
N  N76  1  0.28005765  0.91617174  0.46199784  1  -1.172843  0  -0.294934  -0.39342  0  3.106224  0
N  N77  1  0.25713516  0.92199917  0.60524627  1  -1.128326  0  -0.295991  -0.392364  0  3.082738  0
N  N78  1  0.14716319  0.95037895  0.51168891  1  -1.136385  0  -0.290749  -0.383346  0  3.086098  0
N  N79  1  0.69092865  0.81745190  0.55556805  1  -1.058299  0  -0.291466  -0.385721  0  3.084729  0
N  N80  1  0.58386304  0.84664502  0.45868103  1  -1.108356  0  -0.296897  -0.394453  0  3.079711  0
N  N81  1  0.55548499  0.84710160  0.60153452  1  -1.146635  0  -0.293692  -0.391495  0  3.110272  0
N  N82  1  0.48510682  0.24521590  0.98614313  1  -1.14506  0  -0.294901  -0.394083  0  3.106254  0
N  N83  1  0.34078012  0.22180642  0.99026649  1  -1.088869  0  -0.295592  -0.392515  0  3.083353  0
N  N84  1  0.43176378  0.11601991  0.95362763  1  -1.136032  0  -0.29089  -0.384184  0  3.085076  0
N  N85  1  0.35218592  0.51105013  0.06988536  1  -1.126309  0  -0.294161  -0.390944  0  3.10894  0
N  N86  1  0.49521913  0.54038119  0.06030469  1  -1.131856  0  -0.296805  -0.393947  0  3.080108  0
N  N87  1  0.40127562  0.64316238  0.09832471  1  -1.101432  0  -0.291649  -0.385367  0  3.083388  0
N  N88  1  0.96402250  0.48390664  0.66757198  1  -1.127616  0  -0.29954  -0.397212  0  3.085352  0
N  N89  1  0.95574542  0.33733436  0.68143081  1  -1.167423  0  -0.292458  -0.390917  0  3.107929  0
N  N90  1  0.98896604  0.40906263  0.79716777  1  -1.124567  0  -0.291316  -0.384213  0  3.083875  0
N  N91  1  0.88270962  0.27347356  0.39837612  1  -1.130149  0  -0.297342  -0.394134  0  3.085968  0
N  N92  1  0.89608382  0.41950815  0.37841901  1  -1.139794  0  -0.293347  -0.391389  0  3.101135  0
N  N93  1  0.86081983  0.34362768  0.26601395  1  -1.094317  0  -0.292124  -0.386153  0  3.084451  0
O  O94  1  0.05855238  0.98948898  0.19214264  1  -1.145134  0  -0.30942  -0.550587  0  2.225786  0
O  O95  1  0.85857895  0.63741531  0.07814145  1  -1.150544  0  -0.305657  -0.548851  0  2.197472  0
O  O96  1  0.88371724  0.80427777  0.27364160  1  -1.154092  0  -0.305585  -0.549935  0  2.19294  0
O  O97  1  0.08270657  0.72540095  0.15132753  1  -1.148181  0  -0.309615  -0.551129  0  2.222917  0
O  O98  1  0.13061292  0.75481617  0.02132221  1  -1.147366  0  -0.338574  -0.566598  0  2.256534  0
O  O99  1  0.77375752  0.88143836  0.22919837  1  -1.142885  0  -0.342542  -0.569139  0  2.287493  0
O  O100  1  0.93375444  0.67378240  0.18512203  1  -1.153422  0  -0.342951  -0.571221  0  2.283303  0
O  O101  1  0.03955182  0.85721407  0.24535107  1  -1.142486  0  -0.337623  -0.56764  0  2.248521  0
O  O102  1  0.96029486  0.77766770  0.03787765  1  -1.198862  0  -0.762366  -1.064905  0  2.236662  0
O  O103  1  0.91639672  0.91436645  0.13105282  1  -1.19981  0  -0.761766  -1.065504  0  2.235244  0
O  O104  1  0.83433279  0.78850210  0.12140196  1  -1.240805  0  -0.658112  -1.002326  0  2.434355  0
O  O105  1  0.05672606  0.87909431  0.08478218  1  -1.240998  0  -0.657939  -1.003704  0  2.41965  0
O  O106  1  0.77282330  0.77001070  0.87562492  1  -1.155948  0  -0.310104  -0.551623  0  2.227186  0
O  O107  1  0.98816966  0.11675884  0.98121278  1  -1.150574  0  -0.307264  -0.55088  0  2.202745  0
O  O108  1  0.68006180  0.83833015  0.09779506  1  -1.154255  0  -0.305255  -0.5496  0  2.19177  0
O  O109  1  0.03838826  0.71910390  0.89663429  1  -1.152461  0  -0.309968  -0.551332  0  2.226521  0
O  O110  1  0.15418804  0.92331860  0.95665499  1  -1.155989  0  -0.307466  -0.552351  0  2.201444  0
O  O111  1  0.80233283  0.03370088  0.17326593  1  -1.155865  0  -0.310648  -0.552266  0  2.22479  0
O  O112  1  0.75039441  0.02550050  0.90952448  1  -1.157947  0  -0.309486  -0.550587  0  2.22251  0
O  O113  1  0.95731967  0.96163861  0.79260217  1  -1.148512  0  -0.307135  -0.552898  0  2.200863  0
O  O114  1  0.70333179  0.99740865  0.03996886  1  -1.152327  0  -0.337092  -0.565741  0  2.252024  0
O  O115  1  0.06495814  0.87992656  0.83470886  1  -1.149473  0  -0.342903  -0.570642  0  2.288829  0
O  O116  1  0.72301988  0.73301353  0.02627386  1  -1.150554  0  -0.342878  -0.569747  0  2.287581  0
O  O117  1  0.93061814  0.08419283  0.14744290  1  -1.148324  0  -0.338242  -0.567209  0  2.25247  0
O  O118  1  0.11404519  0.02570767  0.03339410  1  -1.144784  0  -0.343833  -0.572146  0  2.286574  0
O  O119  1  0.90975764  0.66929472  0.92131943  1  -1.149177  0  -0.336745  -0.565619  0  2.249928  0
O  O120  1  0.79266731  0.90205441  0.82196455  1  -1.147495  0  -0.337686  -0.567767  0  2.251233  0
O  O121  1  0.90781277  0.08290961  0.87689248  1  -1.149619  0  -0.343207  -0.572448  0  2.284341  0
O  O122  1  0.98142771  0.94561757  0.96519622  1  -1.196729  0  -0.762055  -1.065849  0  2.238849  0
O  O123  1  0.81786027  0.87799664  0.99229554  1  -1.199369  0  -0.762094  -1.065604  0  2.236924  0
O  O124  1  0.86311555  0.01671899  0.02377800  1  -1.247253  0  -0.657744  -1.0043  0  2.422025  0
O  O125  1  0.92163883  0.83086860  0.89636516  1  -1.250347  0  -0.657831  -1.005487  0  2.421908  0
