# generated using pymatgen
data_AgH19C20(NO)4
_symmetry_space_group_name_H-M   'P 1'
_cell_length_a   6.47564922
_cell_length_b   7.91635501
_cell_length_c   9.01359845
_cell_angle_alpha   83.90990120
_cell_angle_beta   83.17170531
_cell_angle_gamma   88.74784635
_symmetry_Int_Tables_number   1
_chemical_formula_structural   AgH19C20(NO)4
_chemical_formula_sum   'Ag1 H19 C20 N4 O4'
_cell_volume   456.18219568
_cell_formula_units_Z   1
loop_
 _symmetry_equiv_pos_site_id
 _symmetry_equiv_pos_as_xyz
  1  'x, y, z'
loop_
 _atom_site_type_symbol
 _atom_site_label
 _atom_site_symmetry_multiplicity
 _atom_site_fract_x
 _atom_site_fract_y
 _atom_site_fract_z
 _atom_site_occupancy
 _atom_site_hle17_bader_spin_density
 _atom_site_hle17_ddec_charge
 _atom_site_hle17_ddec_spin_density
 _atom_site_hle17_ddec_sum_bond_order
 _atom_site_hle17_magmom
 _atom_site_hse06_10hf_bader_spin_density
 _atom_site_hse06_10hf_ddec_charge
 _atom_site_hse06_10hf_ddec_spin_density
 _atom_site_hse06_10hf_ddec_sum_bond_order
 _atom_site_hse06_10hf_magmom
 _atom_site_hse06_bader_spin_density
 _atom_site_hse06_ddec_charge
 _atom_site_hse06_ddec_spin_density
 _atom_site_hse06_ddec_sum_bond_order
 _atom_site_hse06_magmom
 _atom_site_pbe_bader_spin_density
 _atom_site_pbe_cm5_charge
 _atom_site_pbe_ddec_charge
 _atom_site_pbe_ddec_spin_density
 _atom_site_pbe_ddec_sum_bond_order
 _atom_site_pbe_magmom
Ag  Ag0  1  0.50001796  0.50001650  0.49996041  1  0  0.522469  0  1.421284  0  0  0.373237  0  1.85271  0  0  0.401546  0  1.817219  0  0  0.481349  0.354283  0  1.877092  0
H  H1  1  0.49969406  0.00036404  0.99978149  1  0  0.382698  0  0.934977  0  0  0.349188  0  1.018532  0  0  0.362756  0  1.001689  0  0  0.283668  0.339783  0  1.026577  0
H  H2  1  0.84888689  0.71167331  0.25458857  1  0  0.314484  0  0.935856  0  0  0.295252  0  0.997834  0  0  0.305145  0  0.989323  0  0  0.302781  0.288175  0  1.004158  0
H  H3  1  0.15105678  0.28826055  0.74538358  1  0  0.314331  0  0.936076  0  0  0.295119  0  0.998026  0  0  0.304959  0  0.989546  0  0  0.30279  0.288071  0  1.004321  0
H  H4  1  0.25326603  0.72516590  0.74486435  1  0  0.095982  0  0.968129  0  0  0.105837  0  1.034969  0  0  0.108946  0  1.032594  0  0  0.098932  0.103412  0  1.037117  0
H  H5  1  0.74674001  0.27483166  0.25513296  1  0  0.096037  0  0.968166  0  0  0.105896  0  1.034977  0  0  0.109007  0  1.032596  0  0  0.098969  0.103472  0  1.037126  0
H  H6  1  0.95382589  0.87846768  0.87666142  1  0  0.090424  0  0.959489  0  0  0.099997  0  1.023286  0  0  0.10323  0  1.021286  0  0  0.095765  0.097406  0  1.025247  0
H  H7  1  0.04613130  0.12149401  0.12334972  1  0  0.090297  0  0.959577  0  0  0.099965  0  1.023293  0  0  0.10319  0  1.021303  0  0  0.095798  0.097369  0  1.025257  0
H  H8  1  0.64288925  0.96076202  0.75091553  1  0  0.086751  0  0.974784  0  0  0.09773  0  1.036634  0  0  0.100077  0  1.036704  0  0  0.09446  0.096067  0  1.036618  0
H  H9  1  0.35710819  0.03920484  0.24908040  1  0  0.08685  0  0.974593  0  0  0.097825  0  1.036427  0  0  0.10018  0  1.036492  0  0  0.094468  0.096158  0  1.036412  0
H  H10  1  0.61909552  0.89788472  0.48771916  1  0  0.104866  0  0.956371  0  0  0.118272  0  1.011956  0  0  0.121064  0  1.010464  0  0  0.102916  0.11619  0  1.013277  0
H  H11  1  0.38090585  0.10211132  0.51226984  1  0  0.104896  0  0.956408  0  0  0.118269  0  1.012036  0  0  0.121059  0  1.01053  0  0  0.102869  0.11616  0  1.013389  0
H  H12  1  0.10210301  0.51332209  0.12996125  1  0  0.109095  0  0.920197  0  0  0.127036  0  0.973372  0  0  0.128731  0  0.973528  0  0  0.107365  0.125759  0  0.973676  0
H  H13  1  0.89790427  0.48668679  0.87002914  1  0  0.109268  0  0.920192  0  0  0.12724  0  0.97326  0  0  0.128934  0  0.973413  0  0  0.107426  0.125969  0  0.973575  0
H  H14  1  0.33680753  0.46075260  0.20729970  1  0  0.091328  0  0.957861  0  0  0.102921  0  1.02933  0  0  0.104986  0  1.028232  0  0  0.098255  0.101313  0  1.030396  0
H  H15  1  0.66320044  0.53923404  0.79271973  1  0  0.091571  0  0.957595  0  0  0.103127  0  1.029065  0  0  0.10519  0  1.027963  0  0  0.098319  0.101536  0  1.030129  0
H  H16  1  0.37679832  0.63577350  0.95495429  1  0  0.116726  0  0.943312  0  0  0.133765  0  1.00185  0  0  0.136102  0  1.001094  0  0  0.106315  0.132006  0  1.002602  0
H  H17  1  0.62327557  0.36425473  0.04506915  1  0  0.117292  0  0.943176  0  0  0.134284  0  1.00169  0  0  0.136637  0  1.000926  0  0  0.106557  0.132514  0  1.002431  0
H  H18  1  0.24736678  0.80860368  0.03687826  1  0  0.113178  0  0.932546  0  0  0.129381  0  0.98788  0  0  0.131897  0  0.986949  0  0  0.104267  0.12754  0  0.988745  0
H  H19  1  0.75267909  0.19136628  0.96317188  1  0  0.113336  0  0.932451  0  0  0.129481  0  0.987876  0  0  0.132005  0  0.986939  0  0  0.104334  0.127633  0  0.988748  0
C  C20  1  0.10126170  0.72615140  0.54317956  1  0  0.137717  0  3.828749  0  0  0.134952  0  4.068958  0  0  0.138282  0  4.094105  0  0  0.078732  0.132395  0  4.052395  0
C  C21  1  0.89873651  0.27384726  0.45681387  1  0  0.137789  0  3.828525  0  0  0.134992  0  4.068729  0  0  0.138311  0  4.093887  0  0  0.078806  0.132443  0  4.052165  0
C  C22  1  0.11624788  0.76332631  0.68964790  1  0  -0.141663  0  3.743557  0  0  -0.159262  0  3.993732  0  0  -0.161945  0  4.014055  0  0  -0.096972  -0.157645  0  3.980451  0
C  C23  1  0.88375201  0.23666729  0.31034595  1  0  -0.141505  0  3.743496  0  0  -0.159123  0  3.993714  0  0  -0.161791  0  4.014009  0  0  -0.096894  -0.15751  0  3.98043  0
C  C24  1  0.94879769  0.84796540  0.76207149  1  0  -0.075291  0  3.775197  0  0  -0.094283  0  4.036138  0  0  -0.096811  0  4.05934  0  0  -0.102292  -0.092164  0  4.020429  0
C  C25  1  0.05119451  0.15202564  0.23792554  1  0  -0.075204  0  3.775252  0  0  -0.094277  0  4.036247  0  0  -0.096809  0  4.059453  0  0  -0.102271  -0.092151  0  4.02054  0
C  C26  1  0.77052046  0.89446233  0.69083701  1  0  -0.075567  0  3.782323  0  0  -0.093881  0  4.041367  0  0  -0.096706  0  4.065604  0  0  -0.105435  -0.091799  0  4.024566  0
C  C27  1  0.22947948  0.10552862  0.30915269  1  0  -0.075398  0  3.78169  0  0  -0.093733  0  4.040794  0  0  -0.096547  0  4.065005  0  0  -0.10535  -0.091658  0  4.024008  0
C  C28  1  0.75468819  0.85936637  0.54428686  1  0  -0.170692  0  3.791004  0  0  -0.185104  0  4.044585  0  0  -0.187739  0  4.063859  0  0  -0.100076  -0.183179  0  4.031494  0
C  C29  1  0.24530847  0.14063228  0.45570671  1  0  -0.170765  0  3.790967  0  0  -0.185206  0  4.044564  0  0  -0.187844  0  4.063847  0  0  -0.100003  -0.183254  0  4.031482  0
C  C30  1  0.92279291  0.77537138  0.47171028  1  0  0.156627  0  3.822804  0  0  0.147991  0  4.065565  0  0  0.152014  0  4.08846  0  0  0.091889  0.145252  0  4.050137  0
C  C31  1  0.07720392  0.22461811  0.52827320  1  0  0.156645  0  3.823126  0  0  0.148071  0  4.065825  0  0  0.152049  0  4.0887  0  0  0.09179  0.145346  0  4.050403  0
C  C32  1  0.14600227  0.64021576  0.31809485  1  0  0.412116  0  3.671844  0  0  0.383148  0  3.94003  0  0  0.401462  0  3.954255  0  0  0.233895  0.371184  0  3.929692  0
C  C33  1  0.85398036  0.35978398  0.68189761  1  0  0.411878  0  3.672282  0  0  0.382959  0  3.940429  0  0  0.401215  0  3.954653  0  0  0.233885  0.371031  0  3.930097  0
C  C34  1  0.23125428  0.56616033  0.17835113  1  0  -0.18965  0  3.7149  0  0  -0.231297  0  3.959976  0  0  -0.2341  0  3.970312  0  0  -0.152399  -0.22918  0  3.952647  0
C  C35  1  0.76875985  0.43382603  0.82165337  1  0  -0.189752  0  3.715107  0  0  -0.231358  0  3.960073  0  0  -0.234153  0  3.970403  0  0  -0.152293  -0.229298  0  3.952795  0
C  C36  1  0.34568856  0.69650469  0.05990629  1  0  -0.267761  0  3.642013  0  0  -0.305912  0  3.885205  0  0  -0.311687  0  3.892726  0  0  -0.162452  -0.301881  0  3.879864  0
C  C37  1  0.65439571  0.30348461  0.94013611  1  0  -0.268046  0  3.64242  0  0  -0.306307  0  3.885602  0  0  -0.312108  0  3.893096  0  0  -0.162182  -0.302248  0  3.880288  0
C  C38  1  0.55468260  0.74832571  0.10097331  1  0  0.70765  0  3.789149  0  0  0.662136  0  4.092368  0  0  0.694943  0  4.084494  0  0  0.221768  0.639879  0  4.097035  0
C  C39  1  0.44543702  0.25168763  0.89909882  1  0  0.709063  0  3.786394  0  0  0.663592  0  4.089479  0  0  0.696422  0  4.081546  0  0  0.22288  0.641322  0  4.094191  0
N  N40  1  0.23798383  0.64145713  0.44394043  1  0  -0.467633  0  3.263937  0  0  -0.386789  0  3.561746  0  0  -0.410613  0  3.575415  0  0  -0.384903  -0.37045  0  3.55179  0
N  N41  1  0.76201108  0.35854907  0.55605024  1  0  -0.467466  0  3.263832  0  0  -0.386666  0  3.561616  0  0  -0.410489  0  3.575312  0  0  -0.384849  -0.370331  0  3.551643  0
N  N42  1  0.95855040  0.72053852  0.33051631  1  0  -0.387941  0  3.356476  0  0  -0.32711  0  3.584759  0  0  -0.346388  0  3.596749  0  0  -0.374725  -0.314089  0  3.576599  0
N  N43  1  0.04143706  0.27945351  0.66947104  1  0  -0.387954  0  3.356942  0  0  -0.327167  0  3.585232  0  0  -0.346295  0  3.597095  0  0  -0.374779  -0.314204  0  3.577113  0
O  O44  1  0.61247850  0.90522650  0.06984945  1  0  -0.605946  0  2.042192  0  0  -0.554358  0  2.269816  0  0  -0.578865  0  2.256333  0  0  -0.331306  -0.537321  0  2.276946  0
O  O45  1  0.38756046  0.09471923  0.93025616  1  0  -0.604187  0  2.045347  0  0  -0.552689  0  2.272928  0  0  -0.577159  0  2.259281  0  0  -0.331127  -0.535687  0  2.280132  0
O  O46  1  0.66756350  0.63759299  0.16246747  1  0  -0.609822  0  1.960008  0  0  -0.563882  0  2.193821  0  0  -0.586511  0  2.18404  0  0  -0.310729  -0.548099  0  2.200632  0
O  O47  1  0.33247688  0.36228408  0.83758906  1  0  -0.609118  0  1.959807  0  0  -0.56326  0  2.193478  0  0  -0.585781  0  2.183571  0  0  -0.310207  -0.547521  0  2.200299  0
