# generated using pymatgen
data_ZnH24C26S(N2O3)2
_symmetry_space_group_name_H-M   'P 1'
_cell_length_a   9.76474579
_cell_length_b   11.63513911
_cell_length_c   12.06670000
_cell_angle_alpha   92.14257258
_cell_angle_beta   96.63548877
_cell_angle_gamma   103.79380844
_symmetry_Int_Tables_number   1
_chemical_formula_structural   ZnH24C26S(N2O3)2
_chemical_formula_sum   'Zn2 H48 C52 S2 N8 O12'
_cell_volume   1319.49164158
_cell_formula_units_Z   2
loop_
 _symmetry_equiv_pos_site_id
 _symmetry_equiv_pos_as_xyz
  1  'x, y, z'
loop_
 _atom_site_type_symbol
 _atom_site_label
 _atom_site_symmetry_multiplicity
 _atom_site_fract_x
 _atom_site_fract_y
 _atom_site_fract_z
 _atom_site_occupancy
 _atom_site_hle17_bader_spin_density
 _atom_site_hle17_ddec_charge
 _atom_site_hle17_ddec_spin_density
 _atom_site_hle17_ddec_sum_bond_order
 _atom_site_hle17_magmom
 _atom_site_hse06_10hf_bader_spin_density
 _atom_site_hse06_10hf_ddec_charge
 _atom_site_hse06_10hf_ddec_spin_density
 _atom_site_hse06_10hf_ddec_sum_bond_order
 _atom_site_hse06_10hf_magmom
 _atom_site_hse06_bader_spin_density
 _atom_site_hse06_ddec_charge
 _atom_site_hse06_ddec_spin_density
 _atom_site_hse06_ddec_sum_bond_order
 _atom_site_hse06_magmom
 _atom_site_pbe_bader_charge
 _atom_site_pbe_bader_spin_density
 _atom_site_pbe_cm5_charge
 _atom_site_pbe_ddec_charge
 _atom_site_pbe_ddec_spin_density
 _atom_site_pbe_ddec_sum_bond_order
 _atom_site_pbe_magmom
Zn  Zn0  1  0.99143702  0.67764264  0.81494431  1  0  0.998121  0  1.919592  0  0  0.809195  0  2.405461  0  0  0.855345  0  2.349574  0  1.251761  0  0.693748  0.776978  0  2.443962  0
Zn  Zn1  1  0.00856684  0.32235460  0.18505462  1  0  0.998103  0  1.919544  0  0  0.809169  0  2.405431  0  0  0.855317  0  2.349534  0  1.251823  0  0.693747  0.77695  0  2.443935  0
H  H2  1  0.54383748  0.65008886  0.92177881  1  0  0.066009  0  0.931033  0  0  0.082668  0  0.98925  0  0  0.083348  0  0.990731  0  0.008379  0  0.096468  0.082232  0  0.988265  0
H  H3  1  0.45616768  0.34991282  0.07823201  1  0  0.066024  0  0.931114  0  0  0.08271  0  0.989292  0  0  0.083393  0  0.990771  0  0.00825  0  0.096496  0.082275  0  0.988306  0
H  H4  1  0.62562989  0.41301226  0.92323511  1  0  0.051239  0  0.959734  0  0  0.068853  0  1.024559  0  0  0.069159  0  1.025752  0  0.029616  0  0.077169  0.068709  0  1.023479  0
H  H5  1  0.37438327  0.58699208  0.07677158  1  0  0.051291  0  0.959776  0  0  0.06887  0  1.024603  0  0  0.069177  0  1.025799  0  0.032112  0  0.077176  0.068725  0  1.023531  0
H  H6  1  0.55762751  0.47746615  0.80560288  1  0  0.072049  0  0.953526  0  0  0.086719  0  1.019513  0  0  0.088453  0  1.01846  0  0.053434  0  0.083837  0.085421  0  1.020362  0
H  H7  1  0.44238178  0.52253553  0.19440749  1  0  0.071965  0  0.953608  0  0  0.086639  0  1.01957  0  0  0.088378  0  1.01851  0  0.053691  0  0.083745  0.085346  0  1.020418  0
H  H8  1  0.33040624  0.46384005  0.87951786  1  0  0.062165  0  0.937203  0  0  0.082206  0  0.997754  0  0  0.082366  0  0.999643  0  0.028337  0  0.083674  0.081994  0  0.996459  0
H  H9  1  0.66960666  0.53616340  0.12049043  1  0  0.062152  0  0.93723  0  0  0.082216  0  0.997701  0  0  0.082384  0  0.999595  0  0.028497  0  0.083638  0.082005  0  0.996404  0
H  H10  1  0.36558741  0.32244685  0.87780084  1  0  0.051327  0  0.964832  0  0  0.06466  0  1.036772  0  0  0.066463  0  1.034987  0  0.024099  0  0.078579  0.063149  0  1.038478  0
H  H11  1  0.63442033  0.67755660  0.12220780  1  0  0.051368  0  0.965128  0  0  0.064689  0  1.037036  0  0  0.066498  0  1.035251  0  0.024221  0  0.078614  0.063175  0  1.03874  0
H  H12  1  0.14014600  0.04247047  0.63850239  1  0  0.051877  0  0.930158  0  0  0.065997  0  0.98935  0  0  0.066836  0  0.989994  0  0.003449  0  0.088419  0.06536  0  0.989057  0
H  H13  1  0.85984316  0.95752589  0.36150094  1  0  0.051957  0  0.930144  0  0  0.066029  0  0.989372  0  0  0.066863  0  0.99002  0  0.003249  0  0.088442  0.065394  0  0.989076  0
H  H14  1  0.98341386  0.82472772  0.48434011  1  0  0.060811  0  0.960969  0  0  0.075254  0  1.031698  0  0  0.075937  0  1.0327  0  0.04144  0  0.080073  0.074804  0  1.030975  0
H  H15  1  0.01658021  0.17527129  0.51566046  1  0  0.060746  0  0.961009  0  0  0.075222  0  1.031677  0  0  0.075906  0  1.032679  0  0.041129  0  0.080043  0.074774  0  1.030954  0
H  H16  1  0.16816283  0.86774458  0.52112413  1  0  0.073945  0  0.952822  0  0  0.091399  0  1.0144  0  0  0.092935  0  1.013286  0  0.041692  0  0.083266  0.090186  0  1.015426  0
H  H17  1  0.83183252  0.13225177  0.47887729  1  0  0.073959  0  0.95294  0  0  0.091405  0  1.014486  0  0  0.092947  0  1.01337  0  0.041856  0  0.083265  0.090194  0  1.015513  0
H  H18  1  0.17855006  0.05884272  0.42884396  1  0  0.054941  0  0.942832  0  0  0.07338  0  1.006332  0  0  0.073317  0  1.008568  0  -0.003121  0  0.079101  0.073321  0  1.004884  0
H  H19  1  0.82144091  0.94115629  0.57115301  1  0  0.055044  0  0.942651  0  0  0.073465  0  1.006141  0  0  0.073399  0  1.008372  0  -0.002907  0  0.079154  0.073407  0  1.004691  0
H  H20  1  0.09869171  0.93667339  0.33252713  1  0  0.060449  0  0.948857  0  0  0.075582  0  1.014039  0  0  0.076773  0  1.014273  0  0.033489  0  0.082132  0.074642  0  1.013973  0
H  H21  1  0.90130210  0.06332474  0.66747173  1  0  0.060525  0  0.948951  0  0  0.075655  0  1.014101  0  0  0.076842  0  1.014332  0  0.033389  0  0.08215  0.074711  0  1.01404  0
H  H22  1  0.07304278  0.84416722  0.04173923  1  0  0.128091  0  0.924519  0  0  0.136645  0  0.984821  0  0  0.139967  0  0.980296  0  0.212542  0  0.149678  0.134086  0  0.988232  0
H  H23  1  0.92695672  0.15583623  0.95825621  1  0  0.128094  0  0.924505  0  0  0.136631  0  0.984826  0  0  0.139952  0  0.980304  0  0.212566  0  0.149669  0.134072  0  0.988235  0
H  H24  1  0.32228429  0.67957098  0.85552765  1  0  0.112376  0  0.971355  0  0  0.117386  0  1.039317  0  0  0.120468  0  1.037624  0  0.151852  0  0.118625  0.115117  0  1.040666  0
H  H25  1  0.67771701  0.32043158  0.14447206  1  0  0.112377  0  0.971368  0  0  0.117379  0  1.039325  0  0  0.120455  0  1.037648  0  0.151839  0  0.118616  0.115111  0  1.040672  0
H  H26  1  0.50380189  0.84215107  0.01364917  1  0  0.121229  0  0.947361  0  0  0.132371  0  1.00534  0  0  0.134707  0  1.004989  0  0.131029  0  0.128699  0.130287  0  1.006455  0
H  H27  1  0.49619658  0.15785593  0.98635044  1  0  0.121191  0  0.94744  0  0  0.13234  0  1.00541  0  0  0.134677  0  1.005058  0  0.130589  0  0.128694  0.130257  0  1.006524  0
H  H28  1  0.18097727  0.04842313  0.09506639  1  0  0.141359  0  0.926101  0  0  0.151222  0  0.982004  0  0  0.154701  0  0.980149  0  0.154506  0  0.123425  0.148718  0  0.983454  0
H  H29  1  0.81901605  0.95158387  0.90493356  1  0  0.14125  0  0.926394  0  0  0.15119  0  0.982208  0  0  0.15467  0  0.980354  0  0.154644  0  0.123388  0.148685  0  0.983662  0
H  H30  1  0.27764291  0.21670486  0.23354280  1  0  0.112861  0  0.957385  0  0  0.122099  0  1.019806  0  0  0.124726  0  1.018785  0  0.129201  0  0.114734  0.120123  0  1.020648  0
H  H31  1  0.72236612  0.78329948  0.76645687  1  0  0.112888  0  0.957352  0  0  0.122111  0  1.019774  0  0  0.124736  0  1.018754  0  0.129167  0  0.114711  0.120137  0  1.020617  0
H  H32  1  0.63248952  0.06949560  0.34480872  1  0  0.114775  0  0.944567  0  0  0.12609  0  1.000706  0  0  0.128904  0  0.999336  0  0.113718  0  0.114505  0.124166  0  1.001429  0
H  H33  1  0.36751538  0.93050519  0.65518547  1  0  0.114791  0  0.944578  0  0  0.126083  0  1.000736  0  0  0.128892  0  0.999371  0  0.113751  0  0.114498  0.124159  0  1.001459  0
H  H34  1  0.53308168  0.89589000  0.20575917  1  0  0.10943  0  0.938207  0  0  0.124256  0  0.990155  0  0  0.127282  0  0.988889  0  0.082259  0  0.113154  0.122045  0  0.99128  0
H  H35  1  0.46691368  0.10410991  0.79423492  1  0  0.109482  0  0.938129  0  0  0.124278  0  0.990101  0  0  0.127302  0  0.988838  0  0.082226  0  0.113167  0.122066  0  0.991228  0
H  H36  1  0.34529221  0.43126495  0.33969890  1  0  0.121545  0  0.950225  0  0  0.129212  0  1.011381  0  0  0.133073  0  1.00832  0  0.142426  0  0.115373  0.126344  0  1.013702  0
H  H37  1  0.65470676  0.56873672  0.66029891  1  0  0.121578  0  0.950204  0  0  0.129261  0  1.011348  0  0  0.133122  0  1.008287  0  0.142125  0  0.115396  0.126396  0  1.013665  0
H  H38  1  0.17264181  0.48105140  0.45694043  1  0  0.111028  0  0.942759  0  0  0.121269  0  1.002263  0  0  0.124027  0  1.001556  0  0.091122  0  0.113252  0.119321  0  1.002857  0
H  H39  1  0.82735818  0.51894318  0.54305804  1  0  0.111077  0  0.942724  0  0  0.121306  0  1.002223  0  0  0.124064  0  1.001516  0  0.091158  0  0.113258  0.119358  0  1.002815  0
H  H40  1  0.29339001  0.25610276  0.70769861  1  0  0.107644  0  0.956181  0  0  0.120227  0  1.013806  0  0  0.123291  0  1.012132  0  0.082344  0  0.113908  0.11796  0  1.015254  0
H  H41  1  0.70660894  0.74389182  0.29229728  1  0  0.107679  0  0.95611  0  0  0.120267  0  1.01372  0  0  0.123331  0  1.012044  0  0.082334  0  0.113902  0.118  0  1.015169  0
H  H42  1  0.46608590  0.20456182  0.58884588  1  0  0.104791  0  0.940659  0  0  0.116415  0  0.99661  0  0  0.119495  0  0.994861  0  0.099053  0  0.110556  0.114212  0  0.99784  0
H  H43  1  0.53390816  0.79543364  0.41114711  1  0  0.104769  0  0.940618  0  0  0.116406  0  0.996564  0  0  0.119491  0  0.994815  0  0.099054  0  0.110513  0.114202  0  0.997796  0
H  H44  1  0.14717267  0.58801834  0.61670260  1  0  0.11021  0  0.947466  0  0  0.115677  0  1.01598  0  0  0.119113  0  1.011672  0  0.187495  0  0.140257  0.1131  0  1.019185  0
H  H45  1  0.85282835  0.41197624  0.38329183  1  0  0.110217  0  0.947422  0  0  0.115677  0  1.015945  0  0  0.119122  0  1.011642  0  0.18776  0  0.140243  0.1131  0  1.019151  0
H  H46  1  0.93980313  0.39786229  0.86581047  1  0  0.111931  0  0.945724  0  0  0.121846  0  1.003069  0  0  0.124313  0  1.002394  0  0.122221  0  0.122842  0.120204  0  1.003352  0
H  H47  1  0.06019583  0.60213229  0.13418377  1  0  0.111956  0  0.945721  0  0  0.121848  0  1.003082  0  0  0.124314  0  1.00241  0  0.122261  0  0.122868  0.120205  0  1.003365  0
H  H48  1  0.07296658  0.25086591  0.75528573  1  0  0.13116  0  0.936122  0  0  0.143611  0  0.991023  0  0  0.146488  0  0.989082  0  0.154425  0  0.135066  0.141424  0  0.992712  0
H  H49  1  0.92702954  0.74912956  0.24470662  1  0  0.13108  0  0.936134  0  0  0.14352  0  0.991077  0  0  0.146437  0  0.989079  0  0.154316  0  0.135051  0.141332  0  0.992767  0
C  C50  1  0.76117514  0.65292726  0.93810933  1  0  0.652158  0  3.87116  0  0  0.603401  0  4.173882  0  0  0.636429  0  4.167059  0  1.549466  0  0.198555  0.58103  0  4.177541  0
C  C51  1  0.23883132  0.34707885  0.06189680  1  0  0.652204  0  3.870995  0  0  0.603456  0  4.17369  0  0  0.636488  0  4.16686  0  1.549671  0  0.198615  0.581086  0  4.177346  0
C  C52  1  0.61006833  0.59223514  0.95757525  1  0  -0.115388  0  3.651127  0  0  -0.112421  0  3.884075  0  0  -0.118584  0  3.899627  0  0.026766  0  -0.094597  -0.108295  0  3.873352  0
C  C53  1  0.38994044  0.40776831  0.04243515  1  0  -0.115665  0  3.651204  0  0  -0.112729  0  3.884211  0  0  -0.118893  0  3.899752  0  0.026748  0  -0.094766  -0.108597  0  3.873494  0
C  C54  1  0.55430048  0.46965877  0.89555621  1  0  -0.114875  0  3.695103  0  0  -0.15937  0  3.951895  0  0  -0.159217  0  3.964701  0  -0.051471  0  -0.176132  -0.159321  0  3.942827  0
C  C55  1  0.44570959  0.53034557  0.10445433  1  0  -0.114854  0  3.6953  0  0  -0.159296  0  3.951938  0  0  -0.159152  0  3.964774  0  -0.05402  0  -0.176045  -0.159264  0  3.942889  0
C  C56  1  0.40325195  0.41278430  0.91757183  1  0  -0.114828  0  3.702916  0  0  -0.158545  0  3.961919  0  0  -0.159336  0  3.976652  0  -0.043531  0  -0.171105  -0.157816  0  3.951668  0
C  C57  1  0.59675759  0.58721827  0.08243694  1  0  -0.114919  0  3.703346  0  0  -0.15857  0  3.962165  0  0  -0.159374  0  3.976913  0  -0.04388  0  -0.1711  -0.157827  0  3.951908  0
C  C58  1  0.03278891  0.88898736  0.71180863  1  0  0.646915  0  3.884707  0  0  0.602085  0  4.182786  0  0  0.634973  0  4.176313  0  1.532554  0  0.191018  0.579986  0  4.185452  0
C  C59  1  0.96719948  0.11100988  0.28819052  1  0  0.647163  0  3.884534  0  0  0.602244  0  4.182727  0  0  0.635127  0  4.176259  0  1.533038  0  0.191224  0.580146  0  4.185392  0
C  C60  1  0.04838503  0.96634799  0.61253287  1  0  -0.113863  0  3.657374  0  0  -0.110166  0  3.891968  0  0  -0.115904  0  3.906881  0  0.004652  0  -0.097343  -0.106278  0  3.881624  0
C  C61  1  0.95160362  0.03364659  0.38746538  1  0  -0.113906  0  3.657346  0  0  -0.110162  0  3.891915  0  0  -0.115887  0  3.906833  0  0.004729  0  -0.097327  -0.106276  0  3.881576  0
C  C62  1  0.07307094  0.90275893  0.50608813  1  0  -0.122974  0  3.695291  0  0  -0.167693  0  3.95344  0  0  -0.167719  0  3.966319  0  -0.040185  0  -0.176619  -0.167672  0  3.944665  0
C  C63  1  0.92692235  0.09724098  0.49391158  1  0  -0.123033  0  3.695451  0  0  -0.167714  0  3.953463  0  0  -0.16775  0  3.96633  0  -0.040141  0  -0.17665  -0.1677  0  3.944697  0
C  C64  1  0.08413516  0.98376779  0.40934855  1  0  -0.111664  0  3.681242  0  0  -0.152349  0  3.934512  0  0  -0.153372  0  3.949316  0  -0.015828  0  -0.167236  -0.151343  0  3.924174  0
C  C65  1  0.91585737  0.01623300  0.59065525  1  0  -0.111795  0  3.681178  0  0  -0.152455  0  3.934416  0  0  -0.153456  0  3.949198  0  -0.015802  0  -0.167249  -0.151448  0  3.924087  0
C  C66  1  0.16521256  0.82066970  0.01388220  1  0  0.19875  0  3.595983  0  0  0.135019  0  3.859729  0  0  0.150895  0  3.868829  0  0.957666  0  0.162622  0.124748  0  3.853312  0
C  C67  1  0.83478486  0.17933021  0.98611954  1  0  0.198633  0  3.595964  0  0  0.134927  0  3.859726  0  0  0.1508  0  3.868828  0  0.957687  0  0.162563  0.124657  0  3.853308  0
C  C68  1  0.29804511  0.73677808  0.91962262  1  0  0.012822  0  3.727965  0  0  -0.021604  0  3.997206  0  0  -0.019467  0  4.016128  0  0.392999  0  0.004148  -0.022878  0  3.984197  0
C  C69  1  0.70195798  0.26322360  0.08037889  1  0  0.012877  0  3.727763  0  0  -0.021527  0  3.997011  0  0  -0.019392  0  4.01593  0  0.393006  0  0.004258  -0.022801  0  3.984001  0
C  C70  1  0.38890379  0.81661699  0.99701900  1  0  -0.0574  0  3.654644  0  0  -0.100705  0  3.917492  0  0  -0.099672  0  3.936585  0  0.279351  0  0.003072  -0.101359  0  3.904773  0
C  C71  1  0.61109518  0.18338469  0.00298212  1  0  -0.057319  0  3.654391  0  0  -0.100617  0  3.917249  0  0  -0.099582  0  3.936339  0  0.279811  0  0.003087  -0.101273  0  3.904532  0
C  C72  1  0.35303166  0.96264122  0.14130731  1  0  0.189198  0  3.77782  0  0  0.178572  0  4.028682  0  0  0.185888  0  4.050236  0  0.204628  0  0.105726  0.173839  0  4.014217  0
C  C73  1  0.64696060  0.03735869  0.85868981  1  0  0.189037  0  3.77787  0  0  0.178427  0  4.028745  0  0  0.18574  0  4.050305  0  0.204625  0  0.105648  0.173696  0  4.014275  0
C  C74  1  0.27867639  0.05098567  0.14982640  1  0  -0.12689  0  3.672  0  0  -0.148192  0  3.925028  0  0  -0.152797  0  3.944037  0  0.079131  0  -0.072092  -0.145558  0  3.912653  0
C  C75  1  0.72132156  0.94901600  0.85017380  1  0  -0.126653  0  3.672179  0  0  -0.148031  0  3.925179  0  0  -0.152629  0  3.944171  0  0.078916  0  -0.072039  -0.145399  0  3.912805  0
C  C76  1  0.33350116  0.14644467  0.22797660  1  0  -0.030099  0  3.713489  0  0  -0.054745  0  3.964322  0  0  -0.053503  0  3.985489  0  0.020966  0  -0.06809  -0.055381  0  3.949998  0
C  C77  1  0.66649935  0.85355524  0.77202295  1  0  -0.030126  0  3.713601  0  0  -0.054768  0  3.96447  0  0  -0.053525  0  3.985641  0  0.021195  0  -0.068042  -0.055408  0  3.950149  0
C  C78  1  0.46153762  0.15269358  0.29576870  1  0  -0.126253  0  3.764187  0  0  -0.1041  0  4.016875  0  0  -0.112113  0  4.041399  0  -0.238682  0  -0.023664  -0.098906  0  4.000652  0
C  C79  1  0.53846444  0.84730455  0.70422927  1  0  -0.126221  0  3.764326  0  0  -0.10405  0  4.016975  0  0  -0.112064  0  4.041502  0  -0.238722  0  -0.023647  -0.098855  0  4.000748  0
C  C80  1  0.53354739  0.06277391  0.29023421  1  0  -0.047806  0  3.755561  0  0  -0.070789  0  4.001303  0  0  -0.069446  0  4.022071  0  -0.040574  0  -0.075655  -0.071454  0  3.986821  0
C  C81  1  0.46644925  0.93722333  0.70976156  1  0  -0.047913  0  3.755488  0  0  -0.070886  0  4.001242  0  0  -0.06954  0  4.022005  0  -0.040745  0  -0.075701  -0.071554  0  3.986762  0
C  C82  1  0.47833518  0.96678085  0.21238604  1  0  -0.144263  0  3.730018  0  0  -0.165389  0  3.983123  0  0  -0.170245  0  4.002841  0  0.034435  0  -0.085729  -0.162322  0  3.969684  0
C  C83  1  0.52166018  0.03321905  0.78761137  1  0  -0.144246  0  3.729938  0  0  -0.165331  0  3.983006  0  0  -0.170187  0  4.002722  0  0.034527  0  -0.085683  -0.162266  0  3.969568  0
C  C84  1  0.41590031  0.31620857  0.45879286  1  0  -0.126574  0  3.76573  0  0  -0.10292  0  4.015777  0  0  -0.111778  0  4.041085  0  -0.192099  0  -0.022822  -0.097256  0  3.998793  0
C  C85  1  0.58410071  0.68378956  0.54120170  1  0  -0.126585  0  3.765626  0  0  -0.102982  0  4.015795  0  0  -0.11184  0  4.041105  0  -0.191998  0  -0.02281  -0.097317  0  3.998804  0
C  C86  1  0.33444842  0.39392401  0.42060846  1  0  -0.026702  0  3.703732  0  0  -0.051068  0  3.953292  0  0  -0.048624  0  3.971864  0  0.002576  0  -0.066682  -0.052421  0  3.940801  0
C  C87  1  0.66555234  0.60607323  0.57938687  1  0  -0.026832  0  3.703812  0  0  -0.051234  0  3.953431  0  0  -0.048793  0  3.972003  0  0.002949  0  -0.066777  -0.052586  0  3.940942  0
C  C88  1  0.23736350  0.42138377  0.48644088  1  0  -0.113788  0  3.67921  0  0  -0.139012  0  3.93906  0  0  -0.143535  0  3.957246  0  0.037108  0  -0.074217  -0.13636  0  3.92699  0
C  C89  1  0.76263985  0.57861525  0.51355724  1  0  -0.113739  0  3.679138  0  0  -0.138914  0  3.938951  0  0  -0.143436  0  3.957135  0  0.037179  0  -0.07414  -0.136262  0  3.926881  0
C  C90  1  0.22367290  0.37204259  0.58968362  1  0  0.209941  0  3.745673  0  0  0.200681  0  3.994539  0  0  0.209343  0  4.014249  0  0.346679  0  0.115379  0.194844  0  3.981175  0
C  C91  1  0.77632735  0.62795642  0.41031172  1  0  0.20999  0  3.74555  0  0  0.200687  0  3.994413  0  0  0.20935  0  4.014118  0  0.346851  0  0.115384  0.19485  0  3.98105  0
C  C92  1  0.30380991  0.29248663  0.62646463  1  0  -0.134186  0  3.706379  0  0  -0.157351  0  3.962503  0  0  -0.162662  0  3.982224  0  -0.025756  0  -0.078269  -0.153767  0  3.949163  0
C  C93  1  0.69618440  0.70750617  0.37352828  1  0  -0.134253  0  3.706326  0  0  -0.157401  0  3.962419  0  0  -0.162713  0  3.982143  0  -0.026113  0  -0.078276  -0.153814  0  3.949076  0
C  C94  1  0.40033785  0.26412923  0.56064308  1  0  -0.044109  0  3.752111  0  0  -0.066719  0  3.997789  0  0  -0.064838  0  4.017721  0  -0.0188  0  -0.074382  -0.067696  0  3.984151  0
C  C95  1  0.59966009  0.73586890  0.43935202  1  0  -0.044051  0  3.751955  0  0  -0.066662  0  3.997645  0  0  -0.064791  0  4.017588  0  -0.018832  0  -0.07431  -0.067641  0  3.984012  0
C  C96  1  0.10448290  0.51604535  0.66722375  1  0  0.177391  0  3.618298  0  0  0.114918  0  3.885481  0  0  0.12954  0  3.895803  0  0.944398  0  0.150514  0.105362  0  3.878305  0
C  C97  1  0.89551865  0.48395456  0.33277755  1  0  0.177417  0  3.618152  0  0  0.114924  0  3.885325  0  0  0.129529  0  3.89566  0  0.94411  0  0.150551  0.10537  0  3.878148  0
C  C98  1  0.00135250  0.41448024  0.79632149  1  0  0.011192  0  3.721618  0  0  -0.021417  0  3.982791  0  0  -0.020407  0  4.003049  0  0.401179  0  0.005384  -0.022073  0  3.968839  0
C  C99  1  0.99864672  0.58551522  0.20367612  1  0  0.011078  0  3.721654  0  0  -0.021521  0  3.982867  0  0  -0.020509  0  4.003132  0  0.401282  0  0.005316  -0.022173  0  3.968913  0
C  C100  1  0.06631486  0.34097185  0.74217362  1  0  -0.036907  0  3.634037  0  0  -0.080783  0  3.895564  0  0  -0.078921  0  3.914119  0  0.305383  0  0.015386  -0.082051  0  3.883191  0
C  C101  1  0.93368745  0.65902361  0.25782511  1  0  -0.036739  0  3.634048  0  0  -0.080626  0  3.895555  0  0  -0.078795  0  3.914095  0  0.305566  0  0.015458  -0.081894  0  3.883182  0
S  S102  1  0.54535829  0.28593081  0.37832529  1  0  1.055677  0  5.264387  0  0  0.982804  0  5.757909  0  0  1.022114  0  5.747352  0  2.462118  0  0.473611  0.955377  0  5.765245  0
S  S103  1  0.45464222  0.71406909  0.62167177  1  0  1.055601  0  5.264422  0  0  0.982782  0  5.75793  0  0  1.022086  0  5.747375  0  2.462062  0  0.473559  0.955353  0  5.76527  0
N  N104  1  0.15971549  0.73966349  0.93188548  1  0  -0.379641  0  3.319934  0  0  -0.298892  0  3.621445  0  0  -0.318648  0  3.631549  0  -1.22243  0  -0.35619  -0.285596  0  3.614454  0
N  N105  1  0.84028528  0.26033375  0.06811482  1  0  -0.379573  0  3.319988  0  0  -0.298844  0  3.621496  0  0  -0.318597  0  3.631596  0  -1.222477  0  -0.356216  -0.285549  0  3.614504  0
N  N106  1  0.30343944  0.86937755  0.05642113  1  0  -0.094982  0  3.597531  0  0  -0.004644  0  3.811136  0  0  -0.020035  0  3.83568  0  -1.247662  0  -0.221447  0.005638  0  3.794111  0
N  N107  1  0.69655618  0.13062324  0.94357716  1  0  -0.09497  0  3.597261  0  0  -0.004662  0  3.810889  0  0  -0.020053  0  3.83543  0  -1.247587  0  -0.221424  0.00562  0  3.793864  0
N  N108  1  0.13126868  0.40599786  0.65984257  1  0  -0.092566  0  3.578093  0  0  -0.004963  0  3.79313  0  0  -0.020443  0  3.817956  0  -1.246949  0  -0.21982  0.005424  0  3.776074  0
N  N109  1  0.86873493  0.59400204  0.34015478  1  0  -0.092615  0  3.578075  0  0  -0.00496  0  3.793076  0  0  -0.020439  0  3.817912  0  -1.246966  0  -0.219872  0.005425  0  3.776021  0
N  N110  1  0.02684610  0.52313692  0.74926641  1  0  -0.365051  0  3.276201  0  0  -0.286408  0  3.569174  0  0  -0.304807  0  3.58083  0  -1.23008  0  -0.349888  -0.273923  0  3.561063  0
N  N111  1  0.97315699  0.47686121  0.25073332  1  0  -0.36509  0  3.276066  0  0  -0.286429  0  3.56902  0  0  -0.304827  0  3.580673  0  -1.230396  0  -0.349919  -0.273943  0  3.560906  0
O  O112  1  0.83775336  0.73372946  0.00444186  1  0  -0.627053  0  1.902037  0  0  -0.58571  0  2.127488  0  0  -0.608036  0  2.118462  0  -1.189662  0  -0.333262  -0.569968  0  2.133466  0
O  O113  1  0.16225182  0.26628287  0.99556106  1  0  -0.62704  0  1.901953  0  0  -0.585652  0  2.127347  0  0  -0.607974  0  2.118311  0  -1.189824  0  -0.333226  -0.569911  0  2.133324  0
O  O114  1  0.79909853  0.61455207  0.84612457  1  0  -0.669687  0  2.080991  0  0  -0.591155  0  2.364961  0  0  -0.619692  0  2.347518  0  -1.184051  0  -0.344726  -0.571034  0  2.375997  0
O  O115  1  0.20090973  0.38544961  0.15388406  1  0  -0.669611  0  2.08086  0  0  -0.591139  0  2.364924  0  0  -0.619679  0  2.347479  0  -1.184001  0  -0.344765  -0.571014  0  2.375954  0
O  O116  1  0.01107154  0.77539896  0.68708399  1  0  -0.662848  0  2.037894  0  0  -0.58673  0  2.313811  0  0  -0.616278  0  2.300129  0  -1.163017  0  -0.348529  -0.565765  0  2.32216  0
O  O117  1  0.98892434  0.22459916  0.31291838  1  0  -0.662935  0  2.037958  0  0  -0.586769  0  2.313894  0  0  -0.616316  0  2.300214  0  -1.163018  0  -0.348555  -0.565807  0  2.322249  0
O  O118  1  0.03663238  0.93499785  0.80766259  1  0  -0.637776  0  1.875261  0  0  -0.5991  0  2.091793  0  0  -0.620906  0  2.082667  0  -1.199527  0  -0.351172  -0.583796  0  2.096921  0
O  O119  1  0.96335628  0.06500028  0.19233992  1  0  -0.637902  0  1.875056  0  0  -0.599201  0  2.091649  0  0  -0.621002  0  2.082522  0  -1.199999  0  -0.351333  -0.583899  0  2.096778  0
O  O120  1  0.57441504  0.37927520  0.30113767  1  0  -0.579199  0  1.972308  0  0  -0.532091  0  2.223187  0  0  -0.553726  0  2.216256  0  -1.294169  0  -0.301909  -0.5168  0  2.227501  0
O  O121  1  0.42558755  0.62072826  0.69886137  1  0  -0.579095  0  1.972301  0  0  -0.53207  0  2.223244  0  0  -0.553699  0  2.216309  0  -1.294077  0  -0.30188  -0.516773  0  2.227545  0
O  O122  1  0.66239203  0.26398553  0.45369285  1  0  -0.577958  0  1.921163  0  0  -0.53665  0  2.155914  0  0  -0.555932  0  2.145184  0  -1.304388  0  -0.31437  -0.52303  0  2.162828  0
O  O123  1  0.33760565  0.73601526  0.54630729  1  0  -0.577962  0  1.921155  0  0  -0.536645  0  2.155881  0  0  -0.555923  0  2.145149  0  -1.304417  0  -0.314369  -0.523026  0  2.162797  0
