# generated using pymatgen
data_NaH9C5N2O5
_symmetry_space_group_name_H-M   'P 1'
_cell_length_a   5.02938973
_cell_length_b   9.32326414
_cell_length_c   17.10607286
_cell_angle_alpha   89.99965769
_cell_angle_beta   89.99953799
_cell_angle_gamma   90.00032932
_symmetry_Int_Tables_number   1
_chemical_formula_structural   NaH9C5N2O5
_chemical_formula_sum   'Na4 H36 C20 N8 O20'
_cell_volume   802.10938292
_cell_formula_units_Z   4
loop_
 _symmetry_equiv_pos_site_id
 _symmetry_equiv_pos_as_xyz
  1  'x, y, z'
loop_
 _atom_site_type_symbol
 _atom_site_label
 _atom_site_symmetry_multiplicity
 _atom_site_fract_x
 _atom_site_fract_y
 _atom_site_fract_z
 _atom_site_occupancy
 _atom_site_hle17_bader_spin_density
 _atom_site_hle17_ddec_charge
 _atom_site_hle17_ddec_spin_density
 _atom_site_hle17_ddec_sum_bond_order
 _atom_site_hle17_magmom
 _atom_site_hse06_10hf_bader_spin_density
 _atom_site_hse06_10hf_ddec_charge
 _atom_site_hse06_10hf_ddec_spin_density
 _atom_site_hse06_10hf_ddec_sum_bond_order
 _atom_site_hse06_10hf_magmom
 _atom_site_hse06_bader_spin_density
 _atom_site_hse06_ddec_charge
 _atom_site_hse06_ddec_spin_density
 _atom_site_hse06_ddec_sum_bond_order
 _atom_site_hse06_magmom
 _atom_site_pbe_bader_spin_density
 _atom_site_pbe_cm5_charge
 _atom_site_pbe_ddec_charge
 _atom_site_pbe_ddec_spin_density
 _atom_site_pbe_ddec_sum_bond_order
 _atom_site_pbe_magmom
Na  Na0  1  0.24295147  0.05712156  0.86357127  1  0  0.891029  0  0.389034  0  0  0.833169  0  0.561347  0  0  0.846322  0  0.537143  0  0  0.706743  0.823595  0  0.57873  0
Na  Na1  1  0.74295323  0.94289040  0.63643227  1  0  0.890993  0  0.389095  0  0  0.833171  0  0.561335  0  0  0.846329  0  0.537132  0  0  0.70675  0.823593  0  0.578719  0
Na  Na2  1  0.75703457  0.44289211  0.36356859  1  0  0.891007  0  0.389081  0  0  0.833179  0  0.561314  0  0  0.846361  0  0.537076  0  0  0.706758  0.823613  0  0.578699  0
Na  Na3  1  0.25704708  0.55712312  0.13642164  1  0  0.891002  0  0.389073  0  0  0.833149  0  0.561365  0  0  0.846302  0  0.537152  0  0  0.706724  0.823581  0  0.578752  0
H  H4  1  0.72927007  0.72057141  0.00902390  1  0  0.096829  0  0.943708  0  0  0.103601  0  1.009645  0  0  0.106438  0  1.007992  0  0  0.125279  0.101446  0  1.011127  0
H  H5  1  0.22927999  0.27944804  0.49096698  1  0  0.096899  0  0.943753  0  0  0.103604  0  1.009745  0  0  0.106445  0  1.008082  0  0  0.125308  0.101452  0  1.011226  0
H  H6  1  0.27068372  0.77944026  0.50902752  1  0  0.096742  0  0.943822  0  0  0.103535  0  1.009745  0  0  0.106364  0  1.008094  0  0  0.125281  0.101383  0  1.011218  0
H  H7  1  0.77073468  0.22056855  0.99097653  1  0  0.096767  0  0.943739  0  0  0.103578  0  1.009691  0  0  0.106412  0  1.00804  0  0  0.125257  0.101422  0  1.011163  0
H  H8  1  0.65151132  0.48059327  0.98119727  1  0  0.085815  0  0.932831  0  0  0.102598  0  0.991384  0  0  0.103596  0  0.992183  0  0  0.101491  0.101793  0  0.990869  0
H  H9  1  0.15151434  0.51942384  0.51880475  1  0  0.0858  0  0.932677  0  0  0.102561  0  0.991291  0  0  0.103557  0  0.992091  0  0  0.101524  0.101757  0  0.990776  0
H  H10  1  0.34848968  0.01940734  0.48119646  1  0  0.085745  0  0.932713  0  0  0.102551  0  0.991289  0  0  0.10355  0  0.992086  0  0  0.101457  0.101744  0  0.99077  0
H  H11  1  0.84848891  0.98058772  0.01880580  1  0  0.085815  0  0.932663  0  0  0.102622  0  0.991209  0  0  0.103622  0  0.992006  0  0  0.101528  0.101816  0  0.990691  0
H  H12  1  0.00308056  0.46676469  0.98962379  1  0  0.094741  0  0.965989  0  0  0.104601  0  1.035756  0  0  0.107174  0  1.034253  0  0  0.103023  0.102583  0  1.037082  0
H  H13  1  0.50309199  0.53324993  0.51037744  1  0  0.09475  0  0.965962  0  0  0.104588  0  1.035746  0  0  0.107169  0  1.034237  0  0  0.103007  0.102572  0  1.037074  0
H  H14  1  0.99691426  0.03325406  0.48961659  1  0  0.094791  0  0.96597  0  0  0.104635  0  1.035754  0  0  0.107217  0  1.034246  0  0  0.103016  0.102614  0  1.037074  0
H  H15  1  0.49691546  0.96676387  0.01038354  1  0  0.094764  0  0.965906  0  0  0.10459  0  1.035701  0  0  0.107168  0  1.034198  0  0  0.103029  0.102573  0  1.037023  0
H  H16  1  0.77799079  0.37773527  0.85424236  1  0  0.093005  0  0.951306  0  0  0.11032  0  1.009783  0  0  0.110847  0  1.010953  0  0  0.103745  0.109737  0  1.009308  0
H  H17  1  0.27801387  0.62225532  0.64576518  1  0  0.093  0  0.951324  0  0  0.110372  0  1.009701  0  0  0.110903  0  1.010866  0  0  0.103757  0.109786  0  1.009234  0
H  H18  1  0.22204519  0.12225490  0.35423628  1  0  0.09296  0  0.951468  0  0  0.110201  0  1.009985  0  0  0.110717  0  1.011172  0  0  0.103742  0.10963  0  1.009491  0
H  H19  1  0.72200808  0.87774094  0.14576690  1  0  0.09302  0  0.951267  0  0  0.110311  0  1.009747  0  0  0.110838  0  1.010919  0  0  0.103745  0.109729  0  1.009277  0
H  H20  1  0.05672919  0.49403601  0.84674693  1  0  0.069754  0  0.939868  0  0  0.089424  0  0.997368  0  0  0.090291  0  0.997625  0  0  0.094535  0.088676  0  0.997394  0
H  H21  1  0.55673868  0.50595299  0.65325124  1  0  0.069808  0  0.939853  0  0  0.089418  0  0.997403  0  0  0.090283  0  0.99766  0  0  0.094538  0.088674  0  0.997427  0
H  H22  1  0.94328908  0.00597355  0.34673996  1  0  0.069804  0  0.939566  0  0  0.089363  0  0.997185  0  0  0.09023  0  0.99744  0  0  0.094468  0.088617  0  0.997218  0
H  H23  1  0.44327911  0.99404533  0.15325738  1  0  0.069916  0  0.939764  0  0  0.089507  0  0.997308  0  0  0.090374  0  0.997565  0  0  0.094576  0.088762  0  0.997339  0
H  H24  1  0.46553090  0.57602283  0.84073963  1  0  0.070805  0  0.922311  0  0  0.088122  0  0.980825  0  0  0.088776  0  0.980817  0  0  0.111242  0.087596  0  0.980939  0
H  H25  1  0.96555108  0.42396713  0.65926158  1  0  0.070725  0  0.922166  0  0  0.088026  0  0.980755  0  0  0.08868  0  0.980759  0  0  0.111196  0.087503  0  0.980873  0
H  H26  1  0.53447624  0.92395310  0.34074343  1  0  0.070779  0  0.922298  0  0  0.088068  0  0.980827  0  0  0.088724  0  0.980826  0  0  0.111243  0.087544  0  0.980944  0
H  H27  1  0.03446790  0.07603586  0.15926432  1  0  0.070777  0  0.922202  0  0  0.088003  0  0.980824  0  0  0.088654  0  0.980831  0  0  0.111224  0.087487  0  0.980942  0
H  H28  1  0.71721870  0.62999600  0.77350520  1  0  0.086251  0  0.940393  0  0  0.101849  0  1.002374  0  0  0.102899  0  1.001741  0  0  0.11623  0.101071  0  1.002806  0
H  H29  1  0.21723842  0.36998158  0.72648905  1  0  0.086165  0  0.940494  0  0  0.101901  0  1.002321  0  0  0.102956  0  1.001689  0  0  0.116247  0.10112  0  1.002755  0
H  H30  1  0.28279211  0.86998923  0.27350983  1  0  0.086322  0  0.940489  0  0  0.101961  0  1.002357  0  0  0.10301  0  1.001734  0  0  0.116262  0.101181  0  1.002795  0
H  H31  1  0.78277690  0.13000782  0.22649787  1  0  0.086266  0  0.940337  0  0  0.101828  0  1.002345  0  0  0.102887  0  1.001704  0  0  0.116228  0.101053  0  1.002787  0
H  H32  1  0.55175282  0.78694662  0.89471006  1  0  0.305285  0  0.897866  0  0  0.28412  0  0.96404  0  0  0.292927  0  0.957348  0  0  0.311387  0.277861  0  0.968861  0
H  H33  1  0.05175957  0.21305524  0.60527702  1  0  0.305374  0  0.897849  0  0  0.284209  0  0.964003  0  0  0.293015  0  0.957312  0  0  0.311451  0.27795  0  0.968821  0
H  H34  1  0.44821520  0.71304696  0.39472297  1  0  0.305365  0  0.897861  0  0  0.284213  0  0.964056  0  0  0.293023  0  0.95736  0  0  0.311441  0.277955  0  0.968876  0
H  H35  1  0.94823889  0.28695155  0.10528781  1  0  0.305271  0  0.89792  0  0  0.284125  0  0.96409  0  0  0.292934  0  0.957397  0  0  0.311413  0.277866  0  0.968909  0
H  H36  1  0.86796666  0.79831231  0.85817465  1  0  0.304842  0  0.865264  0  0  0.282622  0  0.933939  0  0  0.291137  0  0.926726  0  0  0.319934  0.276328  0  0.939586  0
H  H37  1  0.36798826  0.20167850  0.64180986  1  0  0.304963  0  0.864933  0  0  0.282723  0  0.933664  0  0  0.29124  0  0.926452  0  0  0.319927  0.276425  0  0.939322  0
H  H38  1  0.13200226  0.70168488  0.35818082  1  0  0.304899  0  0.865015  0  0  0.28266  0  0.93377  0  0  0.29118  0  0.92655  0  0  0.319907  0.276364  0  0.939431  0
H  H39  1  0.63201923  0.29831503  0.14182434  1  0  0.304979  0  0.865031  0  0  0.282712  0  0.933796  0  0  0.291235  0  0.92657  0  0  0.31992  0.276416  0  0.939456  0
C  C40  1  0.13635327  0.74109162  0.96942975  1  0  0.655982  0  3.893555  0  0  0.610078  0  4.199467  0  0  0.641517  0  4.192927  0  0  0.20973  0.588758  0  4.203006  0
C  C41  1  0.63635062  0.25891473  0.53055886  1  0  0.655827  0  3.893154  0  0  0.609902  0  4.199127  0  0  0.641347  0  4.192581  0  0  0.209684  0.588575  0  4.202671  0
C  C42  1  0.86361884  0.75892046  0.46944436  1  0  0.656014  0  3.893357  0  0  0.610065  0  4.199361  0  0  0.6415  0  4.192818  0  0  0.209694  0.588742  0  4.202903  0
C  C43  1  0.36365169  0.24108643  0.03056313  1  0  0.656117  0  3.893329  0  0  0.610235  0  4.199284  0  0  0.641672  0  4.192749  0  0  0.20989  0.58891  0  4.202822  0
C  C44  1  0.85286337  0.68094941  0.96087875  1  0  0.000796  0  3.486364  0  0  -0.021957  0  3.727412  0  0  -0.022602  0  3.73735  0  0  0.007298  -0.021589  0  3.72055  0
C  C45  1  0.35286920  0.31905423  0.53911457  1  0  0.000835  0  3.486488  0  0  -0.021836  0  3.727481  0  0  -0.022478  0  3.737411  0  0  0.007306  -0.021468  0  3.720621  0
C  C46  1  0.14711890  0.81905740  0.46088214  1  0  0.00104  0  3.486028  0  0  -0.021677  0  3.727139  0  0  -0.022312  0  3.737072  0  0  0.007326  -0.021305  0  3.720264  0
C  C47  1  0.64714483  0.18095220  0.03912298  1  0  0.000925  0  3.486185  0  0  -0.021964  0  3.727487  0  0  -0.022606  0  3.737428  0  0  0.007319  -0.021588  0  3.720607  0
C  C48  1  0.84172381  0.51673440  0.95650749  1  0  -0.143872  0  3.636487  0  0  -0.184484  0  3.89029  0  0  -0.185688  0  3.901713  0  0  -0.158055  -0.183368  0  3.882374  0
C  C49  1  0.34173966  0.48326814  0.54349112  1  0  -0.143818  0  3.636145  0  0  -0.184413  0  3.889962  0  0  -0.185618  0  3.901371  0  0  -0.158041  -0.183295  0  3.882041  0
C  C50  1  0.15825857  0.98327353  0.45650388  1  0  -0.143993  0  3.636375  0  0  -0.184624  0  3.890207  0  0  -0.185835  0  3.901624  0  0  -0.158095  -0.183504  0  3.882271  0
C  C51  1  0.65827426  0.01673931  0.04349712  1  0  -0.14399  0  3.636381  0  0  -0.184551  0  3.890267  0  0  -0.185764  0  3.901689  0  0  -0.15817  -0.183428  0  3.882319  0
C  C52  1  0.85204602  0.48474072  0.86892401  1  0  -0.127012  0  3.659363  0  0  -0.169188  0  3.922032  0  0  -0.170673  0  3.935084  0  0  -0.159379  -0.167933  0  3.913046  0
C  C53  1  0.35206607  0.51525112  0.63107749  1  0  -0.127078  0  3.65924  0  0  -0.169181  0  3.921878  0  0  -0.170661  0  3.934931  0  0  -0.159375  -0.167933  0  3.912894  0
C  C54  1  0.14797368  0.01525680  0.36891789  1  0  -0.126805  0  3.659139  0  0  -0.168779  0  3.921678  0  0  -0.170249  0  3.934715  0  0  -0.159258  -0.167523  0  3.912683  0
C  C55  1  0.64795028  0.98474744  0.13108255  1  0  -0.127131  0  3.659155  0  0  -0.169174  0  3.921697  0  0  -0.170654  0  3.934751  0  0  -0.159379  -0.16792  0  3.912725  0
C  C56  1  0.67716915  0.60182416  0.83434159  1  0  0.04611  0  3.50768  0  0  -0.015966  0  3.770538  0  0  -0.011393  0  3.779534  0  0  -0.058512  -0.018961  0  3.764262  0
C  C57  1  0.17719673  0.39816405  0.66565569  1  0  0.046328  0  3.507474  0  0  -0.015918  0  3.770517  0  0  -0.011353  0  3.779509  0  0  -0.058538  -0.018916  0  3.764248  0
C  C58  1  0.32282821  0.89815827  0.33434368  1  0  0.045946  0  3.507955  0  0  -0.016051  0  3.770739  0  0  -0.011484  0  3.779735  0  0  -0.058531  -0.019043  0  3.764473  0
C  C59  1  0.82282408  0.10183351  0.16566157  1  0  0.046091  0  3.507532  0  0  -0.015871  0  3.770389  0  0  -0.011294  0  3.779364  0  0  -0.058515  -0.018895  0  3.764157  0
N  N60  1  0.73060529  0.73112094  0.88479356  1  0  -0.294725  0  3.240854  0  0  -0.228831  0  3.447569  0  0  -0.242836  0  3.454256  0  0  -0.470328  -0.219128  0  3.443352  0
N  N61  1  0.23060657  0.26887490  0.61519540  1  0  -0.295135  0  3.241116  0  0  -0.229197  0  3.44784  0  0  -0.243206  0  3.45455  0  0  -0.470398  -0.219502  0  3.443617  0
N  N62  1  0.26937093  0.76887167  0.38480207  1  0  -0.295072  0  3.241335  0  0  -0.22931  0  3.448219  0  0  -0.243327  0  3.454937  0  0  -0.47039  -0.21961  0  3.444003  0
N  N63  1  0.76938966  0.23112749  0.11520742  1  0  -0.294821  0  3.240882  0  0  -0.228932  0  3.447712  0  0  -0.242939  0  3.454413  0  0  -0.470294  -0.219231  0  3.443498  0
N  N64  1  0.73832705  0.13041766  0.79383562  1  0  0.675193  0  4.229298  0  0  0.709815  0  4.524374  0  0  0.737409  0  4.52922  0  0  0.046593  0.691106  0  4.521138  0
N  N65  1  0.23834195  0.86957927  0.70615741  1  0  0.674778  0  4.230045  0  0  0.709381  0  4.525183  0  0  0.736982  0  4.530039  0  0  0.046469  0.690675  0  4.52194  0
N  N66  1  0.26163688  0.36958281  0.29384089  1  0  0.67512  0  4.229873  0  0  0.709662  0  4.52504  0  0  0.737582  0  4.529706  0  0  0.04647  0.690953  0  4.5218  0
N  N67  1  0.76167651  0.63041848  0.20616627  1  0  0.675158  0  4.229507  0  0  0.709821  0  4.524513  0  0  0.737419  0  4.529356  0  0  0.046634  0.691112  0  4.521272  0
O  O68  1  0.21747568  0.82679375  0.91598825  1  0  -0.704697  0  1.989232  0  0  -0.658264  0  2.239593  0  0  -0.681351  0  2.226858  0  0  -0.394939  -0.641994  0  2.248077  0
O  O69  1  0.71749243  0.17320207  0.58400659  1  0  -0.704719  0  1.988928  0  0  -0.658243  0  2.239258  0  0  -0.68134  0  2.226524  0  0  -0.394985  -0.641966  0  2.247741  0
O  O70  1  0.78248385  0.67321140  0.41599809  1  0  -0.704823  0  1.989025  0  0  -0.658287  0  2.239323  0  0  -0.681386  0  2.226586  0  0  -0.394976  -0.642019  0  2.247818  0
O  O71  1  0.28251054  0.32679530  0.08401078  1  0  -0.704857  0  1.988895  0  0  -0.658399  0  2.239235  0  0  -0.681485  0  2.226489  0  0  -0.395062  -0.642129  0  2.247726  0
O  O72  1  0.26776838  0.70082231  0.02780265  1  0  -0.667612  0  1.917156  0  0  -0.622757  0  2.153765  0  0  -0.645572  0  2.144022  0  0  -0.397146  -0.606744  0  2.160117  0
O  O73  1  0.76777512  0.29919186  0.47218638  1  0  -0.667471  0  1.917127  0  0  -0.622641  0  2.153792  0  0  -0.645453  0  2.144036  0  0  -0.39705  -0.606631  0  2.160149  0
O  O74  1  0.73222471  0.79919452  0.52780385  1  0  -0.667486  0  1.917633  0  0  -0.62266  0  2.154308  0  0  -0.645464  0  2.144559  0  0  -0.397  -0.606641  0  2.160651  0
O  O75  1  0.23224201  0.20081849  0.97219796  1  0  -0.667612  0  1.917436  0  0  -0.622731  0  2.154036  0  0  -0.64554  0  2.144295  0  0  -0.397133  -0.606711  0  2.160378  0
O  O76  1  0.94576029  0.13006847  0.75205370  1  0  -0.501907  0  1.796625  0  0  -0.494871  0  2.029268  0  0  -0.508867  0  2.022844  0  0  -0.229369  -0.485067  0  2.033645  0
O  O77  1  0.44573438  0.86991823  0.74794756  1  0  -0.501785  0  1.796888  0  0  -0.494628  0  2.029455  0  0  -0.508625  0  2.023031  0  0  -0.229291  -0.484828  0  2.033833  0
O  O78  1  0.05425439  0.36992709  0.25205542  1  0  -0.501869  0  1.797179  0  0  -0.494663  0  2.02975  0  0  -0.508779  0  2.023276  0  0  -0.229188  -0.484859  0  2.034131  0
O  O79  1  0.55425718  0.63005762  0.24795229  1  0  -0.501971  0  1.796729  0  0  -0.494901  0  2.029325  0  0  -0.508898  0  2.022891  0  0  -0.229407  -0.485096  0  2.033706  0
O  O80  1  0.74259471  0.06851303  0.86039629  1  0  -0.535726  0  1.757485  0  0  -0.525661  0  1.990769  0  0  -0.53933  0  1.982053  0  0  -0.26118  -0.516307  0  1.997416  0
O  O81  1  0.24260414  0.93146461  0.63961017  1  0  -0.535361  0  1.758706  0  0  -0.525347  0  1.99206  0  0  -0.539015  0  1.983356  0  0  -0.260954  -0.515993  0  1.998697  0
O  O82  1  0.25739340  0.43146850  0.36039377  1  0  -0.535566  0  1.758424  0  0  -0.525495  0  1.991721  0  0  -0.539287  0  1.982972  0  0  -0.261048  -0.516131  0  1.998362  0
O  O83  1  0.75739212  0.56852099  0.13960522  1  0  -0.53567  0  1.757556  0  0  -0.525603  0  1.990783  0  0  -0.539267  0  1.982059  0  0  -0.261154  -0.516238  0  1.997424  0
O  O84  1  0.52744529  0.19142085  0.77097958  1  0  -0.500827  0  1.779568  0  0  -0.498367  0  2.010762  0  0  -0.511039  0  2.001853  0  0  -0.228368  -0.4895  0  2.016919  0
O  O85  1  0.02741507  0.80856486  0.72901984  1  0  -0.50094  0  1.778878  0  0  -0.498464  0  2.010005  0  0  -0.511172  0  2.001162  0  0  -0.228548  -0.489592  0  2.016157  0
O  O86  1  0.47256295  0.30856807  0.27097925  1  0  -0.500975  0  1.778756  0  0  -0.498512  0  2.009923  0  0  -0.511349  0  2.001038  0  0  -0.228523  -0.489637  0  2.016081  0
O  O87  1  0.97256504  0.69141978  0.22901743  1  0  -0.500759  0  1.779525  0  0  -0.498356  0  2.010714  0  0  -0.51102  0  2.001785  0  0  -0.228366  -0.489479  0  2.016865  0
