# generated using pymatgen
data_CuH17C12N3O5
_symmetry_space_group_name_H-M   'P 1'
_cell_length_a   7.12261299
_cell_length_b   9.79194598
_cell_length_c   10.10738258
_cell_angle_alpha   103.05397058
_cell_angle_beta   102.50310327
_cell_angle_gamma   90.71893440
_symmetry_Int_Tables_number   1
_chemical_formula_structural   CuH17C12N3O5
_chemical_formula_sum   'Cu2 H34 C24 N6 O10'
_cell_volume   669.02802980
_cell_formula_units_Z   2
loop_
 _symmetry_equiv_pos_site_id
 _symmetry_equiv_pos_as_xyz
  1  'x, y, z'
loop_
 _atom_site_type_symbol
 _atom_site_label
 _atom_site_symmetry_multiplicity
 _atom_site_fract_x
 _atom_site_fract_y
 _atom_site_fract_z
 _atom_site_occupancy
 _atom_site_hle17_ddec_charge
 _atom_site_hle17_ddec_spin_density
 _atom_site_hle17_ddec_sum_bond_order
 _atom_site_hle17_magmom
 _atom_site_hse06_10hf_ddec_charge
 _atom_site_hse06_10hf_ddec_spin_density
 _atom_site_hse06_10hf_ddec_sum_bond_order
 _atom_site_hse06_10hf_magmom
 _atom_site_hse06_ddec_charge
 _atom_site_hse06_ddec_spin_density
 _atom_site_hse06_ddec_sum_bond_order
 _atom_site_hse06_magmom
 _atom_site_pbe_cm5_charge
 _atom_site_pbe_ddec_charge
 _atom_site_pbe_ddec_spin_density
 _atom_site_pbe_ddec_sum_bond_order
 _atom_site_pbe_magmom
Cu  Cu0  1  0.75381693  0.37128439  0.13094720  1  0.839051  -0.720468  1.843103  -0.5  0.820719  -0.800192  2.226951  -0.616  0.902785  -0.873332  2.165444  -0.699  0.754262  0.770019  -0.747525  2.269782  -0.563
Cu  Cu1  1  0.24618393  0.62871477  0.86905346  1  0.839125  0.720484  1.843112  0.5  0.820722  0.800198  2.226942  0.616  0.902833  0.873336  2.16543  0.699  0.754267  0.770034  0.747529  2.269793  0.563
H  H2  1  0.81308464  0.60820943  0.07972127  1  0.307943  0.000754  0.910084  0.002  0.296978  -0.000184  0.970016  0.001  0.304558  1.9e-05  0.964779  0.001  0.293737  0.291448  -6.5e-05  0.974428  0.001
H  H3  1  0.18691485  0.39179078  0.92027843  1  0.307965  -0.000756  0.910105  -0.002  0.296998  0.000183  0.970032  -0.001  0.304577  -2e-05  0.964798  -0.001  0.293729  0.291467  6.5e-05  0.974441  -0.001
H  H4  1  0.59750259  0.60142245  0.11659199  1  0.305154  0.000525  0.909552  0.001  0.294769  -0.000203  0.970583  0.0  0.302479  -9.4e-05  0.966274  0.0  0.291808  0.289526  -0.000172  0.973621  0.0
H  H5  1  0.40249814  0.39857567  0.88340544  1  0.30518  -0.000525  0.909541  -0.001  0.294796  0.000202  0.970561  0.0  0.302508  9.4e-05  0.966252  0.0  0.291815  0.289556  0.000172  0.973595  0.0
H  H6  1  0.78878833  0.84725249  0.86869708  1  0.095395  -0.000279  0.991091  -0.001  0.103611  -2.4e-05  1.05691  0.0  0.104784  1.6e-05  1.057179  0.0  0.103112  0.103017  -8.8e-05  1.056046  0.0
H  H7  1  0.21122247  0.15274567  0.13130184  1  0.095437  0.000284  0.99103  0.001  0.103658  2.4e-05  1.056824  0.0  0.104819  -1.6e-05  1.057139  0.0  0.103142  0.103072  8.8e-05  1.055944  0.0
H  H8  1  0.75745631  0.82528658  0.61869916  1  0.085128  0.00021  0.971911  0.0  0.095654  -1e-05  1.034845  0.0  0.098101  1e-06  1.034885  0.0  0.09388  0.093917  -7.6e-05  1.034848  0.0
H  H9  1  0.24253716  0.17471046  0.38129895  1  0.085052  -0.000213  0.97193  0.0  0.095592  1.1e-05  1.034863  0.0  0.098043  -0.0  1.034898  0.0  0.093828  0.093854  7.6e-05  1.034864  0.0
H  H10  1  0.69046888  0.03732237  0.51943873  1  0.074158  -0.000802  0.974126  -0.001  0.086944  -0.00035  1.034192  -0.001  0.08896  -0.000204  1.032799  0.0  0.092088  0.084443  -0.000662  1.037069  -0.001
H  H11  1  0.30951590  0.96267358  0.48055984  1  0.074213  0.000801  0.974172  0.001  0.087002  0.000352  1.034223  0.001  0.089021  0.000204  1.032826  0.0  0.0921  0.084507  0.000662  1.037098  0.001
H  H12  1  0.64930798  0.26631403  0.67605338  1  0.108533  0.000526  0.976221  0.001  0.115988  2.7e-05  1.042668  0.0  0.119344  2.7e-05  1.041541  0.0  0.098156  0.113508  -6.1e-05  1.043568  0.0
H  H13  1  0.35067963  0.73368086  0.32394933  1  0.108472  -0.000526  0.976194  -0.001  0.115912  -2.6e-05  1.042672  0.0  0.119264  -2.7e-05  1.041546  0.0  0.098153  0.113433  6.1e-05  1.043573  0.0
H  H14  1  0.90537525  0.89475171  0.11515385  1  0.134032  0.0004  0.949443  0.001  0.154385  -9.6e-05  1.010948  0.0  0.155871  1e-06  1.01238  0.0  0.100275  0.152966  -8.9e-05  1.010472  0.0
H  H15  1  0.09463283  0.10524747  0.88485083  1  0.134025  -0.000402  0.949526  -0.001  0.154404  9.6e-05  1.010967  0.0  0.155891  -1e-06  1.012396  0.0  0.100283  0.152987  8.9e-05  1.010482  0.0
H  H16  1  0.66412384  0.84353974  0.02526526  1  0.138184  8.9e-05  0.969938  0.001  0.152087  -0.000276  1.037754  0.0  0.154903  -0.000193  1.036298  0.0  0.098916  0.149442  -0.000253  1.040512  0.0
H  H17  1  0.33588274  0.15645836  0.97474094  1  0.138215  -8.8e-05  0.969952  -0.001  0.152109  0.000278  1.037759  0.0  0.154927  0.000193  1.036302  0.0  0.098908  0.149462  0.000253  1.04052  0.0
H  H18  1  0.71611200  0.93211148  0.20363217  1  0.110379  0.000422  0.982166  0.001  0.13024  -1.6e-05  1.043305  0.0  0.132751  -1.2e-05  1.042419  0.0  0.091824  0.128451  -4e-06  1.044351  0.0
H  H19  1  0.28389922  0.06789086  0.79637369  1  0.110397  -0.000424  0.982165  -0.001  0.130263  1.7e-05  1.043249  0.0  0.132776  1.3e-05  1.042361  0.0  0.091834  0.128478  4e-06  1.044294  0.0
H  H20  1  0.77949694  0.75957901  0.31830649  1  0.052564  -0.003192  0.930747  -0.004  0.076953  -0.002457  0.984441  -0.003  0.076468  -0.001867  0.985568  -0.002  0.100433  0.077378  -0.002832  0.983917  -0.003
H  H21  1  0.22049533  0.24042118  0.68169017  1  0.052583  0.003195  0.930732  0.004  0.07697  0.002457  0.984429  0.003  0.07648  0.001867  0.985564  0.002  0.100441  0.077385  0.002832  0.983917  0.003
H  H22  1  0.97907197  0.65155430  0.31003737  1  0.075347  9.1e-05  0.942221  0.0  0.089333  5e-05  1.008696  0.0  0.089998  4.3e-05  1.008695  0.0  0.107835  0.088782  6.3e-05  1.008762  0.0
H  H23  1  0.02092643  0.34845011  0.68996311  1  0.075366  -8.9e-05  0.942138  0.0  0.089355  -4.9e-05  1.008621  0.0  0.090022  -4.3e-05  1.008615  0.0  0.10784  0.0888  -6.3e-05  1.008683  0.0
H  H24  1  0.82287978  0.61208818  0.49901049  1  0.07409  -0.001172  0.940149  -0.002  0.085629  -0.000985  1.005863  -0.001  0.08664  -0.000633  1.004432  -0.001  0.103777  0.085234  -0.001319  1.006477  -0.002
H  H25  1  0.17711835  0.38791308  0.50098925  1  0.074135  0.00117  0.940113  0.002  0.085653  0.000986  1.005852  0.001  0.086692  0.000633  1.004394  0.001  0.103792  0.085262  0.001319  1.006463  0.002
H  H26  1  0.59676567  0.56548822  0.37375801  1  0.068624  6.9e-05  0.945735  0.0  0.078695  0.00014  1.016297  0.0  0.080264  0.000136  1.014172  0.0  0.104113  0.077494  0.000119  1.017803  0.0
H  H27  1  0.40323239  0.43451198  0.62624148  1  0.068643  -7e-05  0.945732  0.0  0.078743  -0.000139  1.016278  0.0  0.080312  -0.000136  1.014156  0.0  0.104123  0.077536  -0.000119  1.017784  0.0
H  H28  1  0.55490005  0.33482292  0.35571698  1  0.06921  -0.000349  0.961182  -0.001  0.076515  -0.000121  1.03569  0.0  0.077073  -3e-06  1.035135  0.0  0.103053  0.075931  -0.000241  1.036265  0.0
H  H29  1  0.44509975  0.66518151  0.64428074  1  0.06921  0.000346  0.961168  0.001  0.076479  0.000122  1.0357  0.0  0.077028  3e-06  1.035158  0.0  0.10305  0.075894  0.000241  1.036273  0.0
H  H30  1  0.75406827  0.33219279  0.49867649  1  0.077932  -0.001616  0.939691  -0.002  0.095338  -0.001234  0.997743  -0.002  0.095485  -0.000756  0.997367  -0.001  0.107509  0.095484  -0.001762  0.997683  -0.002
H  H31  1  0.24592581  0.66781160  0.50132336  1  0.077957  0.001613  0.939701  0.002  0.095389  0.001235  0.997688  0.002  0.09554  0.000757  0.997311  0.001  0.107537  0.095536  0.001762  0.99763  0.002
H  H32  1  0.90931849  0.15836786  0.35117836  1  0.067218  -0.001538  0.930497  -0.002  0.086494  -0.00079  0.989354  -0.001  0.086003  -0.0006  0.990471  -0.001  0.104959  0.085994  -0.000928  0.99038  -0.001
H  H33  1  0.09067523  0.84163126  0.64882619  1  0.067216  0.001535  0.930439  0.002  0.086476  0.00079  0.98931  0.001  0.085999  0.000601  0.990402  0.001  0.104946  0.085976  0.000928  0.990337  0.001
H  H34  1  0.66169337  0.09975056  0.31657683  1  0.064432  -0.001194  0.961032  -0.002  0.086428  -0.00094  1.018168  -0.001  0.085414  -0.000793  1.020226  -0.001  0.106743  0.0866  -0.001173  1.017373  -0.001
H  H35  1  0.33830062  0.90025278  0.68342277  1  0.064426  0.001192  0.961018  0.002  0.086402  0.000942  1.018176  0.001  0.085386  0.000793  1.020227  0.001  0.106728  0.086575  0.001174  1.017377  0.001
C  C36  1  0.75552996  0.93901906  0.82659421  1  -0.055906  0.008023  3.745628  0.008  -0.079832  0.001171  3.999661  0.001  -0.07549  0.001322  4.022704  0.001  -0.092596  -0.081789  0.001112  3.982465  0.001
C  C37  1  0.24447758  0.06097382  0.17340701  1  -0.05591  -0.008038  3.745757  -0.008  -0.079847  -0.001172  3.999736  -0.001  -0.075513  -0.001322  4.022787  -0.001  -0.092575  -0.081814  -0.001111  3.982532  -0.001
C  C38  1  0.74068113  0.92649622  0.68534707  1  -0.13389  -0.009035  3.827722  -0.009  -0.152329  -0.000818  4.093266  -0.001  -0.160856  -0.000628  4.11699  -0.001  -0.122918  -0.146404  -0.00081  4.076108  -0.001
C  C39  1  0.25931537  0.07350294  0.31464998  1  -0.13382  0.009047  3.827708  0.009  -0.152282  0.000819  4.093259  0.001  -0.160809  0.000628  4.116976  0.001  -0.122893  -0.146351  0.00081  4.076095  0.001
C  C40  1  0.70172301  0.04516480  0.63024372  1  -0.043732  0.007845  3.847951  0.007  -0.059044  0.000235  4.101753  0.0  -0.054247  0.000687  4.121764  0.0  -0.096733  -0.061463  0.000166  4.088626  0.0
C  C41  1  0.29826880  0.95482907  0.36975641  1  -0.043817  -0.007845  3.847958  -0.007  -0.059135  -0.000237  4.101755  0.0  -0.05434  -0.000687  4.121761  0.0  -0.096687  -0.061561  -0.000166  4.08864  0.0
C  C42  1  0.67720122  0.17222101  0.71592517  1  -0.218676  -0.021322  3.732437  -0.022  -0.238352  -0.007789  3.988305  -0.009  -0.249277  -0.005392  4.008697  -0.007  -0.120387  -0.231802  -0.009495  3.975068  -0.011
C  C43  1  0.32279094  0.82777707  0.28407595  1  -0.218551  0.021322  3.732516  0.022  -0.238243  0.007789  3.988391  0.009  -0.249165  0.005391  4.008783  0.007  -0.120474  -0.231701  0.009493  3.975166  0.011
C  C44  1  0.69134143  0.18841165  0.86153380  1  0.347977  0.007825  3.826201  0.012  0.339364  -0.000592  4.090502  0.002  0.361913  0.00042  4.105817  0.003  0.092132  0.324014  -0.001522  4.080496  0.002
C  C45  1  0.30865910  0.81158330  0.13846785  1  0.347732  -0.007828  3.826244  -0.012  0.339144  0.000582  4.090461  -0.002  0.361692  -0.00042  4.105784  -0.003  0.092072  0.323804  0.001522  4.080439  -0.002
C  C46  1  0.73160947  0.06667783  0.91854017  1  -0.167733  -0.013116  3.718948  -0.015  -0.154264  -0.004541  3.959078  -0.006  -0.171162  -0.003116  3.985809  -0.005  -0.034078  -0.142835  -0.005522  3.940722  -0.007
C  C47  1  0.26839578  0.93332239  0.08146137  1  -0.167722  0.013114  3.71888  0.015  -0.154163  0.004547  3.958882  0.006  -0.171064  0.003119  3.985615  0.005  -0.034165  -0.142736  0.005522  3.940524  0.007
C  C48  1  0.74395334  0.06602124  0.06493815  1  0.351893  0.016267  3.656262  0.017  0.345713  0.004205  3.914406  0.006  0.368488  0.005261  3.925699  0.007  0.15338  0.330455  0.00308  3.906568  0.005
C  C49  1  0.25605355  0.93398108  0.93506608  1  0.352038  -0.016267  3.656046  -0.017  0.345765  -0.004204  3.914224  -0.006  0.368543  -0.005262  3.92552  -0.007  0.153431  0.330502  -0.00308  3.906392  -0.005
C  C50  1  0.75621776  0.92670078  0.10437397  1  -0.390672  -0.0111  3.665399  -0.012  -0.468916  -0.006237  3.897364  -0.007  -0.475183  -0.004508  3.901622  -0.005  -0.243924  -0.464977  -0.007419  3.895449  -0.008
C  C51  1  0.24379177  0.07329839  0.89563192  1  -0.390853  0.011102  3.665591  0.012  -0.46904  0.006231  3.897453  0.007  -0.475309  0.004507  3.901702  0.005  -0.243947  -0.465104  0.007418  3.895539  0.008
C  C52  1  0.82160914  0.65045188  0.29361050  1  0.04636  0.000252  3.649898  0.003  -0.013321  -0.001648  3.918898  0.0  -0.009159  -0.000974  3.931879  0.001  -0.078959  -0.015844  -0.001934  3.909223  0.0
C  C53  1  0.17838752  0.34954939  0.70638606  1  0.046369  -0.000266  3.649829  -0.003  -0.013329  0.001645  3.918878  0.0  -0.009165  0.000973  3.931868  -0.001  -0.078988  -0.015851  0.001934  3.909194  0.0
C  C54  1  0.75479291  0.56984154  0.38839303  1  0.051228  0.000301  3.57479  0.001  -0.008144  -0.000959  3.842819  0.0  -0.000811  -0.000492  3.848736  0.0  -0.074372  -0.013202  -0.001327  3.838292  0.0
C  C55  1  0.24520665  0.43015973  0.61160593  1  0.051183  -0.000294  3.574754  -0.001  -0.008231  0.000955  3.842856  0.0  -0.000923  0.000492  3.848769  0.0  -0.07438  -0.013283  0.001326  3.838318  0.0
C  C56  1  0.71010794  0.32129975  0.38554077  1  0.049228  0.000571  3.59491  0.002  -0.014815  -0.001104  3.864229  0.0  -0.007126  -0.000534  3.870105  0.0  -0.076074  -0.019779  -0.001658  3.859658  0.0
C  C57  1  0.28989020  0.67870151  0.61445897  1  0.049168  -0.000561  3.59498  -0.002  -0.014833  0.001101  3.864231  0.0  -0.007159  0.000534  3.870129  0.0  -0.076059  -0.019796  0.001659  3.859654  0.0
C  C58  1  0.76120889  0.18139204  0.30600032  1  0.000442  -0.003781  3.692634  -0.002  -0.057684  -0.00347  3.958721  -0.002  -0.053397  -0.002247  3.972563  -0.001  -0.072434  -0.060204  -0.004486  3.949986  -0.003
C  C59  1  0.23878928  0.81860920  0.69400239  1  0.00051  0.003788  3.692585  0.002  -0.057597  0.003466  3.958631  0.002  -0.053294  0.002246  3.972449  0.001  -0.072404  -0.060119  0.004486  3.949895  0.003
N  N60  1  0.74657544  0.18241359  0.15907573  1  -0.380868  -0.092443  3.188563  -0.111  -0.339796  -0.057417  3.50005  -0.073  -0.373856  -0.048404  3.515352  -0.065  -0.38154  -0.318759  -0.062579  3.491116  -0.077
N  N61  1  0.25342676  0.81758452  0.84092489  1  -0.380924  0.092442  3.188338  0.111  -0.339839  0.057421  3.499841  0.073  -0.373926  0.048403  3.515167  0.065  -0.38156  -0.318802  0.062579  3.49092  0.077
N  N62  1  0.73897225  0.57846287  0.14672077  1  -0.602548  -0.072516  3.123463  -0.084  -0.577511  -0.047436  3.395977  -0.058  -0.606952  -0.039317  3.395083  -0.051  -0.649224  -0.557681  -0.052666  3.397321  -0.062
N  N63  1  0.26102866  0.42153735  0.85327815  1  -0.602648  0.072524  3.123465  0.084  -0.577572  0.047439  3.395932  0.058  -0.607031  0.039317  3.395051  0.051  -0.64922  -0.557742  0.052667  3.397279  0.062
N  N64  1  0.23655363  0.41789780  0.18099114  1  0.701519  0.000445  4.13803  0.001  0.753615  0.000394  4.408025  0.001  0.783301  0.000264  4.410557  0.001  0.09263  0.73449  0.000509  4.403655  0.001
N  N65  1  0.76345045  0.58210666  0.81900425  1  0.701551  -0.00044  4.138017  -0.001  0.753591  -0.000399  4.408083  -0.001  0.783282  -0.000264  4.410611  -0.001  0.092554  0.734465  -0.000508  4.403715  -0.001
O  O66  1  0.81376236  0.42821962  0.34692052  1  -0.292438  -0.051966  2.351002  -0.066  -0.213711  -0.044413  2.613915  -0.062  -0.241417  -0.036502  2.617554  -0.053  -0.223948  -0.195607  -0.049869  2.61204  -0.067
O  O67  1  0.18623866  0.57178164  0.65307964  1  -0.292442  0.051964  2.351021  0.066  -0.213684  0.044418  2.613903  0.062  -0.241392  0.036501  2.617561  0.053  -0.223977  -0.195585  0.049871  2.612028  0.067
O  O68  1  0.23885938  0.48552409  0.30338130  1  -0.478066  0.000166  1.760164  0.0  -0.476491  0.000198  1.976023  0.0  -0.488915  0.000135  1.968185  0.0  -0.196203  -0.468224  0.000312  1.981087  0.0
O  O69  1  0.76114653  0.51448564  0.69661157  1  -0.478083  -0.000156  1.760201  0.0  -0.476482  -0.000194  1.976104  0.0  -0.488904  -0.000137  1.968255  0.0  -0.196167  -0.468203  -0.000312  1.981153  0.0
O  O70  1  0.39150411  0.37938756  0.14575936  1  -0.500363  0.00062  1.828882  -0.001  -0.500527  0.00062  2.068735  0.0  -0.514627  0.000799  2.057663  0.0  -0.196669  -0.490036  0.000111  2.075205  -0.001
O  O71  1  0.60849788  0.62060847  0.85423780  1  -0.500432  -0.000615  1.828888  0.001  -0.500528  -0.000616  2.068698  0.0  -0.514638  -0.0008  2.057628  0.0  -0.196645  -0.490036  -0.000111  2.075169  0.001
O  O72  1  0.66246315  0.31327757  0.93187190  1  -0.534605  -0.123677  2.090805  -0.159  -0.513517  -0.075312  2.375444  -0.107  -0.559427  -0.056554  2.375842  -0.085  -0.334443  -0.48422  -0.086319  2.375385  -0.118
O  O73  1  0.33753888  0.68671845  0.06812823  1  -0.534514  0.123663  2.090936  0.159  -0.513388  0.075311  2.375446  0.107  -0.559303  0.056549  2.37586  0.085  -0.334323  -0.484094  0.086314  2.375393  0.118
O  O74  1  0.07788071  0.38482791  0.08987483  1  -0.496491  0.000445  1.795177  -0.001  -0.497225  0.000265  2.028383  -0.001  -0.513697  0.0006  2.017282  0.0  -0.200116  -0.485789  -0.000269  2.035153  -0.001
O  O75  1  0.92212049  0.61517654  0.91012014  1  -0.496481  -0.000462  1.795219  0.001  -0.497206  -0.000268  2.028453  0.001  -0.513686  -0.000593  2.017347  0.0  -0.200112  -0.485784  0.000269  2.035245  0.001
