# generated using pymatgen
data_Cu3H14C12SI3N4
_symmetry_space_group_name_H-M   'P 1'
_cell_length_a   8.40427969
_cell_length_b   9.11986717
_cell_length_c   13.54686635
_cell_angle_alpha   87.27397364
_cell_angle_beta   85.89362692
_cell_angle_gamma   66.14935106
_symmetry_Int_Tables_number   1
_chemical_formula_structural   Cu3H14C12SI3N4
_chemical_formula_sum   'Cu6 H28 C24 S2 I6 N8'
_cell_volume   947.00788555
_cell_formula_units_Z   2
loop_
 _symmetry_equiv_pos_site_id
 _symmetry_equiv_pos_as_xyz
  1  'x, y, z'
loop_
 _atom_site_type_symbol
 _atom_site_label
 _atom_site_symmetry_multiplicity
 _atom_site_fract_x
 _atom_site_fract_y
 _atom_site_fract_z
 _atom_site_occupancy
 _atom_site_hle17_bader_spin_density
 _atom_site_hle17_ddec_charge
 _atom_site_hle17_ddec_spin_density
 _atom_site_hle17_ddec_sum_bond_order
 _atom_site_hle17_magmom
 _atom_site_hse06_10hf_bader_spin_density
 _atom_site_hse06_10hf_ddec_charge
 _atom_site_hse06_10hf_ddec_spin_density
 _atom_site_hse06_10hf_ddec_sum_bond_order
 _atom_site_hse06_10hf_magmom
 _atom_site_hse06_bader_spin_density
 _atom_site_hse06_ddec_charge
 _atom_site_hse06_ddec_spin_density
 _atom_site_hse06_ddec_sum_bond_order
 _atom_site_hse06_magmom
 _atom_site_pbe_bader_spin_density
 _atom_site_pbe_cm5_charge
 _atom_site_pbe_ddec_charge
 _atom_site_pbe_ddec_spin_density
 _atom_site_pbe_ddec_sum_bond_order
 _atom_site_pbe_magmom
Cu  Cu0  1  0.49455842  0.11587226  0.26435102  1  0  0.216572  0  2.234173  0  0  0.144678  0  2.708397  0  0  0.157531  0  2.651778  0  0  0.23624  0.13867  0  2.744662  0
Cu  Cu1  1  0.50544144  0.88412700  0.73564637  1  0  0.216538  0  2.234229  0  0  0.144646  0  2.708436  0  0  0.157499  0  2.651848  0  0  0.236207  0.138639  0  2.744693  0
Cu  Cu2  1  0.36413527  0.09744171  0.45419800  1  0  0.229377  0  2.243377  0  0  0.152762  0  2.725533  0  0  0.163433  0  2.669043  0  0  0.250758  0.148267  0  2.761467  0
Cu  Cu3  1  0.63586335  0.90256591  0.54580142  1  0  0.229362  0  2.243363  0  0  0.152772  0  2.725482  0  0  0.163422  0  2.669033  0  0  0.250761  0.148313  0  2.761361  0
Cu  Cu4  1  0.18876287  0.34226019  0.22667379  1  0  0.236466  0  2.161266  0  0  0.144939  0  2.651403  0  0  0.153291  0  2.598941  0  0  0.298205  0.142168  0  2.684832  0
Cu  Cu5  1  0.81123730  0.65774383  0.77332641  1  0  0.236406  0  2.161317  0  0  0.144899  0  2.651457  0  0  0.153245  0  2.598996  0  0  0.298184  0.142125  0  2.68489  0
H  H6  1  0.25687332  0.74384706  0.10882674  1  0  0.119383  0  0.951567  0  0  0.137442  0  1.01911  0  0  0.139417  0  1.018166  0  0  0.08562  0.135815  0  1.019934  0
H  H7  1  0.74313548  0.25613414  0.89117964  1  0  0.119374  0  0.95171  0  0  0.137415  0  1.019259  0  0  0.139389  0  1.018317  0  0  0.085623  0.135793  0  1.020078  0
H  H8  1  0.14478265  0.95720384  0.10031412  1  0  0.115818  0  0.967419  0  0  0.136635  0  1.026556  0  0  0.138143  0  1.026744  0  0  0.082237  0.135426  0  1.026509  0
H  H9  1  0.85522855  0.04277735  0.89969216  1  0  0.115867  0  0.967252  0  0  0.136659  0  1.026428  0  0  0.13816  0  1.026627  0  0  0.082229  0.135452  0  1.026382  0
H  H10  1  0.16232373  0.83364703  0.99783603  1  0  0.120475  0  0.963007  0  0  0.139149  0  1.029287  0  0  0.139989  0  1.03062  0  0  0.08835  0.138372  0  1.02851  0
H  H11  1  0.83768404  0.16633657  0.00216885  1  0  0.120404  0  0.963054  0  0  0.139092  0  1.029341  0  0  0.139935  0  1.030666  0  0  0.08831  0.138314  0  1.028563  0
H  H12  1  0.36459851  0.45900292  0.38226958  1  0  0.114349  0  0.995081  0  0  0.129438  0  1.07049  0  0  0.132078  0  1.06847  0  0  0.077558  0.12722  0  1.072128  0
H  H13  1  0.63539978  0.54099991  0.61773221  1  0  0.114383  0  0.994971  0  0  0.129476  0  1.070381  0  0  0.132117  0  1.068358  0  0  0.077583  0.127256  0  1.072022  0
H  H14  1  0.29814933  0.66544511  0.41390667  1  0  0.11335  0  0.98763  0  0  0.13039  0  1.05441  0  0  0.13242  0  1.054415  0  0  0.074112  0.128842  0  1.054413  0
H  H15  1  0.70184912  0.33456011  0.58609430  1  0  0.113343  0  0.987694  0  0  0.130405  0  1.054449  0  0  0.132434  0  1.054451  0  0  0.074092  0.128858  0  1.054451  0
H  H16  1  0.30385919  0.60852902  0.28842817  1  0  0.124246  0  0.958051  0  0  0.142644  0  1.022827  0  0  0.145515  0  1.021099  0  0  0.085634  0.140289  0  1.024304  0
H  H17  1  0.69613926  0.39147619  0.71157280  1  0  0.12423  0  0.958077  0  0  0.142633  0  1.022844  0  0  0.145501  0  1.021118  0  0  0.085627  0.140278  0  1.02432  0
H  H18  1  0.85702017  0.05330723  0.19092887  1  0  0.083853  0  0.976629  0  0  0.08102  0  1.062572  0  0  0.084998  0  1.059335  0  0  0.097578  0.07795  0  1.06532  0
H  H19  1  0.14298947  0.94667757  0.80907516  1  0  0.083754  0  0.976625  0  0  0.080932  0  1.062601  0  0  0.084909  0  1.059365  0  0  0.097597  0.077863  0  1.065345  0
H  H20  1  0.55460230  0.78864581  0.19084535  1  0  0.08909  0  0.950055  0  0  0.09521  0  1.019809  0  0  0.098916  0  1.017155  0  0  0.104221  0.092364  0  1.022061  0
H  H21  1  0.44538848  0.21136070  0.80915000  1  0  0.089141  0  0.950027  0  0  0.095239  0  1.019799  0  0  0.098946  0  1.017144  0  0  0.104276  0.092394  0  1.02205  0
H  H22  1  0.85189396  0.48947251  0.01597907  1  0  0.126924  0  0.976629  0  0  0.132666  0  1.05023  0  0  0.136057  0  1.047477  0  0  0.099659  0.130061  0  1.052387  0
H  H23  1  0.14810521  0.51052554  0.98402060  1  0  0.12694  0  0.976623  0  0  0.132676  0  1.050221  0  0  0.136067  0  1.04747  0  0  0.099658  0.130071  0  1.052378  0
H  H24  1  0.66532888  0.53527227  0.10042259  1  0  0.104741  0  0.971266  0  0  0.116355  0  1.037126  0  0  0.118656  0  1.036621  0  0  0.083156  0.114584  0  1.037593  0
H  H25  1  0.33467117  0.46472101  0.89957496  1  0  0.104797  0  0.971206  0  0  0.116383  0  1.037116  0  0  0.118685  0  1.036609  0  0  0.083186  0.114615  0  1.03757  0
H  H26  1  0.85700595  0.29569729  0.32909228  1  0  0.113462  0  0.974079  0  0  0.128732  0  1.038158  0  0  0.130513  0  1.038291  0  0  0.085957  0.127176  0  1.038257  0
H  H27  1  0.14299370  0.70430792  0.67090864  1  0  0.113419  0  0.974132  0  0  0.128654  0  1.038263  0  0  0.130433  0  1.0384  0  0  0.085916  0.127099  0  1.038357  0
H  H28  1  0.67845871  0.45712057  0.27974409  1  0  0.118309  0  0.935805  0  0  0.135454  0  0.992226  0  0  0.137099  0  0.992614  0  0  0.098999  0.134162  0  0.992091  0
H  H29  1  0.32154027  0.54288347  0.72025542  1  0  0.118286  0  0.935845  0  0  0.135448  0  0.99224  0  0  0.137093  0  0.992627  0  0  0.09899  0.134152  0  0.992104  0
H  H30  1  0.62125491  0.64637274  0.41886901  1  0  0.096446  0  0.947001  0  0  0.104211  0  1.012901  0  0  0.107892  0  1.010456  0  0  0.108754  0.101322  0  1.015136  0
H  H31  1  0.37874014  0.35363496  0.58112392  1  0  0.096478  0  0.946986  0  0  0.104271  0  1.012855  0  0  0.107953  0  1.010412  0  0  0.108773  0.101382  0  1.015089  0
H  H32  1  0.00967895  0.79068428  0.48634969  1  0  0.096581  0  0.943608  0  0  0.09947  0  1.018234  0  0  0.103828  0  1.014756  0  0  0.105042  0.096013  0  1.021328  0
H  H33  1  0.99031556  0.20932455  0.51365136  1  0  0.096582  0  0.943641  0  0  0.099433  0  1.018298  0  0  0.103788  0  1.014826  0  0  0.10503  0.095978  0  1.02139  0
C  C34  1  0.14408108  0.84324007  0.07879982  1  0  -0.371006  0  3.710847  0  0  -0.449157  0  3.934499  0  0  -0.453088  0  3.943845  0  0  -0.245777  -0.445929  0  3.928347  0
C  C35  1  0.85592736  0.15674473  0.92120574  1  0  -0.370987  0  3.71094  0  0  -0.449162  0  3.934608  0  0  -0.453089  0  3.943954  0  0  -0.245744  -0.445938  0  3.928458  0
C  C36  1  0.97946496  0.82652848  0.11403929  1  0  0.275018  0  3.724693  0  0  0.289836  0  3.968749  0  0  0.294641  0  3.987867  0  0  0.125973  0.286226  0  3.956404  0
C  C37  1  0.02054194  0.17345992  0.88596475  1  0  0.274877  0  3.724879  0  0  0.289882  0  3.968688  0  0  0.294689  0  3.987802  0  0  0.125933  0.28627  0  3.956345  0
C  C38  1  0.84526203  0.94452486  0.16924945  1  0  0.007952  0  3.624049  0  0  -0.026501  0  3.875097  0  0  -0.024536  0  3.890666  0  0  0.033188  -0.0284  0  3.8658  0
C  C39  1  0.15474144  0.05546596  0.83075393  1  0  0.008181  0  3.623974  0  0  -0.026393  0  3.875045  0  0  -0.024426  0  3.890613  0  0  0.033183  -0.028292  0  3.865746  0
C  C40  1  0.67851473  0.79722003  0.16984087  1  0  0.009682  0  3.643536  0  0  -0.024687  0  3.89472  0  0  -0.024396  0  3.911839  0  0  0.035256  -0.025228  0  3.884248  0
C  C41  1  0.32148154  0.20277925  0.83015667  1  0  0.009652  0  3.643514  0  0  -0.02469  0  3.894737  0  0  -0.024399  0  3.911855  0  0  0.035217  -0.025233  0  3.884265  0
C  C42  1  0.81429781  0.67654193  0.11770114  1  0  0.230622  0  3.773523  0  0  0.235462  0  4.026545  0  0  0.239906  0  4.046468  0  0  0.1162  0.231996  0  4.013751  0
C  C43  1  0.18569965  0.32345732  0.88229930  1  0  0.230693  0  3.77351  0  0  0.235485  0  4.026604  0  0  0.23993  0  4.046526  0  0  0.116227  0.23202  0  4.013808  0
C  C44  1  0.80014458  0.52540497  0.09200228  1  0  -0.239384  0  3.656132  0  0  -0.273347  0  3.894373  0  0  -0.275908  0  3.904056  0  0  -0.157834  -0.27121  0  3.887903  0
C  C45  1  0.19985407  0.47459428  0.90799738  1  0  -0.239475  0  3.656107  0  0  -0.27341  0  3.894338  0  0  -0.275973  0  3.904018  0  0  -0.157881  -0.271279  0  3.887885  0
C  C46  1  0.81986395  0.40986748  0.28678547  1  0  -0.249333  0  3.683504  0  0  -0.286364  0  3.925237  0  0  -0.289515  0  3.935593  0  0  -0.159182  -0.283936  0  3.918494  0
C  C47  1  0.18013793  0.59013532  0.71321542  1  0  -0.249206  0  3.683574  0  0  -0.286219  0  3.925279  0  0  -0.28937  0  3.935635  0  0  -0.159088  -0.28378  0  3.918518  0
C  C48  1  0.87307472  0.52073750  0.34135353  1  0  0.227437  0  3.722151  0  0  0.229001  0  3.968888  0  0  0.235657  0  3.987604  0  0  0.112315  0.224055  0  3.957219  0
C  C49  1  0.12692151  0.47927015  0.65864452  1  0  0.227397  0  3.722274  0  0  0.228989  0  3.969038  0  0  0.23565  0  3.987745  0  0  0.112279  0.22404  0  3.957365  0
C  C50  1  0.75660892  0.63185413  0.40723604  1  0  0.017221  0  3.62996  0  0  -0.020267  0  3.887062  0  0  -0.018918  0  3.900707  0  0  0.036326  -0.022016  0  3.879687  0
C  C51  1  0.24338456  0.36815714  0.59275980  1  0  0.017145  0  3.630095  0  0  -0.020391  0  3.887233  0  0  -0.019045  0  3.90088  0  0  0.036331  -0.022142  0  3.879854  0
C  C52  1  0.97160466  0.71105910  0.44524932  1  0  0.012382  0  3.616288  0  0  -0.02766  0  3.873812  0  0  -0.025967  0  3.886964  0  0  0.034744  -0.029668  0  3.866825  0
C  C53  1  0.02839157  0.28894854  0.55475021  1  0  0.012279  0  3.61655  0  0  -0.027693  0  3.874052  0  0  -0.025986  0  3.887221  0  0  0.034721  -0.029706  0  3.867059  0
C  C54  1  0.09127138  0.59968208  0.38035069  1  0  0.290026  0  3.685794  0  0  0.299922  0  3.926729  0  0  0.307655  0  3.943443  0  0  0.123437  0.294198  0  3.916437  0
C  C55  1  0.90872655  0.40032433  0.61965101  1  0  0.290122  0  3.685637  0  0  0.299971  0  3.926635  0  0  0.30766  0  3.943409  0  0  0.123529  0.294249  0  3.916342  0
C  C56  1  0.27442936  0.58339567  0.36624760  1  0  -0.388878  0  3.732632  0  0  -0.465934  0  3.958572  0  0  -0.470641  0  3.964443  0  0  -0.256171  -0.462167  0  3.955186  0
C  C57  1  0.72557081  0.41660834  0.63375408  1  0  -0.388932  0  3.732613  0  0  -0.465998  0  3.95858  0  0  -0.470688  0  3.96447  0  0  -0.256198  -0.462232  0  3.955194  0
S  S58  1  0.93108274  0.35066878  0.16619443  1  0  0.081128  0  2.66999  0  0  0.10192  0  3.077002  0  0  0.102686  0  3.064684  0  0  -0.019396  0.100644  0  3.085579  0
S  S59  1  0.06891847  0.64933284  0.83380579  1  0  0.081094  0  2.669997  0  0  0.101882  0  3.076998  0  0  0.102651  0  3.064675  0  0  -0.019418  0.100599  0  3.085575  0
I  I60  1  0.64543251  0.14898003  0.42399242  1  0  -0.349889  0  1.773204  0  0  -0.297582  0  2.225561  0  0  -0.314683  0  2.184389  0  0  -0.157832  -0.285087  0  2.252114  0
I  I61  1  0.35456508  0.85103002  0.57600328  1  0  -0.349855  0  1.773214  0  0  -0.297546  0  2.225583  0  0  -0.314648  0  2.184416  0  0  -0.157831  -0.28505  0  2.252132  0
I  I62  1  0.23037731  0.03329970  0.30307237  1  0  -0.350181  0  1.683053  0  0  -0.293637  0  2.121638  0  0  -0.311993  0  2.082178  0  0  -0.161718  -0.280308  0  2.147124  0
I  I63  1  0.76962235  0.96670553  0.69692708  1  0  -0.350163  0  1.683007  0  0  -0.293624  0  2.121571  0  0  -0.311973  0  2.082117  0  0  -0.161707  -0.280302  0  2.147051  0
I  I64  1  0.45530553  0.34484492  0.12955461  1  0  -0.387792  0  1.52732  0  0  -0.334859  0  1.936305  0  0  -0.354787  0  1.902271  0  0  -0.193743  -0.320273  0  1.958193  0
I  I65  1  0.54469620  0.65515553  0.87044267  1  0  -0.387779  0  1.527352  0  0  -0.334849  0  1.936344  0  0  -0.354774  0  1.90231  0  0  -0.19374  -0.320265  0  1.958231  0
N  N66  1  0.69467058  0.93041774  0.19627060  1  0  -0.194728  0  3.381367  0  0  -0.124533  0  3.658859  0  0  -0.132945  0  3.670497  0  0  -0.343882  -0.11966  0  3.651586  0
N  N67  1  0.30532911  0.06957912  0.80372761  1  0  -0.194781  0  3.381263  0  0  -0.12456  0  3.658756  0  0  -0.132974  0  3.670398  0  0  -0.343888  -0.119687  0  3.651482  0
N  N68  1  0.96303178  0.69236354  0.08971758  1  0  -0.338168  0  3.004091  0  0  -0.309522  0  3.262989  0  0  -0.31695  0  3.274504  0  0  -0.293946  -0.304832  0  3.255902  0
N  N69  1  0.03696997  0.30762850  0.91028363  1  0  -0.338181  0  3.004221  0  0  -0.309572  0  3.263077  0  0  -0.317001  0  3.27459  0  0  -0.293931  -0.304882  0  3.255992  0
N  N70  1  0.80557208  0.72663025  0.45979989  1  0  -0.192625  0  3.387831  0  0  -0.123523  0  3.674375  0  0  -0.12799  0  3.681893  0  0  -0.348682  -0.121748  0  3.670509  0
N  N71  1  0.19442260  0.27338101  0.54019591  1  0  -0.192559  0  3.388089  0  0  -0.123444  0  3.6746  0  0  -0.127911  0  3.682119  0  0  -0.348681  -0.121656  0  3.670715  0
N  N72  1  0.04081744  0.50345553  0.32869521  1  0  -0.308915  0  3.240586  0  0  -0.24974  0  3.516768  0  0  -0.257972  0  3.521719  0  0  -0.341337  -0.245347  0  3.514055  0
N  N73  1  0.95918289  0.49655087  0.67130566  1  0  -0.30884  0  3.24046  0  0  -0.249715  0  3.516739  0  0  -0.25793  0  3.5217  0  0  -0.341375  -0.245323  0  3.514028  0
