# generated using pymatgen
data_HoH17C25N4O9
_symmetry_space_group_name_H-M   'P 1'
_cell_length_a   9.71261397
_cell_length_b   13.10626391
_cell_length_c   22.07672435
_cell_angle_alpha   89.99940226
_cell_angle_beta   89.99992069
_cell_angle_gamma   104.29788081
_symmetry_Int_Tables_number   1
_chemical_formula_structural   HoH17C25N4O9
_chemical_formula_sum   'Ho4 H68 C100 N16 O36'
_cell_volume   2723.23169748
_cell_formula_units_Z   4
loop_
 _symmetry_equiv_pos_site_id
 _symmetry_equiv_pos_as_xyz
  1  'x, y, z'
loop_
 _atom_site_type_symbol
 _atom_site_label
 _atom_site_symmetry_multiplicity
 _atom_site_fract_x
 _atom_site_fract_y
 _atom_site_fract_z
 _atom_site_occupancy
 _atom_site_pbe_bader_charge
 _atom_site_pbe_bader_spin_density
 _atom_site_pbe_cm5_charge
 _atom_site_pbe_ddec_charge
 _atom_site_pbe_ddec_spin_density
 _atom_site_pbe_ddec_sum_bond_order
 _atom_site_pbe_magmom
Ho  Ho0  1  0.35316396  0.62444308  0.34318750  1  2.12939  0  1.531638  1.902295  0  2.255104  0
Ho  Ho1  1  0.64683496  0.87555282  0.84319017  1  2.129296  0  1.531602  1.902165  0  2.255218  0
Ho  Ho2  1  0.64682561  0.37555229  0.65680896  1  2.129196  0  1.531611  1.902228  0  2.255116  0
Ho  Ho3  1  0.35317160  0.12444736  0.15681127  1  2.129426  0  1.531609  1.902222  0  2.255143  0
H  H4  1  0.71624818  0.42912693  0.09768553  1  0.083298  0  0.112662  0.11865  0  0.973776  0
H  H5  1  0.28375062  0.07087703  0.59768212  1  0.083166  0  0.112684  0.118639  0  0.973651  0
H  H6  1  0.28374490  0.57089204  0.90231230  1  0.083262  0  0.112659  0.118613  0  0.973633  0
H  H7  1  0.71625731  0.92910508  0.40231344  1  0.083174  0  0.112666  0.1186  0  0.973723  0
H  H8  1  0.88116009  0.60811103  0.10996257  1  0.058878  0  0.106962  0.111026  0  1.01189  0
H  H9  1  0.11885037  0.89188952  0.60995641  1  0.058724  0  0.106985  0.11111  0  1.011743  0
H  H10  1  0.11884048  0.39190562  0.89004296  1  0.057977  0  0.106935  0.111083  0  1.011746  0
H  H11  1  0.88115909  0.10809417  0.39004186  1  0.057997  0  0.106948  0.111107  0  1.01183  0
H  H12  1  0.69315722  0.63820092  0.28376504  1  0.128122  0  0.117152  0.130119  0  1.040212  0
H  H13  1  0.30683510  0.86178354  0.78375850  1  0.128483  0  0.11713  0.130034  0  1.040194  0
H  H14  1  0.30683444  0.36178503  0.71624411  1  0.128542  0  0.117156  0.130075  0  1.040137  0
H  H15  1  0.69316632  0.13821346  0.21624386  1  0.128576  0  0.117161  0.13011  0  1.04012  0
H  H16  1  0.06769912  0.66816839  0.19425821  1  0.131511  0  0.128574  0.104464  0  0.992207  0
H  H17  1  0.93229714  0.83182414  0.69425644  1  0.131573  0  0.128551  0.104402  0  0.99216  0
H  H18  1  0.93230511  0.33183727  0.80575230  1  0.131601  0  0.128601  0.104514  0  0.992012  0
H  H19  1  0.06769091  0.16816336  0.30574954  1  0.131583  0  0.128585  0.104543  0  0.992035  0
H  H20  1  0.24731248  0.84010593  0.20465138  1  0.106185  0  0.121258  0.148781  0  1.008082  0
H  H21  1  0.75268963  0.65988250  0.70464986  1  0.106613  0  0.121262  0.148766  0  1.008126  0
H  H22  1  0.75269175  0.15989974  0.79535595  1  0.1062  0  0.121296  0.148798  0  1.008103  0
H  H23  1  0.24730953  0.34009799  0.29535295  1  0.106204  0  0.121309  0.148803  0  1.008047  0
H  H24  1  0.89650545  0.98486598  0.23536726  1  0.094251  0  0.10472  0.125266  0  1.035978  0
H  H25  1  0.10350770  0.51512191  0.73535343  1  0.093665  0  0.104712  0.125303  0  1.035852  0
H  H26  1  0.10349052  0.01513964  0.76463691  1  0.093991  0  0.10473  0.125315  0  1.036038  0
H  H27  1  0.89650538  0.48486023  0.26463126  1  0.094343  0  0.10476  0.125322  0  1.035951  0
H  H28  1  0.73039798  0.80847356  0.22046300  1  0.176463  0  0.128937  0.118123  0  1.018641  0
H  H29  1  0.26960935  0.69152166  0.72044574  1  0.176409  0  0.12893  0.118085  0  1.018786  0
H  H30  1  0.26960547  0.19152974  0.77954750  1  0.176504  0  0.128997  0.118211  0  1.018743  0
H  H31  1  0.73039829  0.30846595  0.27954258  1  0.176541  0  0.128928  0.118076  0  1.018706  0
H  H32  1  0.36454660  0.40427134  0.42220532  1  0.174117  0  0.124819  0.097335  0  1.013951  0
H  H33  1  0.63543693  0.09573008  0.92219928  1  0.172837  0  0.124735  0.097193  0  1.014097  0
H  H34  1  0.63543802  0.59573736  0.57779432  1  0.173897  0  0.124736  0.097295  0  1.014053  0
H  H35  1  0.36457216  0.90428426  0.07779674  1  0.173786  0  0.124755  0.097286  0  1.014247  0
H  H36  1  0.20850340  0.24758921  0.47112297  1  0.100305  0  0.109447  0.119838  0  0.995569  0
H  H37  1  0.79146547  0.25241195  0.97112041  1  0.100646  0  0.109459  0.119827  0  0.995501  0
H  H38  1  0.79147735  0.75241711  0.52887847  1  0.100308  0  0.109421  0.119825  0  0.99556  0
H  H39  1  0.20853747  0.74759293  0.02888330  1  0.100312  0  0.109442  0.119809  0  0.995501  0
H  H40  1  0.94548051  0.23740903  0.48136660  1  0.094487  0  0.111665  0.112969  0  0.973676  0
H  H41  1  0.05448569  0.26259034  0.98137440  1  0.094431  0  0.111687  0.112956  0  0.973824  0
H  H42  1  0.05449227  0.76259174  0.51862443  1  0.094295  0  0.111706  0.113009  0  0.973896  0
H  H43  1  0.94551443  0.73740902  0.01863430  1  0.094612  0  0.111709  0.113008  0  0.973762  0
H  H44  1  0.74434410  0.32124897  0.46222090  1  0.148039  0  0.106671  0.116901  0  1.025836  0
H  H45  1  0.25563153  0.17876027  0.96223588  1  0.148027  0  0.10661  0.116767  0  1.025834  0
H  H46  1  0.25563897  0.67875815  0.53776424  1  0.148018  0  0.106621  0.116844  0  1.025796  0
H  H47  1  0.74436755  0.82124223  0.03777236  1  0.148129  0  0.106632  0.11686  0  1.025889  0
H  H48  1  0.66197867  0.47842761  0.43095268  1  0.14191  0  0.114424  0.13301  0  0.991685  0
H  H49  1  0.33801787  0.02158864  0.93096267  1  0.141772  0  0.114452  0.132961  0  0.991699  0
H  H50  1  0.33801340  0.52158507  0.56904243  1  0.141794  0  0.114424  0.132938  0  0.991649  0
H  H51  1  0.66198688  0.97841545  0.06904059  1  0.141888  0  0.11444  0.132954  0  0.991604  0
H  H52  1  0.71991924  0.66439506  0.39406664  1  0.132179  0  0.115472  0.128998  0  1.029737  0
H  H53  1  0.28007783  0.83561791  0.89407205  1  0.132292  0  0.11543  0.128952  0  1.02975  0
H  H54  1  0.28007851  0.33561922  0.60593888  1  0.132279  0  0.115503  0.128938  0  1.029789  0
H  H55  1  0.71992509  0.16439011  0.10592894  1  0.132302  0  0.115441  0.128936  0  1.029727  0
H  H56  1  0.90202381  0.81996635  0.35447736  1  0.084034  0  0.101227  0.104277  0  1.027871  0
H  H57  1  0.09798911  0.68004748  0.85447250  1  0.084306  0  0.101287  0.104362  0  1.027748  0
H  H58  1  0.09798371  0.18005269  0.64553450  1  0.084272  0  0.101317  0.104373  0  1.027754  0
H  H59  1  0.90201899  0.31995428  0.14552351  1  0.084178  0  0.101269  0.104327  0  1.027801  0
H  H60  1  0.15399825  0.80456861  0.34051316  1  0.138183  0  0.12104  0.098703  0  1.009223  0
H  H61  1  0.84601201  0.69543683  0.84050955  1  0.138336  0  0.121059  0.098716  0  1.009172  0
H  H62  1  0.84600288  0.19543704  0.65948693  1  0.138213  0  0.121073  0.098791  0  1.009101  0
H  H63  1  0.15399067  0.30456725  0.15948737  1  0.138137  0  0.121074  0.098769  0  1.009239  0
H  H64  1  0.32274003  0.61224836  0.21395959  1  0.622415  0  0.323403  0.415032  0  0.878451  0
H  H65  1  0.67729058  0.88774555  0.71396217  1  0.62497  0  0.323277  0.414953  0  0.878564  0
H  H66  1  0.67727561  0.38773851  0.78603280  1  0.624932  0  0.323374  0.415046  0  0.878423  0
H  H67  1  0.32272889  0.11224999  0.28603656  1  0.624825  0  0.323369  0.415037  0  0.878459  0
H  H68  1  0.43753333  0.72511257  0.21822026  1  0.668801  0  0.300934  0.415482  0  0.915498  0
H  H69  1  0.56248873  0.77488356  0.71821997  1  0.668571  0  0.300851  0.415376  0  0.915637  0
H  H70  1  0.56247508  0.27487740  0.78177620  1  0.668682  0  0.300896  0.415375  0  0.91563  0
H  H71  1  0.43752868  0.22511196  0.28177966  1  0.668623  0  0.300956  0.415503  0  0.91547  0
C  C72  1  0.52308242  0.44029066  0.29125186  1  1.609369  0  0.230941  0.633392  0  4.172325  0
C  C73  1  0.47691016  0.05969924  0.79124976  1  1.608594  0  0.231067  0.633303  0  4.172105  0
C  C74  1  0.47691257  0.55970238  0.70875050  1  1.609199  0  0.231005  0.633128  0  4.172438  0
C  C75  1  0.52308689  0.94029381  0.20874943  1  1.609293  0  0.230908  0.633047  0  4.172486  0
C  C76  1  0.61132551  0.49036006  0.23769120  1  0.00387  0  0.002089  -0.030811  0  3.908784  0
C  C77  1  0.38866372  0.00963166  0.73768900  1  0.004506  0  0.002122  -0.030957  0  3.908567  0
C  C78  1  0.38866946  0.50963613  0.76231070  1  0.003836  0  0.002053  -0.030974  0  3.908723  0
C  C79  1  0.61132560  0.99035977  0.26231200  1  0.003777  0  0.002086  -0.030686  0  3.908406  0
C  C80  1  0.61676100  0.43244963  0.18456755  1  0.004297  0  0.001039  -0.022632  0  3.91559  0
C  C81  1  0.38323879  0.06754556  0.68456546  1  0.003684  0  0.000921  -0.022841  0  3.915503  0
C  C82  1  0.38323551  0.56755128  0.81543345  1  0.004389  0  0.001058  -0.022575  0  3.915587  0
C  C83  1  0.61676214  0.93244359  0.31543509  1  0.003721  0  0.001102  -0.022664  0  3.915759  0
C  C84  1  0.71363238  0.47490802  0.13873949  1  -0.053278  0  -0.078245  -0.082233  0  3.973662  0
C  C85  1  0.28636964  0.02509358  0.63873499  1  -0.052506  0  -0.078207  -0.081895  0  3.973366  0
C  C86  1  0.28636538  0.52510311  0.86126060  1  -0.053485  0  -0.078307  -0.082069  0  3.973562  0
C  C87  1  0.71363232  0.97489557  0.36126283  1  -0.052662  0  -0.07835  -0.082094  0  3.973716  0
C  C88  1  0.80511088  0.57438111  0.14530489  1  -0.013358  0  -0.087866  -0.164219  0  4.004113  0
C  C89  1  0.19489898  0.92561796  0.64529894  1  -0.013222  0  -0.087947  -0.164579  0  4.00416  0
C  C90  1  0.19488765  0.42562924  0.85470018  1  -0.012653  0  -0.087838  -0.164388  0  4.004128  0
C  C91  1  0.80510995  0.07437044  0.35470160  1  -0.012562  0  -0.087826  -0.164374  0  4.004142  0
C  C92  1  0.79682081  0.63206737  0.19782520  1  0.271274  0  0.090165  0.149643  0  4.014377  0
C  C93  1  0.20317593  0.86792667  0.69781777  1  0.271027  0  0.090099  0.149574  0  4.014279  0
C  C94  1  0.20318265  0.36793594  0.80218305  1  0.271254  0  0.09019  0.149557  0  4.014474  0
C  C95  1  0.79681547  0.13206164  0.30218232  1  0.271117  0  0.090213  0.149614  0  4.014322  0
C  C96  1  0.69922505  0.59184645  0.24337151  1  0.029901  0  -0.073126  -0.166818  0  3.932683  0
C  C97  1  0.30077049  0.90814118  0.74336650  1  0.029717  0  -0.073012  -0.166393  0  3.932192  0
C  C98  1  0.30077484  0.40814583  0.75663492  1  0.029728  0  -0.073035  -0.166438  0  3.932335  0
C  C99  1  0.69922424  0.09185107  0.25663495  1  0.029773  0  -0.073103  -0.166698  0  3.932405  0
C  C100  1  0.52003749  0.32548561  0.17510046  1  1.579667  0  0.18993  0.579231  0  4.233884  0
C  C101  1  0.47996342  0.17450977  0.67510084  1  1.579513  0  0.190027  0.579385  0  4.233547  0
C  C102  1  0.47997115  0.67451144  0.82489645  1  1.579584  0  0.190024  0.579259  0  4.233653  0
C  C103  1  0.52003596  0.82548094  0.32489654  1  1.579714  0  0.189846  0.57905  0  4.234336  0
C  C104  1  0.03748424  0.74184004  0.20165764  1  0.319535  0  0.047571  0.036992  0  3.929407  0
C  C105  1  0.96251916  0.75815238  0.70165675  1  0.319683  0  0.047683  0.037352  0  3.929113  0
C  C106  1  0.96252336  0.25816014  0.79834924  1  0.319562  0  0.047553  0.037038  0  3.929477  0
C  C107  1  0.03748151  0.24183597  0.29834560  1  0.319337  0  0.047593  0.03702  0  3.929347  0
C  C108  1  0.13445969  0.83634438  0.20823212  1  0.080329  0  -0.089691  -0.242808  0  3.925275  0
C  C109  1  0.86554082  0.66364554  0.70822960  1  0.079847  0  -0.089696  -0.242858  0  3.9253  0
C  C110  1  0.86554221  0.16366049  0.79177385  1  0.07989  0  -0.089771  -0.242891  0  3.92542  0
C  C111  1  0.13445652  0.33633887  0.29176958  1  0.080128  0  -0.08978  -0.242885  0  3.925431  0
C  C112  1  0.08864337  0.93060878  0.21970412  1  0.744142  0  0.116063  0.420829  0  4.126556  0
C  C113  1  0.91136349  0.56937860  0.71969625  1  0.744344  0  0.115931  0.420661  0  4.126826  0
C  C114  1  0.91136009  0.06939453  0.78030186  1  0.744437  0  0.116095  0.420855  0  4.126554  0
C  C115  1  0.08864469  0.43060430  0.28029523  1  0.744347  0  0.115965  0.420741  0  4.12679  0
C  C116  1  0.93847449  0.91668755  0.22643723  1  -0.007153  0  -0.101357  -0.258352  0  3.93847  0
C  C117  1  0.06153257  0.58329733  0.72642301  1  -0.006659  0  -0.101337  -0.258453  0  3.938202  0
C  C118  1  0.06152614  0.08331338  0.77356875  1  -0.00655  0  -0.101318  -0.258345  0  3.938235  0
C  C119  1  0.93847536  0.41668478  0.27356530  1  -0.007101  0  -0.10136  -0.258369  0  3.938294  0
C  C120  1  0.84555506  0.82024411  0.21872807  1  0.361766  0  0.052666  0.054891  0  3.878607  0
C  C121  1  0.15444794  0.67974405  0.71871276  1  0.361751  0  0.05275  0.055215  0  3.878617  0
C  C122  1  0.15444967  0.17976313  0.78128198  1  0.361348  0  0.052549  0.054809  0  3.878842  0
C  C123  1  0.84555328  0.32023960  0.28127646  1  0.361734  0  0.052553  0.054897  0  3.878626  0
C  C124  1  0.06525076  0.47860453  0.41529882  1  0.468403  0  0.117112  0.126425  0  3.993974  0
C  C125  1  0.93474031  0.02139786  0.91530527  1  0.467911  0  0.116957  0.126162  0  3.994123  0
C  C126  1  0.93473904  0.52139792  0.58469538  1  0.467931  0  0.11697  0.126188  0  3.994126  0
C  C127  1  0.06526365  0.97860702  0.08469844  1  0.468271  0  0.117025  0.126339  0  3.993885  0
C  C128  1  0.25188992  0.39945848  0.42811340  1  0.478637  0  0.065412  0.132989  0  3.930921  0
C  C129  1  0.74809149  0.10054281  0.92811179  1  0.479655  0  0.065611  0.133209  0  3.931177  0
C  C130  1  0.74808931  0.60053997  0.57188170  1  0.478711  0  0.065447  0.132921  0  3.931296  0
C  C131  1  0.25191891  0.89946604  0.07188785  1  0.478452  0  0.065626  0.133124  0  3.931213  0
C  C132  1  0.16194675  0.31004975  0.45494241  1  0.012467  0  -0.084808  -0.131421  0  3.983489  0
C  C133  1  0.83803001  0.18995335  0.95493929  1  0.011876  0  -0.084784  -0.131342  0  3.9835  0
C  C134  1  0.83802758  0.68995261  0.54504998  1  0.012121  0  -0.0846  -0.131184  0  3.983267  0
C  C135  1  0.16197060  0.81005387  0.04505989  1  0.012209  0  -0.084816  -0.131365  0  3.983559  0
C  C136  1  0.01880901  0.30497198  0.46043377  1  -0.069288  0  -0.066591  -0.081216  0  3.946636  0
C  C137  1  0.98116641  0.19503022  0.96043461  1  -0.069072  0  -0.066784  -0.081363  0  3.946672  0
C  C138  1  0.98117254  0.69502728  0.53955635  1  -0.069036  0  -0.066789  -0.081456  0  3.946663  0
C  C139  1  0.01884014  0.80497625  0.03956819  1  -0.069174  0  -0.066708  -0.081292  0  3.946775  0
C  C140  1  0.96582747  0.39029347  0.44019607  1  -0.003612  0  -0.004111  0.04319  0  4.002865  0
C  C141  1  0.03415561  0.10970995  0.94020255  1  -0.002503  0  -0.003963  0.043385  0  4.002633  0
C  C142  1  0.03415432  0.60970972  0.55979541  1  -0.002743  0  -0.003977  0.043384  0  4.002666  0
C  C143  1  0.96584759  0.89029257  0.05980298  1  -0.002883  0  -0.004074  0.043175  0  4.002677  0
C  C144  1  0.81901314  0.39079192  0.44421981  1  -0.102842  0  -0.085253  -0.118272  0  3.956782  0
C  C145  1  0.18097015  0.10921535  0.94422982  1  -0.103059  0  -0.085291  -0.118424  0  3.956324  0
C  C146  1  0.18097095  0.60921835  0.55576986  1  -0.102243  0  -0.085327  -0.118508  0  3.956397  0
C  C147  1  0.81902688  0.89078399  0.05577842  1  -0.102853  0  -0.085344  -0.11851  0  3.956644  0
C  C148  1  0.77340613  0.47712447  0.42703676  1  -0.050643  0  -0.078403  -0.099625  0  3.925595  0
C  C149  1  0.22659330  0.02288795  0.92704138  1  -0.050317  0  -0.078319  -0.099243  0  3.924995  0
C  C150  1  0.22658827  0.52288901  0.57295971  1  -0.050861  0  -0.078245  -0.099213  0  3.925117  0
C  C151  1  0.77341661  0.97711303  0.07296506  1  -0.050584  0  -0.07826  -0.099245  0  3.925307  0
C  C152  1  0.87171478  0.56895960  0.40404300  1  -0.016845  0  -0.000695  0.042973  0  3.992864  0
C  C153  1  0.12828297  0.93105238  0.90404476  1  -0.016966  0  -0.000693  0.042945  0  3.993052  0
C  C154  1  0.12828115  0.43105545  0.59596026  1  -0.016916  0  -0.000754  0.043043  0  3.992912  0
C  C155  1  0.87171766  0.06894855  0.09595805  1  -0.016764  0  -0.000807  0.042905  0  3.992969  0
C  C156  1  0.83042527  0.66167996  0.38849197  1  -0.095019  0  -0.061841  -0.069397  0  3.90244  0
C  C157  1  0.16957674  0.83833550  0.88849426  1  -0.094893  0  -0.061808  -0.069475  0  3.902657  0
C  C158  1  0.16957324  0.33833668  0.61151310  1  -0.094826  0  -0.061878  -0.069506  0  3.902756  0
C  C159  1  0.83042980  0.16167097  0.11150447  1  -0.095319  0  -0.061747  -0.069399  0  3.902543  0
C  C160  1  0.93111435  0.74749074  0.36673528  1  -0.014674  0  -0.090492  -0.136829  0  3.990164  0
C  C161  1  0.06888971  0.75251809  0.86673815  1  -0.014784  0  -0.090583  -0.136925  0  3.990093  0
C  C162  1  0.06888314  0.25252275  0.63326662  1  -0.014753  0  -0.090563  -0.136909  0  3.990521  0
C  C163  1  0.93111788  0.24748524  0.13325696  1  -0.01448  0  -0.090594  -0.136886  0  3.990263  0
C  C164  1  0.07182105  0.73953207  0.35878602  1  0.510716  0  0.056294  0.110597  0  3.952088  0
C  C165  1  0.92818746  0.76047772  0.85878922  1  0.510885  0  0.056341  0.110663  0  3.952201  0
C  C166  1  0.92818161  0.26047830  0.64120909  1  0.51096  0  0.056162  0.110462  0  3.952545  0
C  C167  1  0.07182036  0.23952954  0.14120815  1  0.510901  0  0.05629  0.11061  0  3.952224  0
C  C168  1  0.01705684  0.56918170  0.39645020  1  0.491362  0  0.118749  0.130587  0  3.977117  0
C  C169  1  0.98294024  0.93082493  0.89645686  1  0.4909  0  0.118703  0.130675  0  3.977077  0
C  C170  1  0.98293655  0.43082548  0.60354536  1  0.490618  0  0.118712  0.130578  0  3.977045  0
C  C171  1  0.01706554  0.06917917  0.10354640  1  0.49062  0  0.118863  0.130805  0  3.976846  0
N  N172  1  0.89431366  0.73331638  0.20580793  1  -1.277179  0  -0.217955  0.019466  0  3.781953  0
N  N173  1  0.10568688  0.76667359  0.70580118  1  -1.277355  0  -0.218104  0.019013  0  3.782004  0
N  N174  1  0.10568826  0.26668534  0.79420213  1  -1.277095  0  -0.218024  0.019218  0  3.782247  0
N  N175  1  0.89431046  0.23331082  0.29419755  1  -1.277149  0  -0.217949  0.019349  0  3.781915  0
N  N176  1  0.20530906  0.48121773  0.40863610  1  -1.249409  0  -0.387211  -0.387662  0  3.540522  0
N  N177  1  0.79467436  0.01878003  0.90864084  1  -1.249257  0  -0.387164  -0.387635  0  3.540448  0
N  N178  1  0.79467532  0.51878390  0.59135992  1  -1.249221  0  -0.387146  -0.387568  0  3.540515  0
N  N179  1  0.20532420  0.98122404  0.09136288  1  -1.249217  0  -0.387236  -0.387747  0  3.540519  0
N  N180  1  0.11369931  0.65276853  0.37245361  1  -1.22914  0  -0.381286  -0.359999  0  3.507332  0
N  N181  1  0.88630266  0.84723075  0.87245947  1  -1.229618  0  -0.381252  -0.359983  0  3.507335  0
N  N182  1  0.88629205  0.34722921  0.62753742  1  -1.22941  0  -0.381128  -0.359864  0  3.50741  0
N  N183  1  0.11370622  0.15277023  0.12754243  1  -1.229202  0  -0.381297  -0.360078  0  3.507128  0
N  N184  1  0.46566247  0.67835476  0.46409473  1  0.817194  0  0.079237  0.720525  0  4.427054  0
N  N185  1  0.53434301  0.82164037  0.96409735  1  0.817261  0  0.079118  0.720291  0  4.427143  0
N  N186  1  0.53433400  0.32165558  0.53590173  1  0.817726  0  0.079212  0.720448  0  4.42664  0
N  N187  1  0.46566973  0.17836299  0.03590546  1  0.817178  0  0.079222  0.720399  0  4.427323  0
O  O188  1  0.46579051  0.49874233  0.32371077  1  -1.195874  0  -0.426497  -0.663654  0  2.372435  0
O  O189  1  0.53419328  0.00123981  0.82371216  1  -1.195839  0  -0.426591  -0.663643  0  2.372361  0
O  O190  1  0.53419341  0.50124515  0.67629113  1  -1.195822  0  -0.426509  -0.663527  0  2.372622  0
O  O191  1  0.46580585  0.99875011  0.17628793  1  -1.195895  0  -0.426468  -0.663477  0  2.372529  0
O  O192  1  0.51683942  0.34494219  0.30235343  1  -1.183211  0  -0.313055  -0.558105  0  2.165453  0
O  O193  1  0.48316725  0.15504679  0.80234803  1  -1.182831  0  -0.313055  -0.557951  0  2.165639  0
O  O194  1  0.48317258  0.65505252  0.69764983  1  -1.182945  0  -0.313123  -0.557992  0  2.165691  0
O  O195  1  0.51683420  0.84494393  0.19764843  1  -1.183106  0  -0.313051  -0.557997  0  2.165597  0
O  O196  1  0.38606539  0.31201398  0.17838591  1  -1.170378  0  -0.371531  -0.613916  0  2.20849  0
O  O197  1  0.61393728  0.18798685  0.67838294  1  -1.170303  0  -0.371575  -0.61399  0  2.208346  0
O  O198  1  0.61393886  0.68798540  0.82161509  1  -1.170457  0  -0.371523  -0.613867  0  2.208534  0
O  O199  1  0.38606698  0.81200939  0.32161126  1  -1.170361  0  -0.371456  -0.6138  0  2.208576  0
O  O200  1  0.57728629  0.25008780  0.16212909  1  -1.181947  0  -0.385826  -0.626324  0  2.242677  0
O  O201  1  0.42271062  0.24990781  0.66213040  1  -1.181875  0  -0.385789  -0.626309  0  2.24255  0
O  O202  1  0.42272053  0.74991316  0.83786964  1  -1.181843  0  -0.385881  -0.626409  0  2.242453  0
O  O203  1  0.57728285  0.75007737  0.33786742  1  -1.182112  0  -0.385786  -0.626245  0  2.242914  0
O  O204  1  0.17552367  0.02192815  0.22290840  1  -1.192482  0  -0.391476  -0.626708  0  2.29463  0
O  O205  1  0.82448195  0.47806317  0.72290446  1  -1.192687  0  -0.391412  -0.6266  0  2.294857  0
O  O206  1  0.82447668  0.97807828  0.77709350  1  -1.192415  0  -0.391433  -0.626636  0  2.29469  0
O  O207  1  0.17553164  0.52192055  0.27708975  1  -1.19237  0  -0.391357  -0.626645  0  2.294856  0
O  O208  1  0.49812243  0.60382581  0.43393422  1  -0.56451  0  -0.227032  -0.504889  0  2.061633  0
O  O209  1  0.50186944  0.89616512  0.93393686  1  -0.564341  0  -0.226883  -0.504667  0  2.061747  0
O  O210  1  0.50186402  0.39617583  0.56606722  1  -0.564414  0  -0.227013  -0.504982  0  2.061594  0
O  O211  1  0.49813660  0.10383662  0.06606685  1  -0.564342  0  -0.226973  -0.504853  0  2.061824  0
O  O212  1  0.37280870  0.72019682  0.43954117  1  -0.568898  0  -0.248395  -0.531155  0  2.047869  0
O  O213  1  0.62719520  0.77980271  0.93954444  1  -0.568916  0  -0.248364  -0.531105  0  2.048141  0
O  O214  1  0.62717980  0.27980797  0.56045439  1  -0.569251  0  -0.248366  -0.531043  0  2.047896  0
O  O215  1  0.37281985  0.22020459  0.06045927  1  -0.568889  0  -0.24843  -0.531123  0  2.048011  0
O  O216  1  0.51966609  0.70835591  0.51384974  1  -0.495388  0  -0.161367  -0.389752  0  1.917888  0
O  O217  1  0.48034530  0.79164340  0.01385730  1  -0.495615  0  -0.161456  -0.389772  0  1.917552  0
O  O218  1  0.48034399  0.29166787  0.48614129  1  -0.495596  0  -0.161389  -0.38971  0  1.917614  0
O  O219  1  0.51966666  0.20836073  0.98614687  1  -0.495556  0  -0.161382  -0.389679  0  1.917882  0
O  O220  1  0.40161289  0.65432285  0.23709466  1  -1.260369  0  -0.634191  -0.836208  0  2.098704  0
O  O221  1  0.59840563  0.84567524  0.73709302  1  -1.262684  0  -0.633981  -0.836006  0  2.098671  0
O  O222  1  0.59838597  0.34566942  0.76290407  1  -1.262732  0  -0.634122  -0.836116  0  2.098584  0
O  O223  1  0.40160868  0.15432341  0.26290435  1  -1.262598  0  -0.634169  -0.836216  0  2.098687  0
