# generated using pymatgen
data_CuH8C14N5
_symmetry_space_group_name_H-M   'P 1'
_cell_length_a   7.65036459
_cell_length_b   17.85463656
_cell_length_c   20.29038811
_cell_angle_alpha   89.99962784
_cell_angle_beta   90.00045448
_cell_angle_gamma   90.00052143
_symmetry_Int_Tables_number   1
_chemical_formula_structural   CuH8C14N5
_chemical_formula_sum   'Cu8 H64 C112 N40'
_cell_volume   2771.55500032
_cell_formula_units_Z   8
loop_
 _symmetry_equiv_pos_site_id
 _symmetry_equiv_pos_as_xyz
  1  'x, y, z'
loop_
 _atom_site_type_symbol
 _atom_site_label
 _atom_site_symmetry_multiplicity
 _atom_site_fract_x
 _atom_site_fract_y
 _atom_site_fract_z
 _atom_site_occupancy
 _atom_site_pbe_bader_charge
 _atom_site_pbe_bader_spin_density
 _atom_site_pbe_cm5_charge
 _atom_site_pbe_ddec_charge
 _atom_site_pbe_ddec_spin_density
 _atom_site_pbe_ddec_sum_bond_order
 _atom_site_pbe_magmom
Cu  Cu0  1  0.04781795  0.10052102  0.08289371  1  0.814483  0  0.63197  0.441637  0  2.763619  0
Cu  Cu1  1  0.95220545  0.39947864  0.58289449  1  0.81436  0  0.632046  0.441736  0  2.763569  0
Cu  Cu2  1  0.54779816  0.89947349  0.41710506  1  0.814364  0  0.632017  0.44167  0  2.763851  0
Cu  Cu3  1  0.45219307  0.60052113  0.91710608  1  0.814425  0  0.631979  0.4417  0  2.763528  0
Cu  Cu4  1  0.95219721  0.89947528  0.91710596  1  0.814432  0  0.63196  0.441638  0  2.763621  0
Cu  Cu5  1  0.04780055  0.60051823  0.41710469  1  0.814357  0  0.631992  0.441654  0  2.763783  0
Cu  Cu6  1  0.45219739  0.10052673  0.58289461  1  0.814363  0  0.632044  0.441744  0  2.763698  0
Cu  Cu7  1  0.54780248  0.39947853  0.08289556  1  0.814382  0  0.631989  0.441655  0  2.763649  0
H  H8  1  0.97000982  0.12980099  0.22875421  1  0.129105  0  0.109172  0.076385  0  1.065619  0
H  H9  1  0.02998527  0.37019538  0.72875536  1  0.129075  0  0.109171  0.076437  0  1.065648  0
H  H10  1  0.47000917  0.87019352  0.27124730  1  0.129178  0  0.109215  0.076475  0  1.065617  0
H  H11  1  0.52997637  0.62980273  0.77124296  1  0.129033  0  0.109161  0.07638  0  1.06562  0
H  H12  1  0.02998703  0.87019868  0.77124299  1  0.129136  0  0.109199  0.076448  0  1.065536  0
H  H13  1  0.97001551  0.62980429  0.27124480  1  0.129048  0  0.109171  0.076417  0  1.065628  0
H  H14  1  0.52998376  0.12980614  0.72875188  1  0.129073  0  0.10918  0.076425  0  1.065559  0
H  H15  1  0.47001918  0.37019638  0.22875720  1  0.129028  0  0.109153  0.076386  0  1.065633  0
H  H16  1  0.95863057  0.23668105  0.30311422  1  0.063755  0  0.107758  0.11475  0  1.010942  0
H  H17  1  0.04135825  0.26331533  0.80311750  1  0.063673  0  0.107729  0.114734  0  1.010835  0
H  H18  1  0.45863527  0.76331453  0.19688529  1  0.062958  0  0.107759  0.114807  0  1.010883  0
H  H19  1  0.54135917  0.73668450  0.69688381  1  0.063647  0  0.107741  0.114776  0  1.010914  0
H  H20  1  0.04136760  0.76331805  0.69688200  1  0.063656  0  0.107718  0.114723  0  1.010929  0
H  H21  1  0.95864122  0.73668546  0.19688513  1  0.063403  0  0.10775  0.114772  0  1.010883  0
H  H22  1  0.54135505  0.23668346  0.80311586  1  0.063382  0  0.107732  0.114723  0  1.010925  0
H  H23  1  0.45864029  0.26331348  0.30311586  1  0.063355  0  0.107738  0.114732  0  1.010941  0
H  H24  1  0.11198508  0.26303809  0.06956830  1  0.11658  0  0.114832  0.082552  0  0.997694  0
H  H25  1  0.88804065  0.23695943  0.56956688  1  0.116597  0  0.114794  0.082426  0  0.997727  0
H  H26  1  0.61196086  0.73695444  0.43043509  1  0.116671  0  0.11475  0.082388  0  0.997737  0
H  H27  1  0.38803065  0.76303729  0.93043054  1  0.116586  0  0.114808  0.082489  0  0.997726  0
H  H28  1  0.88802223  0.73695934  0.93042841  1  0.116641  0  0.114753  0.082419  0  0.997708  0
H  H29  1  0.11195489  0.76303856  0.43043624  1  0.116543  0  0.114813  0.082473  0  0.997742  0
H  H30  1  0.38805822  0.26304802  0.56956310  1  0.116609  0  0.114715  0.08231  0  0.997747  0
H  H31  1  0.61195705  0.23696126  0.06956666  1  0.116624  0  0.114789  0.082451  0  0.997755  0
H  H32  1  0.09813406  0.37803875  0.13752377  1  0.089019  0  0.108278  0.116365  0  1.01334  0
H  H33  1  0.90188526  0.12195995  0.63752305  1  0.089081  0  0.10831  0.116412  0  1.01352  0
H  H34  1  0.59811123  0.62195428  0.36247712  1  0.089032  0  0.10831  0.116385  0  1.013485  0
H  H35  1  0.40188015  0.87803850  0.86247588  1  0.089016  0  0.108322  0.116441  0  1.013379  0
H  H36  1  0.90187325  0.62195923  0.86247195  1  0.089006  0  0.108299  0.116426  0  1.013335  0
H  H37  1  0.09810114  0.87804027  0.36248006  1  0.08895  0  0.108283  0.116382  0  1.013566  0
H  H38  1  0.40190785  0.37804762  0.63752156  1  0.088706  0  0.108282  0.11637  0  1.013456  0
H  H39  1  0.59809971  0.12195892  0.13752280  1  0.088797  0  0.108315  0.116428  0  1.013456  0
H  H40  1  0.21346996  0.44892114  0.21243605  1  0.100602  0  0.109168  0.114844  0  1.015884  0
H  H41  1  0.78652740  0.05107478  0.71243491  1  0.100586  0  0.109153  0.114819  0  1.01588  0
H  H42  1  0.71346499  0.55107571  0.28756617  1  0.100631  0  0.109159  0.114859  0  1.015873  0
H  H43  1  0.28653397  0.94892433  0.78756466  1  0.100645  0  0.109167  0.114852  0  1.015887  0
H  H44  1  0.78653081  0.55107852  0.78756115  1  0.100634  0  0.109176  0.114846  0  1.01582  0
H  H45  1  0.21346553  0.94892488  0.28756821  1  0.10058  0  0.109176  0.114846  0  1.01597  0
H  H46  1  0.28653317  0.44892283  0.71243596  1  0.100624  0  0.109177  0.114874  0  1.015876  0
H  H47  1  0.71346419  0.05107757  0.21243451  1  0.100649  0  0.109166  0.114817  0  1.015897  0
H  H48  1  0.22035522  0.55494319  0.29002323  1  0.07875  0  0.113472  0.079598  0  1.010136  0
H  H49  1  0.77964118  0.94505460  0.79002520  1  0.078682  0  0.113467  0.079562  0  1.01026  0
H  H50  1  0.72036077  0.44505761  0.20997556  1  0.078647  0  0.113485  0.07964  0  1.010149  0
H  H51  1  0.27964046  0.05494505  0.70997534  1  0.078609  0  0.113453  0.079561  0  1.010139  0
H  H52  1  0.77964948  0.44505759  0.70997397  1  0.078695  0  0.113487  0.079621  0  1.010164  0
H  H53  1  0.22036091  0.05494451  0.20997792  1  0.078641  0  0.113464  0.079583  0  1.01021  0
H  H54  1  0.27963608  0.55494094  0.79002706  1  0.078751  0  0.113504  0.079613  0  1.010174  0
H  H55  1  0.72035901  0.94505797  0.29002432  1  0.078649  0  0.113484  0.079635  0  1.010205  0
H  H56  1  0.84187817  0.34165173  0.34299124  1  0.097952  0  0.109464  0.117968  0  0.998606  0
H  H57  1  0.15810756  0.15834212  0.84299548  1  0.098108  0  0.109474  0.118  0  0.998722  0
H  H58  1  0.34188637  0.65834227  0.15700545  1  0.097731  0  0.109464  0.117968  0  0.998699  0
H  H59  1  0.65811638  0.84165985  0.65700618  1  0.097793  0  0.109482  0.118024  0  0.998663  0
H  H60  1  0.15812783  0.65834569  0.65700498  1  0.097617  0  0.109478  0.117915  0  0.998634  0
H  H61  1  0.84188799  0.84165866  0.15700813  1  0.098054  0  0.109469  0.117979  0  0.998742  0
H  H62  1  0.65811833  0.34165908  0.84299520  1  0.097745  0  0.109501  0.117994  0  0.998665  0
H  H63  1  0.34188309  0.15833814  0.34299497  1  0.0978  0  0.109502  0.118001  0  0.998684  0
H  H64  1  0.86431955  0.45338552  0.41520692  1  0.129013  0  0.11197  0.084309  0  1.020842  0
H  H65  1  0.13566639  0.04660949  0.91521075  1  0.128982  0  0.111959  0.084324  0  1.020776  0
H  H66  1  0.36433435  0.54661193  0.08478787  1  0.129134  0  0.111972  0.084361  0  1.020836  0
H  H67  1  0.63567080  0.95339295  0.58479182  1  0.128996  0  0.111989  0.084353  0  1.020829  0
H  H68  1  0.13568514  0.54660967  0.58479374  1  0.12895  0  0.112024  0.084368  0  1.020947  0
H  H69  1  0.86433570  0.95338905  0.08478990  1  0.129032  0  0.111973  0.084304  0  1.020774  0
H  H70  1  0.63567035  0.45338941  0.91521180  1  0.128947  0  0.111977  0.084368  0  1.020801  0
H  H71  1  0.36433128  0.04660560  0.41520982  1  0.128982  0  0.11196  0.084309  0  1.020832  0
C  C72  1  0.54733020  0.09565955  0.96905741  1  0.378765  0  -0.050464  -0.218414  0  4.340828  0
C  C73  1  0.45267517  0.40433450  0.46905805  1  0.378782  0  -0.050557  -0.218523  0  4.340849  0
C  C74  1  0.04731999  0.90434142  0.53093899  1  0.378858  0  -0.050506  -0.218497  0  4.340792  0
C  C75  1  0.95267750  0.59566273  0.03094390  1  0.378632  0  -0.050477  -0.218522  0  4.340869  0
C  C76  1  0.45267973  0.90434907  0.03094127  1  0.378647  0  -0.05045  -0.21836  0  4.340723  0
C  C77  1  0.54732560  0.59566124  0.53094063  1  0.37885  0  -0.050584  -0.218695  0  4.340805  0
C  C78  1  0.95267556  0.09566217  0.46905970  1  0.378616  0  -0.050569  -0.218643  0  4.340811  0
C  C79  1  0.04732066  0.40435317  0.96906119  1  0.378502  0  -0.050493  -0.218415  0  4.340989  0
C  C80  1  0.70789538  0.09514419  0.00176664  1  0.810849  0  0.180754  0.291169  0  4.108181  0
C  C81  1  0.29210932  0.40485382  0.50176886  1  0.81088  0  0.180844  0.291258  0  4.108185  0
C  C82  1  0.20787932  0.90485432  0.49822965  1  0.810588  0  0.180753  0.291225  0  4.107884  0
C  C83  1  0.79211231  0.59514812  0.99823270  1  0.810886  0  0.180894  0.291459  0  4.108039  0
C  C84  1  0.29211585  0.90485884  0.99823056  1  0.810697  0  0.180821  0.291251  0  4.108136  0
C  C85  1  0.70789277  0.59514192  0.49822933  1  0.810941  0  0.180815  0.291318  0  4.107844  0
C  C86  1  0.79210708  0.09514646  0.50176854  1  0.811038  0  0.180847  0.291341  0  4.107915  0
C  C87  1  0.20788586  0.40486331  0.00177091  1  0.81076  0  0.180781  0.291188  0  4.108131  0
C  C88  1  0.39291572  0.10048166  0.00562710  1  0.831397  0  0.177551  0.280383  0  4.12354  0
C  C89  1  0.60709037  0.39951576  0.50562980  1  0.831085  0  0.177572  0.28041  0  4.123566  0
C  C90  1  0.89290148  0.89951478  0.49436975  1  0.831143  0  0.177536  0.280384  0  4.12347  0
C  C91  1  0.10708615  0.60048377  0.99437269  1  0.831071  0  0.177583  0.280444  0  4.123593  0
C  C92  1  0.60709290  0.89951968  0.99437257  1  0.83136  0  0.177469  0.280252  0  4.123706  0
C  C93  1  0.39290518  0.60048334  0.49436839  1  0.831115  0  0.177603  0.280511  0  4.123372  0
C  C94  1  0.10709277  0.10048320  0.50562893  1  0.831024  0  0.17754  0.280483  0  4.123335  0
C  C95  1  0.89290809  0.39952262  0.00563141  1  0.83143  0  0.177502  0.280277  0  4.123687  0
C  C96  1  0.53631426  0.09071373  0.90001240  1  0.758607  0  0.163589  0.25872  0  4.130032  0
C  C97  1  0.46369097  0.40928475  0.40001058  1  0.758689  0  0.163635  0.258805  0  4.13012  0
C  C98  1  0.03630822  0.90929056  0.59998840  1  0.758951  0  0.163722  0.258917  0  4.129985  0
C  C99  1  0.96369072  0.59071869  0.09999190  1  0.758989  0  0.163696  0.258813  0  4.130059  0
C  C100  1  0.46369305  0.90929938  0.09999022  1  0.758907  0  0.163579  0.258729  0  4.129775  0
C  C101  1  0.53631634  0.59070987  0.59998909  1  0.758742  0  0.163681  0.258885  0  4.129623  0
C  C102  1  0.96368994  0.09071359  0.40001127  1  0.758717  0  0.163631  0.258777  0  4.130091  0
C  C103  1  0.03630483  0.40930058  0.90001171  1  0.758778  0  0.163652  0.2588  0  4.129981  0
C  C104  1  0.99702068  0.18545948  0.20936265  1  0.46367  0  0.037421  0.084179  0  3.965212  0
C  C105  1  0.00298577  0.31453870  0.70936453  1  0.46348  0  0.037396  0.084104  0  3.964882  0
C  C106  1  0.49701274  0.81453569  0.29063895  1  0.463762  0  0.037318  0.084028  0  3.965143  0
C  C107  1  0.50297975  0.68545985  0.79063716  1  0.463684  0  0.037428  0.08427  0  3.965109  0
C  C108  1  0.00298010  0.81454018  0.79063406  1  0.463464  0  0.037365  0.084019  0  3.965278  0
C  C109  1  0.99701631  0.68546040  0.29063613  1  0.463625  0  0.037408  0.08414  0  3.964784  0
C  C110  1  0.50298673  0.18546453  0.70936072  1  0.463441  0  0.037343  0.084134  0  3.965102  0
C  C111  1  0.49701972  0.31453981  0.20936546  1  0.463682  0  0.037478  0.084257  0  3.964896  0
C  C112  1  0.98939206  0.24663166  0.25143312  1  -0.043093  0  -0.082669  -0.162698  0  3.935678  0
C  C113  1  0.01059697  0.25336006  0.75143291  1  -0.042943  0  -0.082579  -0.162652  0  3.935745  0
C  C114  1  0.48939502  0.75336236  0.24856500  1  -0.042404  0  -0.082597  -0.162759  0  3.935508  0
C  C115  1  0.51060181  0.74663685  0.74856436  1  -0.042956  0  -0.082566  -0.162729  0  3.935505  0
C  C116  1  0.01060349  0.75336744  0.74856409  1  -0.042966  0  -0.082619  -0.162629  0  3.935759  0
C  C117  1  0.98939727  0.74664017  0.24856725  1  -0.042617  0  -0.082602  -0.162748  0  3.935667  0
C  C118  1  0.51060053  0.24663618  0.75143318  1  -0.042516  0  -0.082539  -0.162633  0  3.935532  0
C  C119  1  0.48940289  0.25336114  0.25143530  1  -0.042712  0  -0.082615  -0.162709  0  3.935666  0
C  C120  1  0.07617684  0.25996020  0.12152094  1  0.438083  0  0.042455  0.098145  0  3.942985  0
C  C121  1  0.92383691  0.24003974  0.62152108  1  0.43829  0  0.042534  0.098408  0  3.943127  0
C  C122  1  0.57615551  0.74003555  0.37848087  1  0.438034  0  0.042596  0.098491  0  3.942713  0
C  C123  1  0.42383098  0.75995935  0.87847940  1  0.438124  0  0.042488  0.098271  0  3.94289  0
C  C124  1  0.92382655  0.74003779  0.87847676  1  0.438122  0  0.042545  0.098321  0  3.942741  0
C  C125  1  0.07615341  0.75995936  0.37848105  1  0.438154  0  0.042488  0.098353  0  3.942802  0
C  C126  1  0.42384788  0.25996747  0.62151879  1  0.43805  0  0.042622  0.09856  0  3.942724  0
C  C127  1  0.57616195  0.24004031  0.12152076  1  0.438168  0  0.042518  0.098288  0  3.942868  0
C  C128  1  0.06966973  0.32407672  0.16010946  1  0.028206  0  -0.081513  -0.16267  0  3.931629  0
C  C129  1  0.93034353  0.17591790  0.66010506  1  0.028224  0  -0.081594  -0.162897  0  3.931423  0
C  C130  1  0.56965017  0.67591508  0.33989332  1  0.028171  0  -0.081602  -0.162932  0  3.931386  0
C  C131  1  0.43034074  0.82407899  0.83989100  1  0.028239  0  -0.081559  -0.162794  0  3.931498  0
C  C132  1  0.93033758  0.67592014  0.83988824  1  0.02816  0  -0.081534  -0.162746  0  3.931392  0
C  C133  1  0.06964549  0.82408233  0.33989658  1  0.028322  0  -0.081587  -0.162918  0  3.931273  0
C  C134  1  0.43035714  0.32408458  0.66010585  1  0.028571  0  -0.081555  -0.162866  0  3.931439  0
C  C135  1  0.56964435  0.17591676  0.16010817  1  0.028403  0  -0.081555  -0.162785  0  3.93124  0
C  C136  1  0.02675608  0.31848849  0.22726189  1  -0.012102  0  0.007952  0.096274  0  3.982194  0
C  C137  1  0.97324943  0.18150956  0.72726351  1  -0.012086  0  0.007918  0.096276  0  3.981976  0
C  C138  1  0.52674830  0.68150594  0.27273731  1  -0.012096  0  0.007968  0.096454  0  3.98186  0
C  C139  1  0.47324381  0.81849141  0.77273761  1  -0.011933  0  0.007881  0.096263  0  3.981981  0
C  C140  1  0.97324600  0.68151117  0.77273383  1  -0.012014  0  0.007973  0.096239  0  3.981928  0
C  C141  1  0.02674742  0.81849234  0.27273714  1  -0.012112  0  0.007927  0.09637  0  3.982015  0
C  C142  1  0.47325509  0.31849372  0.72726285  1  -0.012015  0  0.007915  0.096382  0  3.981806  0
C  C143  1  0.52674781  0.18150769  0.22726550  1  -0.01191  0  0.007894  0.09627  0  3.981852  0
C  C144  1  0.02822644  0.38445719  0.27089369  1  -0.000583  0  0.008577  0.092115  0  3.978931  0
C  C145  1  0.97176169  0.11553494  0.77089421  1  -0.000434  0  0.008601  0.092217  0  3.97884  0
C  C146  1  0.52822551  0.61553669  0.22910502  1  -0.000497  0  0.008596  0.092065  0  3.978826  0
C  C147  1  0.47177614  0.88446379  0.72910346  1  -0.000659  0  0.008611  0.092162  0  3.978756  0
C  C148  1  0.97177825  0.61553743  0.72910105  1  -0.001097  0  0.008516  0.092047  0  3.97886  0
C  C149  1  0.02823124  0.88446360  0.22911039  1  -0.000429  0  0.00853  0.092087  0  3.978953  0
C  C150  1  0.47177396  0.38446354  0.77089514  1  -0.000561  0  0.008617  0.092085  0  3.978805  0
C  C151  1  0.52822463  0.11553308  0.27089424  1  -0.000535  0  0.008611  0.092098  0  3.978797  0
C  C152  1  0.13238669  0.44691966  0.25646565  1  0.015547  0  -0.075456  -0.147442  0  3.925312  0
C  C153  1  0.86761291  0.05307706  0.75646869  1  0.015543  0  -0.075438  -0.147431  0  3.925395  0
C  C154  1  0.63238867  0.55307687  0.24353288  1  0.015424  0  -0.075452  -0.147472  0  3.925446  0
C  C155  1  0.36761198  0.94692349  0.74353261  1  0.015606  0  -0.075415  -0.1474  0  3.925214  0
C  C156  1  0.86761147  0.55307832  0.74352810  1  0.015684  0  -0.075428  -0.147443  0  3.925371  0
C  C157  1  0.13238525  0.94692092  0.24353690  1  0.015513  0  -0.075458  -0.147443  0  3.925542  0
C  C158  1  0.36761080  0.44692223  0.75646876  1  0.015512  0  -0.075499  -0.147533  0  3.92546  0
C  C159  1  0.63238618  0.05307673  0.25646705  1  0.015458  0  -0.075426  -0.147321  0  3.925231  0
C  C160  1  0.13682939  0.50685744  0.29988703  1  0.470891  0  0.04699  0.104486  0  3.953148  0
C  C161  1  0.86316591  0.99313635  0.79988749  1  0.470382  0  0.046943  0.104492  0  3.953012  0
C  C162  1  0.63683182  0.49314191  0.20011398  1  0.470495  0  0.046951  0.104401  0  3.953288  0
C  C163  1  0.36317574  0.00686250  0.70011182  1  0.470989  0  0.046934  0.104429  0  3.953113  0
C  C164  1  0.86317531  0.49313886  0.70011017  1  0.470546  0  0.046989  0.104479  0  3.95303  0
C  C165  1  0.13683879  0.00686107  0.20011513  1  0.470774  0  0.046964  0.104448  0  3.95315  0
C  C166  1  0.36316634  0.50685832  0.79988865  1  0.470413  0  0.046957  0.104499  0  3.953174  0
C  C167  1  0.63683026  0.99313772  0.29988834  1  0.470487  0  0.046946  0.104363  0  3.95304  0
C  C168  1  0.92970046  0.38712530  0.32938332  1  -0.025521  0  -0.081822  -0.164692  0  3.933329  0
C  C169  1  0.07029282  0.11287145  0.82938904  1  -0.025596  0  -0.081911  -0.164869  0  3.933417  0
C  C170  1  0.42970277  0.61286961  0.17060920  1  -0.025097  0  -0.081829  -0.164598  0  3.933427  0
C  C171  1  0.57029896  0.88713185  0.67061236  1  -0.025248  0  -0.08188  -0.164828  0  3.933479  0
C  C172  1  0.07030685  0.61287045  0.67061142  1  -0.024578  0  -0.081836  -0.164521  0  3.933465  0
C  C173  1  0.92970142  0.88712653  0.17061359  1  -0.025811  0  -0.081827  -0.164672  0  3.933075  0
C  C174  1  0.57030062  0.38712949  0.82938997  1  -0.025088  0  -0.081895  -0.16465  0  3.933378  0
C  C175  1  0.42969789  0.11286950  0.32938978  1  -0.025261  0  -0.081863  -0.164686  0  3.93321  0
C  C176  1  0.93974159  0.44969491  0.36974906  1  0.433416  0  0.040366  0.092856  0  3.952299  0
C  C177  1  0.06024209  0.05029931  0.86975117  1  0.433502  0  0.040416  0.09285  0  3.952764  0
C  C178  1  0.43975480  0.55030059  0.13024940  1  0.433165  0  0.040317  0.092606  0  3.952824  0
C  C179  1  0.56025262  0.94970284  0.63024970  1  0.433369  0  0.040399  0.092861  0  3.952475  0
C  C180  1  0.06026180  0.55030139  0.63024913  1  0.433232  0  0.040278  0.092632  0  3.952784  0
C  C181  1  0.93975869  0.94970148  0.13025096  1  0.433673  0  0.040395  0.092815  0  3.952699  0
C  C182  1  0.56024597  0.44969851  0.86975175  1  0.433363  0  0.040324  0.092638  0  3.95279  0
C  C183  1  0.43975208  0.05029459  0.36975046  1  0.4334  0  0.04036  0.092771  0  3.952692  0
N  N184  1  0.83980183  0.09581699  0.03141881  1  -1.2706  0  -0.404889  -0.438407  0  3.455138  0
N  N185  1  0.16020741  0.40418192  0.53142162  1  -1.27054  0  -0.404976  -0.438499  0  3.455431  0
N  N186  1  0.33979167  0.90418260  0.46857393  1  -1.2704  0  -0.404876  -0.43848  0  3.455047  0
N  N187  1  0.66020456  0.59581782  0.96858250  1  -1.270529  0  -0.405037  -0.438684  0  3.455274  0
N  N188  1  0.16021071  0.90418267  0.96857889  1  -1.270477  0  -0.404914  -0.438483  0  3.455324  0
N  N189  1  0.83979598  0.59581214  0.46857410  1  -1.270673  0  -0.404912  -0.438466  0  3.455155  0
N  N190  1  0.66020127  0.09582043  0.53142130  1  -1.270535  0  -0.404931  -0.438484  0  3.455153  0
N  N191  1  0.33979621  0.40418689  0.03142357  1  -1.270516  0  -0.404874  -0.438424  0  3.455254  0
N  N192  1  0.26185435  0.10440856  0.03558738  1  -1.270635  0  -0.406678  -0.434054  0  3.46314  0
N  N193  1  0.73815368  0.39559032  0.53559099  1  -1.270292  0  -0.406652  -0.43404  0  3.463015  0
N  N194  1  0.76183416  0.89558568  0.46441104  1  -1.270412  0  -0.406689  -0.434076  0  3.46318  0
N  N195  1  0.23815544  0.60440692  0.96441337  1  -1.270332  0  -0.406706  -0.434095  0  3.462965  0
N  N196  1  0.73815558  0.89558662  0.96441426  1  -1.270507  0  -0.406646  -0.434  0  3.463086  0
N  N197  1  0.26183926  0.60440934  0.46440868  1  -1.270368  0  -0.406709  -0.434112  0  3.463121  0
N  N198  1  0.23816269  0.10441174  0.53558961  1  -1.270288  0  -0.406706  -0.434161  0  3.462996  0
N  N199  1  0.76184272  0.39559106  0.03559073  1  -1.270365  0  -0.406705  -0.434048  0  3.463076  0
N  N200  1  0.52084899  0.08694738  0.84253197  1  -1.159959  0  -0.330382  -0.420387  0  2.869313  0
N  N201  1  0.47915241  0.41304592  0.34253116  1  -1.160062  0  -0.330435  -0.420474  0  2.869515  0
N  N202  1  0.02084424  0.91305629  0.65746632  1  -1.160201  0  -0.330478  -0.420536  0  2.869539  0
N  N203  1  0.97914937  0.58695422  0.15747038  1  -1.160233  0  -0.33049  -0.420473  0  2.869492  0
N  N204  1  0.47915309  0.91306293  0.15746720  1  -1.160139  0  -0.330374  -0.42042  0  2.869231  0
N  N205  1  0.52084967  0.58694590  0.65747048  1  -1.160078  0  -0.330439  -0.420503  0  2.869015  0
N  N206  1  0.97915392  0.08694954  0.34253187  1  -1.160019  0  -0.330403  -0.420404  0  2.869493  0
N  N207  1  0.02083833  0.41306280  0.84253372  1  -1.160042  0  -0.330423  -0.420453  0  2.869359  0
N  N208  1  0.04065126  0.19094547  0.14514705  1  -1.232423  0  -0.353606  -0.237477  0  3.638476  0
N  N209  1  0.95935907  0.30904701  0.64514345  1  -1.232419  0  -0.353584  -0.237467  0  3.63848  0
N  N210  1  0.54063873  0.80904733  0.35485466  1  -1.232338  0  -0.353582  -0.237381  0  3.638396  0
N  N211  1  0.45934596  0.69094830  0.85485123  1  -1.232443  0  -0.353622  -0.237547  0  3.638754  0
N  N212  1  0.95935082  0.80904971  0.85485015  1  -1.232254  0  -0.353593  -0.23741  0  3.638447  0
N  N213  1  0.04064171  0.69095041  0.35485622  1  -1.232343  0  -0.35356  -0.237432  0  3.638307  0
N  N214  1  0.45936205  0.19095457  0.64514255  1  -1.232353  0  -0.353594  -0.237524  0  3.638369  0
N  N215  1  0.54064566  0.30905024  0.14514795  1  -1.232367  0  -0.353608  -0.237492  0  3.638539  0
N  N216  1  0.04204367  0.50931524  0.35579414  1  -1.233812  0  -0.354241  -0.24046  0  3.633177  0
N  N217  1  0.95795411  0.99068376  0.85579983  1  -1.233595  0  -0.354234  -0.240436  0  3.633492  0
N  N218  1  0.54205402  0.49068542  0.14420313  1  -1.233576  0  -0.354236  -0.240347  0  3.633432  0
N  N219  1  0.45795236  0.00931940  0.64420322  1  -1.233942  0  -0.354285  -0.24048  0  3.633328  0
N  N220  1  0.95796233  0.49068331  0.64420208  1  -1.233573  0  -0.35425  -0.240364  0  3.633087  0
N  N221  1  0.04205190  0.00931479  0.14420329  1  -1.233879  0  -0.354226  -0.240396  0  3.633662  0
N  N222  1  0.45794937  0.50931369  0.85579949  1  -1.233605  0  -0.354206  -0.240356  0  3.633354  0
N  N223  1  0.54204711  0.99068139  0.35579842  1  -1.233557  0  -0.354309  -0.240465  0  3.633492  0
