# generated using pymatgen
data_Zn4H26C36N8O13
_symmetry_space_group_name_H-M   'P 1'
_cell_length_a   15.17558085
_cell_length_b   20.15646202
_cell_length_c   22.54704008
_cell_angle_alpha   88.89152427
_cell_angle_beta   88.57955156
_cell_angle_gamma   91.35100049
_symmetry_Int_Tables_number   1
_chemical_formula_structural   Zn4H26C36N8O13
_chemical_formula_sum   'Zn8 H52 C72 N16 O26'
_cell_volume   6891.41774365
_cell_formula_units_Z   2
loop_
 _symmetry_equiv_pos_site_id
 _symmetry_equiv_pos_as_xyz
  1  'x, y, z'
loop_
 _atom_site_type_symbol
 _atom_site_label
 _atom_site_symmetry_multiplicity
 _atom_site_fract_x
 _atom_site_fract_y
 _atom_site_fract_z
 _atom_site_occupancy
 _atom_site_pbe_bader_charge
 _atom_site_pbe_bader_spin_density
 _atom_site_pbe_cm5_charge
 _atom_site_pbe_ddec_charge
 _atom_site_pbe_ddec_spin_density
 _atom_site_pbe_ddec_sum_bond_order
 _atom_site_pbe_magmom
Zn  Zn0  1  0.42560731  0.41979245  0.99083948  1  1.316263  0  0.670964  0.963539  0  2.364419  0
Zn  Zn1  1  0.43065319  0.92018494  0.49028545  1  1.315195  0  0.671322  0.965272  0  2.361163  0
Zn  Zn2  1  0.41611356  0.57998919  0.00378589  1  1.323172  0  0.674499  0.974892  0  2.342876  0
Zn  Zn3  1  0.41938290  0.08064583  0.50423715  1  1.324173  0  0.6741  0.975483  0  2.332036  0
Zn  Zn4  1  0.57458174  0.50587708  0.93356072  1  1.304017  0  0.665711  0.937631  0  2.421062  0
Zn  Zn5  1  0.56255680  0.50405550  0.07264104  1  1.315346  0  0.672769  0.960328  0  2.383403  0
Zn  Zn6  1  0.57940047  0.00704341  0.43447993  1  1.303703  0  0.666001  0.935848  0  2.430357  0
Zn  Zn7  1  0.56695153  0.00594287  0.57270225  1  1.315617  0  0.674043  0.962957  0  2.374825  0
H  H8  1  0.00018219  0.38136449  0.94039011  1  0.039997  0  0.099848  0.094588  0  1.01601  0
H  H9  1  0.00375821  0.88149381  0.43896917  1  0.032348  0  0.100264  0.094743  0  1.015522  0
H  H10  1  0.82867178  0.61217345  0.05166108  1  0.059255  0  0.102904  0.117108  0  0.994492  0
H  H11  1  0.83438081  0.10686386  0.56013964  1  0.064259  0  0.100119  0.113478  0  0.999828  0
H  H12  1  0.52957947  0.64952831  0.66130071  1  0.02745  0  0.09995  0.102852  0  1.025731  0
H  H13  1  0.69401485  0.75817200  0.24794159  1  0.02562  0  0.099146  0.103183  0  1.026151  0
H  H14  1  0.52479183  0.14702021  0.16151631  1  0.046072  0  0.099845  0.103151  0  1.024846  0
H  H15  1  0.69101896  0.24807379  0.75759277  1  -0.004335  0  0.09778  0.098072  0  1.03012  0
H  H16  1  0.48350081  0.38027024  0.21867873  1  0.076439  0  0.106549  0.108835  0  1.012829  0
H  H17  1  0.39741220  0.31839285  0.82827631  1  0.093992  0  0.106538  0.108298  0  1.014435  0
H  H18  1  0.48074424  0.88138127  0.71976935  1  0.056434  0  0.106326  0.106208  0  1.013412  0
H  H19  1  0.40145361  0.82285652  0.32576813  1  0.092834  0  0.106071  0.106583  0  1.015458  0
H  H20  1  0.14216961  0.57844373  0.03035830  1  0.093961  0  0.106411  0.106366  0  1.015123  0
H  H21  1  0.14748944  0.07798687  0.52832772  1  0.080069  0  0.106394  0.106496  0  1.015413  0
H  H22  1  0.16170681  0.38947722  0.94851083  1  0.093949  0  0.103765  0.109015  0  0.998762  0
H  H23  1  0.16522182  0.88843054  0.44731036  1  0.092968  0  0.103897  0.108908  0  0.998633  0
H  H24  1  0.57885594  0.59754673  0.72583442  1  0.428801  0  0.30068  0.289576  0  0.966196  0
H  H25  1  0.55249723  0.56763101  0.79645961  1  0.4975  0  0.294845  0.307026  0  0.998504  0
H  H26  1  0.68690004  0.67028530  0.21124370  1  0.423459  0  0.298743  0.288478  0  0.96611  0
H  H27  1  0.64101405  0.63053600  0.15250110  1  0.482101  0  0.294039  0.307474  0  0.995143  0
H  H28  1  0.55826581  0.06900722  0.29774711  1  0.499771  0  0.294845  0.307461  0  0.996191  0
H  H29  1  0.58058014  0.09803255  0.22634761  1  0.456354  0  0.300868  0.290565  0  0.965183  0
H  H30  1  0.69367396  0.19596653  0.68967828  1  0.421112  0  0.297068  0.285835  0  0.98189  0
H  H31  1  0.64240996  0.13781376  0.64495056  1  0.505421  0  0.296097  0.312635  0  0.993201  0
H  H32  1  0.86906914  0.36934807  0.96373321  1  0.411298  0  0.297584  0.285866  0  0.964846  0
H  H33  1  0.77499447  0.41073288  0.95837585  1  0.400252  0  0.295405  0.290458  0  0.971253  0
H  H34  1  0.87204611  0.87164873  0.45687013  1  0.409393  0  0.297657  0.285917  0  0.967399  0
H  H35  1  0.77902084  0.91534273  0.45196856  1  0.459419  0  0.294514  0.292007  0  0.977626  0
H  H36  1  0.44943190  0.74995434  0.90124328  1  0.082399  0  0.099635  0.119864  0  1.013071  0
H  H37  1  0.34305570  0.68554288  0.15629405  1  0.077766  0  0.099021  0.118713  0  1.01224  0
H  H38  1  0.44608008  0.25029563  0.40048409  1  0.096264  0  0.099451  0.119561  0  1.014114  0
H  H39  1  0.33901234  0.17448389  0.66416141  1  0.058661  0  0.098421  0.11735  0  1.013217  0
H  H40  1  0.42180561  0.36188907  0.37094918  1  0.431974  0  0.300806  0.29354  0  0.947227  0
H  H41  1  0.41181114  0.38450211  0.29973811  1  0.420741  0  0.29506  0.282388  0  0.968374  0
H  H42  1  0.25298816  0.22564005  0.73937781  1  0.420375  0  0.298586  0.289608  0  0.951474  0
H  H43  1  0.29628415  0.25836471  0.79993210  1  0.443614  0  0.295076  0.282323  0  0.971319  0
H  H44  1  0.44827502  0.86465766  0.87569034  1  0.411039  0  0.300519  0.293235  0  0.946649  0
H  H45  1  0.48309905  0.89560238  0.80970004  1  0.401496  0  0.295908  0.284019  0  0.96875  0
H  H46  1  0.29845393  0.77269042  0.29068382  1  0.386485  0  0.295124  0.282949  0  0.971871  0
H  H47  1  0.25617481  0.73849572  0.23027997  1  0.431447  0  0.300765  0.292873  0  0.949262  0
H  H48  1  0.51231885  0.18116532  0.06171296  1  0.448373  0  0.308184  0.302  0  0.941122  0
H  H49  1  0.49469222  0.26278843  0.04146453  1  0.490398  0  0.296628  0.30776  0  0.987565  0
H  H50  1  0.75419632  0.32794149  0.81841153  1  0.429463  0  0.305889  0.299872  0  0.943718  0
H  H51  1  0.69129076  0.37809923  0.86244405  1  0.499215  0  0.294614  0.305219  0  0.994087  0
H  H52  1  0.52276789  0.68487470  0.56205218  1  0.452429  0  0.308405  0.302866  0  0.939526  0
H  H53  1  0.50357862  0.76623435  0.54213496  1  0.473396  0  0.29657  0.306645  0  0.987017  0
H  H54  1  0.75754193  0.83709280  0.31012708  1  0.44148  0  0.306506  0.30105  0  0.941623  0
H  H55  1  0.69477657  0.88528514  0.35622290  1  0.49227  0  0.294738  0.305296  0  0.993554  0
H  H56  1  0.95844009  0.67748392  0.06399033  1  0.414134  0  0.303422  0.294957  0  0.945536  0
H  H57  1  0.05872095  0.65542072  0.04006505  1  0.430343  0  0.300617  0.290355  0  0.962379  0
H  H58  1  0.96535307  0.16253816  0.58904578  1  0.417036  0  0.302043  0.29263  0  0.949703  0
H  H59  1  0.06577875  0.12953482  0.58204038  1  0.439165  0  0.298445  0.286185  0  0.970533  0
C  C60  1  0.48456011  0.62818325  0.11498271  1  1.462216  0  0.22044  0.615858  0  4.130637  0
C  C61  1  0.49148493  0.62581622  0.88747500  1  1.459615  0  0.218871  0.613461  0  4.126217  0
C  C62  1  0.48295644  0.12734847  0.61567251  1  1.464345  0  0.215814  0.608602  0  4.141805  0
C  C63  1  0.49651221  0.12757951  0.38866689  1  1.455251  0  0.220845  0.617229  0  4.12288  0
C  C64  1  0.48781829  0.27904990  0.25242827  1  0.041062  0  -0.019331  -0.021752  0  4.000797  0
C  C65  1  0.46470557  0.25725701  0.76403545  1  0.032767  0  -0.020251  -0.024669  0  4.001021  0
C  C66  1  0.49131814  0.78036034  0.75341269  1  0.030211  0  -0.0195  -0.022497  0  3.997461  0
C  C67  1  0.46788273  0.76378958  0.25940830  1  0.001783  0  -0.020785  -0.025652  0  3.998859  0
C  C68  1  0.50977353  0.71393627  0.73602239  1  0.013707  0  -0.009193  0.017125  0  3.998297  0
C  C69  1  0.55317576  0.74280114  0.23949466  1  0.080485  0  -0.009846  0.017083  0  4.000174  0
C  C70  1  0.50678870  0.21255308  0.23566723  1  -0.007359  0  -0.009259  0.016491  0  3.997374  0
C  C71  1  0.55022883  0.23709107  0.74385031  1  0.018498  0  -0.009718  0.016513  0  3.991948  0
C  C72  1  0.51519956  0.66168164  0.78034547  1  0.447597  0  0.102306  0.236733  0  4.032058  0
C  C73  1  0.56052364  0.69464361  0.19326626  1  0.478854  0  0.09807  0.230873  0  4.033367  0
C  C74  1  0.51595584  0.16159726  0.28079702  1  0.452287  0  0.103483  0.238824  0  4.030435  0
C  C75  1  0.55811382  0.19081319  0.69594105  1  0.401686  0  0.102204  0.238626  0  4.032647  0
C  C76  1  0.46747835  0.74180061  0.85492178  1  0.006434  0  -0.123115  -0.24495  0  4.032748  0
C  C77  1  0.40020468  0.70153209  0.18116608  1  -0.027721  0  -0.122685  -0.24569  0  4.031909  0
C  C78  1  0.46543729  0.24193235  0.35442436  1  -0.057992  0  -0.123211  -0.246687  0  4.03351  0
C  C79  1  0.39650115  0.19235898  0.68773154  1  2.9e-05  0  -0.123249  -0.244442  0  4.040375  0
C  C80  1  0.47064110  0.79391982  0.81457429  1  0.348964  0  0.072411  0.224053  0  4.132652  0
C  C81  1  0.39019925  0.74198984  0.22926585  1  0.314428  0  0.073002  0.226671  0  4.130961  0
C  C82  1  0.46570768  0.29317552  0.31323003  1  0.336449  0  0.073578  0.226312  0  4.133851  0
C  C83  1  0.38671567  0.23273629  0.73581292  1  0.347793  0  0.072025  0.223528  0  4.136094  0
C  C84  1  0.16048130  0.48532462  0.99005133  1  -0.03101  0  -0.024251  -0.043515  0  4.007637  0
C  C85  1  0.16490862  0.98414078  0.48916040  1  0.020755  0  -0.023614  -0.042984  0  4.008596  0
C  C86  1  0.83117374  0.51827918  0.00758043  1  -0.00715  0  -0.030522  -0.124447  0  4.017171  0
C  C87  1  0.83582602  0.01775152  0.50896774  1  0.060148  0  -0.031798  -0.129407  0  4.015202  0
C  C88  1  0.96187229  0.58339318  0.03331345  1  0.37962  0  0.081959  0.23374  0  4.112798  0
C  C89  1  0.96729946  0.07937485  0.53904883  1  0.366919  0  0.081003  0.231821  0  4.118409  0
C  C90  1  0.87115823  0.57454434  0.03285110  1  0.007465  0  -0.111196  -0.231877  0  4.015361  0
C  C91  1  0.87660957  0.07109178  0.53832591  1  -0.000761  0  -0.111791  -0.231577  0  4.023092  0
C  C92  1  0.88071525  0.46816969  0.98230453  1  0.391231  0  0.083382  0.199794  0  4.066651  0
C  C93  1  0.88498358  0.96887327  0.48117996  1  0.352395  0  0.087216  0.207156  0  4.060921  0
C  C94  1  0.52227317  0.37698770  0.88522743  1  1.530332  0  0.223606  0.618149  0  4.145127  0
C  C95  1  0.49795869  0.36987249  0.10408749  1  1.529554  0  0.227551  0.624271  0  4.134993  0
C  C96  1  0.52696827  0.87911395  0.38357939  1  1.529872  0  0.222577  0.6174  0  4.146487  0
C  C97  1  0.50192062  0.87244372  0.60530974  1  1.504885  0  0.228239  0.62587  0  4.129634  0
C  C98  1  0.97463151  0.47423440  0.98447313  1  0.074416  0  -0.008309  0.002919  0  3.964798  0
C  C99  1  0.97897891  0.97356626  0.48461431  1  0.038926  0  -0.008302  0.001472  0  3.9603  0
C  C100  1  0.01560108  0.53183202  0.00997250  1  0.037117  0  -0.010817  -0.009592  0  3.963685  0
C  C101  1  0.02046688  0.02972624  0.51198460  1  0.0723  0  -0.010198  -0.004557  0  3.961206  0
C  C102  1  0.10859881  0.53585869  0.01119774  1  -0.075628  0  -0.077743  -0.11837  0  3.933588  0
C  C103  1  0.11347630  0.03436864  0.51133795  1  -0.112368  0  -0.077268  -0.119602  0  3.934874  0
C  C104  1  0.12013257  0.42860476  0.96527747  1  -0.066778  0  -0.091161  -0.102969  0  4.014275  0
C  C105  1  0.12405399  0.92761056  0.46445612  1  0.009057  0  -0.090858  -0.10235  0  4.013603  0
C  C106  1  0.02976792  0.42420496  0.96177596  1  -0.005552  0  -0.094765  -0.124673  0  4.015407  0
C  C107  1  0.03363449  0.92380774  0.46094253  1  -0.065634  0  -0.09332  -0.123124  0  4.013827  0
C  C108  1  0.25821000  0.49048607  0.99350117  1  1.522375  0  0.226841  0.610583  0  4.156457  0
C  C109  1  0.26275401  0.98968789  0.49162727  1  1.511533  0  0.227123  0.610651  0  4.159826  0
C  C110  1  0.73285662  0.51374555  0.00730484  1  1.50996  0  0.229479  0.628484  0  4.151546  0
C  C111  1  0.73775438  0.01406371  0.50879378  1  1.512048  0  0.227922  0.625251  0  4.14987  0
C  C112  1  0.49097033  0.67615915  0.83934970  1  0.059565  0  -0.042382  -0.160336  0  4.011762  0
C  C113  1  0.48345532  0.67615108  0.16356969  1  0.025114  0  -0.040969  -0.155693  0  4.00824  0
C  C114  1  0.49311259  0.17694735  0.33986450  1  0.046443  0  -0.042066  -0.159434  0  4.00748  0
C  C115  1  0.48045980  0.17085953  0.66727599  1  0.07186  0  -0.042204  -0.158304  0  4.009642  0
C  C116  1  0.50010955  0.31394642  0.14757419  1  -0.05654  0  -0.029748  -0.153489  0  3.954564  0
C  C117  1  0.53525681  0.32839253  0.83747497  1  0.012324  0  -0.030915  -0.154747  0  3.953776  0
C  C118  1  0.50454254  0.81643576  0.64877730  1  -0.04401  0  -0.028327  -0.15  0  3.94731  0
C  C119  1  0.53937884  0.83246920  0.33423164  1  -0.051097  0  -0.030598  -0.1542  0  3.950563  0
C  C120  1  0.51608802  0.19822364  0.17498606  1  -0.011034  0  -0.115007  -0.26682  0  3.968095  0
C  C121  1  0.62529003  0.26353291  0.77130445  1  -0.004185  0  -0.114486  -0.262636  0  3.972587  0
C  C122  1  0.52098978  0.70054192  0.67530232  1  -0.074485  0  -0.113984  -0.265587  0  3.973704  0
C  C123  1  0.62881427  0.77030786  0.26548919  1  -0.057702  0  -0.115691  -0.266801  0  3.973985  0
C  C124  1  0.50989147  0.24644139  0.13005769  1  0.430218  0  0.100203  0.297304  0  4.0991  0
C  C125  1  0.62107196  0.31005222  0.81632249  1  0.424002  0  0.098066  0.294681  0  4.095453  0
C  C126  1  0.51649151  0.74933378  0.63079011  1  0.478389  0  0.09941  0.29536  0  4.101606  0
C  C127  1  0.62500169  0.81608442  0.31109853  1  0.426614  0  0.098134  0.295094  0  4.095305  0
C  C128  1  0.49004090  0.32828084  0.20742166  1  0.002221  0  -0.079422  -0.106369  0  3.966991  0
C  C129  1  0.46072903  0.30149311  0.81141212  1  -0.057325  0  -0.079209  -0.103767  0  3.966254  0
C  C130  1  0.49242539  0.82993414  0.70864996  1  -0.002202  0  -0.079125  -0.104795  0  3.964437  0
C  C131  1  0.46446516  0.80657188  0.30787803  1  -0.009254  0  -0.079952  -0.104912  0  3.967862  0
N  N132  1  0.53937377  0.59968034  0.76254285  1  -1.246459  0  -0.602692  -0.613111  0  3.349698  0
N  N133  1  0.64288835  0.67157700  0.17820685  1  -1.240066  0  -0.606808  -0.621497  0  3.337259  0
N  N134  1  0.54222893  0.09985475  0.26361636  1  -1.2738  0  -0.602923  -0.615389  0  3.34809  0
N  N135  1  0.63980799  0.16794744  0.68063964  1  -1.248648  0  -0.601447  -0.616573  0  3.373919  0
N  N136  1  0.84175839  0.41376116  0.95447043  1  -1.152343  0  -0.60909  -0.627122  0  3.325211  0
N  N137  1  0.84592477  0.91700555  0.45029919  1  -1.203524  0  -0.608734  -0.62642  0  3.337426  0
N  N138  1  0.44783372  0.35849169  0.32921517  1  -1.197562  0  -0.609631  -0.628009  0  3.298381  0
N  N139  1  0.30345164  0.25346178  0.75532285  1  -1.22033  0  -0.611324  -0.626872  0  3.300826  0
N  N140  1  0.44831013  0.85827473  0.83110816  1  -1.181486  0  -0.610901  -0.629262  0  3.294498  0
N  N141  1  0.30733845  0.76529089  0.24654518  1  -1.155832  0  -0.610326  -0.627303  0  3.302295  0
N  N142  1  0.51859772  0.22984976  0.07132025  1  -1.272537  0  -0.602273  -0.627557  0  3.328823  0
N  N143  1  0.69696113  0.33415605  0.84143872  1  -1.268568  0  -0.60401  -0.629585  0  3.329382  0
N  N144  1  0.52795884  0.73353133  0.57202112  1  -1.248497  0  -0.602442  -0.627108  0  3.323455  0
N  N145  1  0.70122999  0.84183200  0.33455388  1  -1.273103  0  -0.6041  -0.6298  0  3.328311  0
N  N146  1  0.00032253  0.63936971  0.05876383  1  -1.190646  0  -0.606561  -0.626652  0  3.29922  0
N  N147  1  0.00642899  0.13573752  0.56322046  1  -1.217907  0  -0.604998  -0.621969  0  3.313986  0
O  O148  1  0.49263558  0.50240810  0.00123177  1  -1.23575  0  -0.577939  -1.0285  0  2.566636  0
O  O149  1  0.49642344  0.00316895  0.50147952  1  -1.234205  0  -0.577551  -1.028843  0  2.564418  0
O  O150  1  0.55197212  0.59044814  0.10993290  1  -1.180888  0  -0.323491  -0.567468  0  2.376835  0
O  O151  1  0.52990945  0.57016036  0.87704302  1  -1.184972  0  -0.324691  -0.563568  0  2.369285  0
O  O152  1  0.55389840  0.09441005  0.60590947  1  -1.194009  0  -0.327486  -0.574847  0  2.387927  0
O  O153  1  0.53788291  0.07310697  0.37862437  1  -1.180544  0  -0.324735  -0.563572  0  2.374266  0
O  O154  1  0.44915285  0.37500658  0.91460994  1  -1.17574  0  -0.318264  -0.550735  0  2.30919  0
O  O155  1  0.46983478  0.35750980  0.05189644  1  -1.186208  0  -0.316731  -0.562639  0  2.334277  0
O  O156  1  0.45519316  0.87485150  0.41444619  1  -1.180302  0  -0.318716  -0.552186  0  2.30799  0
O  O157  1  0.47397585  0.85976450  0.55318922  1  -1.183226  0  -0.314992  -0.560521  0  2.336071  0
O  O158  1  0.29269363  0.54841031  0.99858378  1  -1.169481  0  -0.317696  -0.552066  0  2.33053  0
O  O159  1  0.29689880  0.04774817  0.49608368  1  -1.175608  0  -0.316779  -0.550764  0  2.332559  0
O  O160  1  0.69837062  0.51449505  0.95610387  1  -1.164746  0  -0.316602  -0.546225  0  2.320048  0
O  O161  1  0.69171235  0.50890372  0.05715657  1  -1.165078  0  -0.311843  -0.538391  0  2.295696  0
O  O162  1  0.70312380  0.01054071  0.45770048  1  -1.172585  0  -0.316846  -0.547673  0  2.334697  0
O  O163  1  0.69613120  0.01400319  0.55859350  1  -1.160577  0  -0.312812  -0.539223  0  2.297055  0
O  O164  1  0.45490619  0.63947192  0.93748748  1  -1.180963  0  -0.321607  -0.554466  0  2.322545  0
O  O165  1  0.41884530  0.62546683  0.08042923  1  -1.160341  0  -0.319938  -0.549487  0  2.305488  0
O  O166  1  0.45945220  0.14082570  0.43861720  1  -1.174752  0  -0.322209  -0.555891  0  2.319391  0
O  O167  1  0.41583679  0.12376246  0.58225002  1  -1.166507  0  -0.321011  -0.548368  0  2.293174  0
O  O168  1  0.52347474  0.42701996  0.12160370  1  -1.176053  0  -0.31919  -0.549342  0  2.321506  0
O  O169  1  0.58550200  0.41911116  0.89412138  1  -1.190342  0  -0.318627  -0.559613  0  2.346362  0
O  O170  1  0.52752221  0.92967933  0.62269525  1  -1.169776  0  -0.319357  -0.550795  0  2.311511  0
O  O171  1  0.58930263  0.92196259  0.39230895  1  -1.185791  0  -0.318481  -0.558985  0  2.353993  0
O  O172  1  0.29939824  0.43574877  0.99094651  1  -1.174871  0  -0.32072  -0.552349  0  2.328525  0
O  O173  1  0.30416002  0.93504135  0.48927368  1  -1.165364  0  -0.321041  -0.552358  0  2.327913  0
