# generated using pymatgen
data_CuH20C20S2(NCl)2
_symmetry_space_group_name_H-M   'P 1'
_cell_length_a   7.93040778
_cell_length_b   9.95528192
_cell_length_c   12.86388112
_cell_angle_alpha   90.00011852
_cell_angle_beta   91.15332297
_cell_angle_gamma   90.00012420
_symmetry_Int_Tables_number   1
_chemical_formula_structural   CuH20C20S2(NCl)2
_chemical_formula_sum   'Cu2 H40 C40 S4 N4 Cl4'
_cell_volume   1015.39053095
_cell_formula_units_Z   2
loop_
 _symmetry_equiv_pos_site_id
 _symmetry_equiv_pos_as_xyz
  1  'x, y, z'
loop_
 _atom_site_type_symbol
 _atom_site_label
 _atom_site_symmetry_multiplicity
 _atom_site_fract_x
 _atom_site_fract_y
 _atom_site_fract_z
 _atom_site_occupancy
 _atom_site_hle17_ddec_charge
 _atom_site_hle17_ddec_spin_density
 _atom_site_hle17_ddec_sum_bond_order
 _atom_site_hle17_magmom
 _atom_site_hse06_10hf_ddec_charge
 _atom_site_hse06_10hf_ddec_spin_density
 _atom_site_hse06_10hf_ddec_sum_bond_order
 _atom_site_hse06_10hf_magmom
 _atom_site_hse06_ddec_charge
 _atom_site_hse06_ddec_spin_density
 _atom_site_hse06_ddec_sum_bond_order
 _atom_site_hse06_magmom
 _atom_site_pbe_cm5_charge
 _atom_site_pbe_ddec_charge
 _atom_site_pbe_ddec_spin_density
 _atom_site_pbe_ddec_sum_bond_order
 _atom_site_pbe_magmom
Cu  Cu0  1  0.49999995  0.50000001  0.49999993  1  0.591749  0.645677  2.103625  0.438  0.583364  0.751729  2.476137  0.566  0.673269  0.840936  2.410161  0.659  0.566823  0.535736  0.691159  2.514857  0.51
Cu  Cu1  1  0.00000130  0.00000135  0.99999971  1  0.591956  -0.645709  2.103521  -0.438  0.583438  -0.751731  2.476079  -0.566  0.673385  -0.840953  2.410079  -0.659  0.56686  0.535802  -0.691157  2.514815  -0.51
H  H2  1  0.17865707  0.37816599  0.55853192  1  0.063043  0.00088  0.997431  0.001  0.060026  0.000906  1.084533  0.001  0.062327  0.000691  1.082036  0.001  0.099764  0.057961  0.001034  1.0868  0.001
H  H3  1  0.67865596  0.12183750  0.05853620  1  0.063068  -0.000879  0.997351  -0.001  0.06007  -0.000906  1.084447  -0.001  0.062371  -0.000691  1.08195  -0.001  0.099753  0.058002  -0.001033  1.08671  -0.001
H  H4  1  0.82134281  0.62183503  0.44146561  1  0.063071  0.00088  0.997433  0.001  0.060057  0.000906  1.084528  0.001  0.062357  0.000691  1.082034  0.001  0.099786  0.057992  0.001033  1.086794  0.001
H  H5  1  0.32134645  0.87816353  0.94146135  1  0.063035  -0.000879  0.997354  -0.001  0.060086  -0.000907  1.084387  -0.001  0.062377  -0.000691  1.081896  -0.001  0.099734  0.058017  -0.001034  1.086652  -0.001
H  H6  1  0.07930637  0.18284059  0.66346643  1  0.107995  0.000266  0.969619  0.0  0.115821  0.000282  1.033704  0.0  0.11871  0.00021  1.033369  0.0  0.102151  0.11367  0.000336  1.034352  0.001
H  H7  1  0.57930579  0.31716502  0.16346870  1  0.108028  -0.000267  0.969506  0.0  0.115856  -0.000282  1.033581  0.0  0.118745  -0.00021  1.033247  0.0  0.102173  0.113704  -0.000336  1.034229  -0.001
H  H8  1  0.92069604  0.81716044  0.33653190  1  0.108025  0.000266  0.969545  0.0  0.115846  0.000282  1.033637  0.0  0.118735  0.000211  1.033302  0.0  0.102157  0.113694  0.000336  1.034284  0.001
H  H9  1  0.42069663  0.68283500  0.83653041  1  0.108026  -0.000267  0.96952  0.0  0.115852  -0.000282  1.033597  0.0  0.118742  -0.00021  1.033263  0.0  0.102161  0.113701  -0.000336  1.034249  -0.001
H  H10  1  0.29354115  0.03958730  0.75601033  1  0.099837  0.000434  0.929219  0.001  0.112528  9.9e-05  0.984325  0.0  0.114431  5.4e-05  0.983639  0.0  0.108478  0.111033  0.000149  0.984967  0.0
H  H11  1  0.79354221  0.46041793  0.25601207  1  0.099836  -0.000433  0.929267  -0.001  0.112525  -9.9e-05  0.984374  0.0  0.114427  -5.4e-05  0.98369  0.0  0.108488  0.11103  -0.000149  0.985016  0.0
H  H12  1  0.70646001  0.96041473  0.24398877  1  0.099817  0.000434  0.929191  0.001  0.112503  9.9e-05  0.984309  0.0  0.114405  5.4e-05  0.983625  0.0  0.108467  0.111005  0.000149  0.984949  0.0
H  H13  1  0.20645894  0.53958109  0.74398703  1  0.099833  -0.000433  0.929239  -0.001  0.112505  -9.9e-05  0.984373  0.0  0.114408  -5.4e-05  0.983688  0.0  0.108494  0.11101  -0.000149  0.985014  0.0
H  H14  1  0.60161457  0.10474794  0.74553444  1  0.111657  0.000148  0.968513  0.0  0.120649  0.000191  1.032273  0.001  0.124624  0.000149  1.030215  0.0  0.09926  0.117664  0.000249  1.034086  0.001
H  H15  1  0.10161572  0.39525593  0.24553748  1  0.111688  -0.000149  0.968532  0.0  0.120687  -0.000191  1.032288  -0.001  0.12467  -0.000149  1.030224  0.0  0.099277  0.117703  -0.000249  1.034102  -0.001
H  H16  1  0.39838658  0.89525409  0.25446466  1  0.111676  0.000148  0.968476  0.0  0.120667  0.000191  1.032234  0.001  0.124648  0.000149  1.030171  0.0  0.099269  0.117681  0.000249  1.034046  0.001
H  H17  1  0.89838544  0.60474510  0.75446317  1  0.111703  -0.000148  0.968499  0.0  0.120689  -0.000191  1.032265  -0.001  0.124673  -0.000149  1.030199  0.0  0.099278  0.117705  -0.000249  1.034081  -0.001
H  H18  1  0.81122975  0.23493620  0.67407537  1  0.109289  -0.00159  0.970052  -0.001  0.124485  -0.001373  1.03359  0.0  0.127365  -0.001034  1.031879  0.0  0.09144  0.122695  -0.001622  1.034673  -0.001
H  H19  1  0.31123181  0.26506583  0.17407821  1  0.109302  0.001591  0.970079  0.001  0.124533  0.001373  1.03358  0.0  0.127413  0.001035  1.03187  0.0  0.09147  0.122745  0.001623  1.034666  0.001
H  H20  1  0.18877015  0.76506483  0.32592527  1  0.109314  -0.00159  0.970071  -0.001  0.124501  -0.001373  1.033594  0.0  0.127382  -0.001034  1.031883  0.0  0.091444  0.122712  -0.001622  1.034676  -0.001
H  H21  1  0.68877061  0.73493620  0.82592167  1  0.109288  0.001591  0.970084  0.001  0.124455  0.001373  1.033644  0.0  0.127335  0.001035  1.031933  0.0  0.091442  0.122673  0.001623  1.034727  0.001
H  H22  1  0.75172087  0.40688208  0.68809066  1  0.12499  -0.000373  0.939839  0.0  0.144584  -0.000161  0.994033  0.0  0.146975  -0.000167  0.992319  0.0  0.100518  0.142926  -0.000187  0.995256  0.0
H  H23  1  0.25171993  0.09312290  0.18809398  1  0.125028  0.000372  0.939779  0.0  0.144591  0.000161  0.994007  0.0  0.146985  0.000167  0.992289  0.0  0.100529  0.142933  0.000187  0.995227  0.0
H  H24  1  0.24828028  0.59312096  0.31190688  1  0.125021  -0.000373  0.939806  0.0  0.144605  -0.000161  0.993998  0.0  0.146998  -0.000167  0.992281  0.0  0.100529  0.142947  -0.000187  0.995221  0.0
H  H25  1  0.74828249  0.90688014  0.81190669  1  0.125033  0.000373  0.939854  0.0  0.144626  0.000161  0.994035  0.0  0.147018  0.000167  0.992318  0.0  0.100537  0.14297  0.000187  0.99526  0.0
H  H26  1  0.62186261  0.17338952  0.46096228  1  0.102618  -0.000154  0.943465  0.0  0.116146  -8.8e-05  1.004699  0.0  0.118475  -7.6e-05  1.003381  0.0  0.094414  0.114819  -8.4e-05  1.005043  0.0
H  H27  1  0.12186110  0.32660994  0.96096566  1  0.102607  0.000153  0.943471  0.0  0.116138  8.8e-05  1.004694  0.0  0.118467  7.6e-05  1.003374  0.0  0.094407  0.114814  8.4e-05  1.00504  0.0
H  H28  1  0.37813728  0.82660849  0.53903602  1  0.102618  -0.000153  0.94349  0.0  0.116148  -8.8e-05  1.004706  0.0  0.118477  -7.6e-05  1.003388  0.0  0.094427  0.114823  -8.4e-05  1.005051  0.0
H  H29  1  0.87813630  0.67339511  0.03903806  1  0.102619  0.000153  0.943508  0.0  0.116146  8.8e-05  1.004727  0.0  0.118475  7.6e-05  1.003407  0.0  0.094421  0.114824  8.4e-05  1.005075  0.0
H  H30  1  0.75465047  0.23039342  0.36209557  1  0.098184  -2e-06  0.970467  0.0  0.114821  0.0  1.030432  0.0  0.11559  6e-06  1.031586  0.0  0.094243  0.114373  -5e-06  1.029527  0.0
H  H31  1  0.25464880  0.26960701  0.86209963  1  0.098197  2e-06  0.970359  0.0  0.114816  -0.0  1.030355  0.0  0.115585  -6e-06  1.031509  0.0  0.0942  0.114369  5e-06  1.029453  0.0
H  H32  1  0.24535320  0.76960460  0.63790200  1  0.09821  -2e-06  0.970395  0.0  0.114831  0.0  1.030378  0.0  0.115599  6e-06  1.031533  0.0  0.094221  0.114385  -5e-06  1.029476  0.0
H  H33  1  0.74535236  0.73040104  0.13790180  1  0.098172  2e-06  0.970486  0.0  0.114835  -0.0  1.030421  0.0  0.115605  -6e-06  1.031575  0.0  0.094202  0.114388  5e-06  1.029517  0.0
H  H34  1  0.07265229  0.18116269  0.37595823  1  0.092399  5.7e-05  0.96691  0.0  0.101719  0.00011  1.032539  0.0  0.104352  6.9e-05  1.032014  0.0  0.092407  0.099885  0.000145  1.03289  0.0
H  H35  1  0.57265051  0.31883545  0.87596408  1  0.092356  -5.7e-05  0.967016  0.0  0.101683  -0.00011  1.032632  0.0  0.104316  -6.9e-05  1.032107  0.0  0.092397  0.09985  -0.000145  1.032979  0.0
H  H36  1  0.92735138  0.81883431  0.62404089  1  0.092425  5.7e-05  0.967068  0.0  0.101775  0.00011  1.032633  0.0  0.104409  6.9e-05  1.03211  0.0  0.092447  0.099942  0.000145  1.032987  0.0
H  H37  1  0.42734941  0.68116960  0.12404122  1  0.09237  -5.7e-05  0.967058  0.0  0.101704  -0.000111  1.032655  0.0  0.104337  -6.9e-05  1.032131  0.0  0.092428  0.09987  -0.000145  1.033004  0.0
H  H38  1  0.71502862  0.99059414  0.57633593  1  0.088246  5e-05  0.953357  0.0  0.100261  4.1e-05  1.014435  0.0  0.103329  3.6e-05  1.013052  0.0  0.095218  0.098255  7.1e-05  1.015106  0.0
H  H39  1  0.21502745  0.50940726  0.07633833  1  0.08828  -5e-05  0.95338  0.0  0.100313  -4.1e-05  1.01443  0.0  0.103383  -3.6e-05  1.013046  0.0  0.09524  0.098309  -7.1e-05  1.015101  0.0
H  H40  1  0.28497380  0.00940287  0.42366473  1  0.088205  5.1e-05  0.953414  0.0  0.100232  4.1e-05  1.014486  0.0  0.103302  3.6e-05  1.013101  0.0  0.095199  0.098224  7.1e-05  1.015157  0.0
H  H41  1  0.78497375  0.49059578  0.92366854  1  0.088154  -5.1e-05  0.953411  0.0  0.100228  -4.1e-05  1.01443  0.0  0.103298  -3.6e-05  1.013045  0.0  0.095209  0.098221  -7.1e-05  1.015105  0.0
C  C42  1  0.26753742  0.31593987  0.60269177  1  0.125031  -0.007187  3.699884  -0.007  0.096253  -0.001129  3.957185  -0.002  0.105044  -0.002198  3.975942  -0.003  0.041983  0.090523  -0.000307  3.945854  -0.001
C  C43  1  0.76753648  0.18406491  0.10269616  1  0.125133  0.007175  3.69989  0.007  0.096292  0.001129  3.957188  0.002  0.105084  0.002197  3.975947  0.003  0.042079  0.090563  0.000307  3.945852  0.001
C  C44  1  0.73246374  0.68406116  0.39730655  1  0.125118  -0.007188  3.699853  -0.007  0.096329  -0.001128  3.957151  -0.002  0.10512  -0.002197  3.97591  -0.003  0.04203  0.090599  -0.000307  3.94582  -0.001
C  C45  1  0.23246593  0.81593713  0.89730140  1  0.125138  0.007182  3.699876  0.007  0.096278  0.001128  3.957175  0.002  0.105079  0.002198  3.975943  0.003  0.042093  0.090554  0.000307  3.945843  0.001
C  C46  1  0.21297169  0.20640206  0.65993210  1  -0.108193  0.00917  3.724027  0.009  -0.120762  0.003587  3.970629  0.004  -0.127584  0.003562  3.990843  0.004  -0.080512  -0.116492  0.003571  3.957511  0.004
C  C47  1  0.71297104  0.29360277  0.15993511  1  -0.108309  -0.009156  3.72401  -0.009  -0.120858  -0.003587  3.970634  -0.004  -0.127678  -0.003561  3.990835  -0.004  -0.080608  -0.116589  -0.00357  3.957519  -0.004
C  C48  1  0.78702947  0.79359997  0.34006700  1  -0.108334  0.009171  3.724024  0.009  -0.120891  0.003586  3.970636  0.004  -0.127716  0.003561  3.990852  0.004  -0.080573  -0.116619  0.00357  3.957517  0.004
C  C49  1  0.28703011  0.70639826  0.84006321  1  -0.108308  -0.009164  3.724064  -0.009  -0.120868  -0.003586  3.970697  -0.004  -0.127688  -0.003561  3.990897  -0.004  -0.080609  -0.116597  -0.00357  3.957589  -0.004
C  C50  1  0.33292315  0.12692182  0.71140429  1  0.009032  -0.00878  3.7126  -0.008  -0.007538  -0.002779  3.958875  -0.003  -0.002241  -0.003141  3.975172  -0.003  -0.064771  -0.011064  -0.002447  3.947852  -0.002
C  C51  1  0.83292399  0.37308135  0.21140900  1  0.00907  0.008767  3.712549  0.008  -0.007493  0.00278  3.958821  0.003  -0.002196  0.003141  3.975119  0.003  -0.064748  -0.01102  0.002447  3.947803  0.002
C  C52  1  0.66707801  0.87308021  0.28859481  1  0.00909  -0.008779  3.712516  -0.008  -0.007477  -0.002779  3.958796  -0.003  -0.00218  -0.003141  3.975093  -0.003  -0.064768  -0.011002  -0.002447  3.947769  -0.002
C  C53  1  0.16707717  0.62691867  0.78859166  1  0.009046  0.008775  3.712549  0.008  -0.007507  0.002779  3.958814  0.003  -0.002209  0.003141  3.975112  0.003  -0.064763  -0.01103  0.002447  3.947795  0.002
C  C54  1  0.50257414  0.16152469  0.70497837  1  -0.168523  0.0092  3.691409  0.009  -0.18325  0.003464  3.933331  0.004  -0.191346  0.003427  3.952301  0.004  -0.084416  -0.177935  0.003429  3.920508  0.004
C  C55  1  0.00257514  0.33847789  0.20498210  1  -0.168649  -0.009186  3.691497  -0.009  -0.183403  -0.003464  3.933471  -0.004  -0.191506  -0.003427  3.952432  -0.004  -0.08446  -0.178091  -0.003429  3.920655  -0.004
C  C56  1  0.49742701  0.83847734  0.29502073  1  -0.168586  0.009199  3.69142  0.009  -0.183321  0.003464  3.933365  0.004  -0.191422  0.003426  3.952329  0.004  -0.084429  -0.178006  0.003429  3.920541  0.004
C  C57  1  0.99742728  0.66152314  0.79501779  1  -0.16861  -0.009193  3.69144  -0.009  -0.183347  -0.003464  3.93339  -0.004  -0.19145  -0.003426  3.952353  -0.004  -0.084415  -0.178034  -0.003429  3.920578  -0.004
C  C58  1  0.54884887  0.27462442  0.64744130  1  0.271395  -0.006402  3.700551  -0.007  0.274968  -0.00066  3.943056  -0.001  0.285002  -0.001765  3.964755  -0.003  0.119923  0.268653  0.000203  3.928628  -0.001
C  C59  1  0.04884830  0.22537809  0.14744560  1  0.271432  0.006389  3.700581  0.007  0.275002  0.000659  3.94304  0.001  0.285035  0.001765  3.964745  0.003  0.119898  0.268688  -0.000203  3.928616  0.001
C  C60  1  0.45115354  0.72537661  0.35255703  1  0.271464  -0.006401  3.700539  -0.007  0.275033  -0.00066  3.943017  -0.001  0.285065  -0.001765  3.964719  -0.003  0.119932  0.268715  0.000203  3.928594  -0.001
C  C61  1  0.95115412  0.77462394  0.85255506  1  0.271486  0.006396  3.700535  0.007  0.275061  0.000659  3.942987  0.001  0.285093  0.001766  3.964693  0.003  0.119903  0.268748  -0.000203  3.928576  0.001
C  C62  1  0.73093149  0.31511061  0.64188218  1  -0.240648  -0.000606  3.68478  0.0  -0.28239  -0.000822  3.932084  0.0  -0.284049  -0.000563  3.940486  0.0  -0.154082  -0.28132  -0.001066  3.926233  -0.001
C  C63  1  0.23092954  0.18489320  0.14188563  1  -0.2406  0.000608  3.684622  0.0  -0.282358  0.000823  3.931933  0.0  -0.284017  0.000564  3.940336  0.0  -0.154072  -0.281274  0.001067  3.926033  0.001
C  C64  1  0.26907093  0.68489142  0.35811693  1  -0.240658  -0.000606  3.68476  0.0  -0.282371  -0.000822  3.932044  0.0  -0.284032  -0.000563  3.940448  0.0  -0.154066  -0.28129  -0.001066  3.926169  -0.001
C  C65  1  0.76907288  0.81510883  0.85811425  1  -0.2406  0.000607  3.684733  0.0  -0.282333  0.000823  3.932065  0.0  -0.283993  0.000563  3.940471  0.0  -0.154021  -0.281227  0.001066  3.926117  0.001
C  C66  1  0.75183875  0.20346511  0.44459339  1  -0.192915  -0.000178  3.69328  0.0  -0.229815  -0.0002  3.939789  0.0  -0.229126  -0.000173  3.949516  0.0  -0.152694  -0.230041  -0.000193  3.932792  0.0
C  C67  1  0.25183716  0.29653454  0.94459749  1  -0.192881  0.000179  3.693321  0.0  -0.22977  0.0002  3.939801  0.0  -0.229078  0.000173  3.949528  0.0  -0.152649  -0.230006  0.000193  3.932817  0.0
C  C68  1  0.24816366  0.79653090  0.55540495  1  -0.192924  -0.000179  3.693402  0.0  -0.229795  -0.0002  3.939899  0.0  -0.229106  -0.000174  3.949628  0.0  -0.152677  -0.23002  -0.000193  3.932906  0.0
C  C69  1  0.74816276  0.70347051  0.05540548  1  -0.192954  0.000179  3.693504  0.0  -0.229847  0.000199  3.94003  0.0  -0.229157  0.000172  3.949758  0.0  -0.152684  -0.230084  0.000193  3.933054  0.0
C  C70  1  0.87853714  0.09756268  0.47230570  1  0.085096  -0.000295  3.79153  0.0  0.106409  -0.000129  4.026631  0.0  0.105758  -5.7e-05  4.05157  0.0  -0.022212  0.106657  -0.000236  4.009877  0.0
C  C71  1  0.37853711  0.40243827  0.97231233  1  0.084974  0.00029  3.791597  0.0  0.106346  0.000125  4.026635  0.0  0.105693  5.6e-05  4.051575  0.0  -0.022248  0.106596  0.000236  4.00989  0.0
C  C72  1  0.12146527  0.90243433  0.52769185  1  0.085078  -0.000285  3.79167  0.0  0.106378  -0.000128  4.02676  0.0  0.105729  -5.6e-05  4.051701  0.0  -0.022233  0.106622  -0.000236  4.010013  0.0
C  C73  1  0.62146282  0.59756879  0.02769376  1  0.085158  0.000289  3.791588  0.0  0.106404  0.000125  4.026734  0.0  0.105754  5.6e-05  4.051673  0.0  -0.022194  0.106651  0.000236  4.009995  0.0
C  C74  1  0.03943147  0.10062660  0.42925281  1  -0.1115  5.7e-05  3.743944  0.0  -0.131605  5.8e-05  3.994225  0.0  -0.133711  2.7e-05  4.015033  0.0  -0.096063  -0.129776  7.7e-05  3.980127  0.0
C  C75  1  0.53942991  0.39937264  0.92925879  1  -0.111427  -5.3e-05  3.744091  0.0  -0.131583  -5.8e-05  3.994384  0.0  -0.133684  -2.7e-05  4.015185  0.0  -0.096026  -0.129753  -7.7e-05  3.980288  0.0
C  C76  1  0.96057094  0.89936941  0.57074552  1  -0.11159  4.6e-05  3.744069  0.0  -0.131721  5.8e-05  3.994373  0.0  -0.133814  2.7e-05  4.015145  0.0  -0.096091  -0.1299  7.7e-05  3.980297  0.0
C  C77  1  0.46056876  0.60063442  0.07074728  1  -0.111545  -5.1e-05  3.74408  0.0  -0.131636  -5.7e-05  3.994382  0.0  -0.133733  -2.6e-05  4.01517  0.0  -0.096088  -0.129806  -7.7e-05  3.980292  0.0
C  C78  1  0.84072822  0.99593509  0.54356276  1  -0.116824  -6e-05  3.758846  0.0  -0.136744  -0.00011  4.008834  0.0  -0.138963  -6.2e-05  4.029693  0.0  -0.096897  -0.135317  -0.000145  3.994663  0.0
C  C79  1  0.34072704  0.50406644  0.04356671  1  -0.116884  6.5e-05  3.758933  0.0  -0.136843  0.000113  4.008912  0.0  -0.139065  6.2e-05  4.029773  0.0  -0.096962  -0.135415  0.000146  3.994744  0.0
C  C80  1  0.15927419  0.00406091  0.45643558  1  -0.116871  -7.1e-05  3.758998  0.0  -0.136797  -0.00011  4.009008  0.0  -0.139019  -6.1e-05  4.029867  0.0  -0.096925  -0.135367  -0.000146  3.994831  0.0
C  C81  1  0.65927289  0.49593961  0.95644015  1  -0.116798  6.7e-05  3.75892  0.0  -0.136732  0.000113  4.008932  0.0  -0.138955  6.3e-05  4.029795  0.0  -0.09692  -0.135304  0.000146  3.994766  0.0
S  S82  1  0.79508643  0.36115439  0.51260443  1  0.003423  -0.004293  2.450144  -0.003  0.009503  -0.002583  2.813959  -0.002  0.002272  -0.001971  2.810333  -0.001  -0.007535  0.014635  -0.003382  2.816613  -0.002
S  S83  1  0.29508184  0.13884617  0.01260856  1  0.003382  0.004292  2.450175  0.003  0.009447  0.002585  2.814011  0.002  0.002207  0.00197  2.810387  0.001  -0.007531  0.014575  0.003383  2.816666  0.002
S  S84  1  0.20491598  0.63884362  0.48739390  1  0.003383  -0.004292  2.450282  -0.003  0.009452  -0.002583  2.81406  -0.002  0.002218  -0.001969  2.810436  -0.001  -0.00755  0.014583  -0.003382  2.816716  -0.002
S  S85  1  0.70491806  0.86115787  0.98739130  1  0.003384  0.004291  2.450215  0.003  0.009449  0.002585  2.814053  0.002  0.00221  0.00197  2.81043  0.001  -0.007551  0.014579  0.003383  2.816708  0.002
N  N86  1  0.43158649  0.34932228  0.59655335  1  -0.322196  0.073159  3.344049  0.088  -0.265038  0.055044  3.608828  0.071  -0.297483  0.047336  3.635894  0.064  -0.342691  -0.246854  0.057762  3.593333  0.072
N  N87  1  0.93158546  0.15068075  0.09655768  1  -0.322318  -0.073144  3.34412  -0.088  -0.265088  -0.055044  3.608824  -0.071  -0.297541  -0.047333  3.6359  -0.064  -0.342724  -0.246905  -0.057762  3.593328  -0.072
N  N88  1  0.56841466  0.65067875  0.40344497  1  -0.32228  0.073155  3.344018  0.088  -0.26512  0.055042  3.608813  0.071  -0.297564  0.047333  3.635879  0.064  -0.342712  -0.246937  0.057761  3.59332  0.072
N  N89  1  0.06841822  0.84932128  0.90344222  1  -0.322353  -0.07315  3.344088  -0.088  -0.265145  -0.055043  3.608823  -0.071  -0.297598  -0.047334  3.635896  -0.064  -0.342749  -0.246964  -0.057759  3.593334  -0.072
Cl  Cl90  1  0.39941201  0.36940875  0.35810056  1  -0.527225  0.133039  0.876031  0.148  -0.532626  0.083956  1.132321  0.1  -0.566301  0.064067  1.117043  0.08  -0.321316  -0.512739  0.094951  1.142622  0.11
Cl  Cl91  1  0.89941221  0.13059192  0.85810224  1  -0.527281  -0.133026  0.876028  -0.148  -0.532642  -0.083956  1.132309  -0.1  -0.566332  -0.064061  1.117039  -0.08  -0.321328  -0.512758  -0.09495  1.142615  -0.11
Cl  Cl92  1  0.60058915  0.63059127  0.64189853  1  -0.527226  0.133038  0.876051  0.148  -0.532611  0.083955  1.132313  0.1  -0.56629  0.064065  1.117041  0.08  -0.32131  -0.512724  0.094945  1.142618  0.11
Cl  Cl93  1  0.10059020  0.86940911  0.14189609  1  -0.527278  -0.133029  0.876027  -0.148  -0.532627  -0.083956  1.132298  -0.1  -0.566312  -0.064063  1.117019  -0.08  -0.321329  -0.512739  -0.094954  1.142599  -0.11
