# generated using pymatgen
data_Sn2H15C12NO7
_symmetry_space_group_name_H-M   'P 1'
_cell_length_a   11.25132905
_cell_length_b   13.57985333
_cell_length_c   14.12100000
_cell_angle_alpha   118.72208721
_cell_angle_beta   113.75137123
_cell_angle_gamma   89.85637117
_symmetry_Int_Tables_number   1
_chemical_formula_structural   Sn2H15C12NO7
_chemical_formula_sum   'Sn8 H60 C48 N4 O28'
_cell_volume   1682.07543301
_cell_formula_units_Z   4
loop_
 _symmetry_equiv_pos_site_id
 _symmetry_equiv_pos_as_xyz
  1  'x, y, z'
loop_
 _atom_site_type_symbol
 _atom_site_label
 _atom_site_symmetry_multiplicity
 _atom_site_fract_x
 _atom_site_fract_y
 _atom_site_fract_z
 _atom_site_occupancy
 _atom_site_hle17_bader_spin_density
 _atom_site_hle17_ddec_charge
 _atom_site_hle17_ddec_spin_density
 _atom_site_hle17_ddec_sum_bond_order
 _atom_site_hle17_magmom
 _atom_site_hse06_10hf_bader_spin_density
 _atom_site_hse06_10hf_ddec_charge
 _atom_site_hse06_10hf_ddec_spin_density
 _atom_site_hse06_10hf_ddec_sum_bond_order
 _atom_site_hse06_10hf_magmom
 _atom_site_hse06_bader_spin_density
 _atom_site_hse06_ddec_charge
 _atom_site_hse06_ddec_spin_density
 _atom_site_hse06_ddec_sum_bond_order
 _atom_site_hse06_magmom
 _atom_site_pbe_bader_charge
 _atom_site_pbe_bader_spin_density
 _atom_site_pbe_cm5_charge
 _atom_site_pbe_ddec_charge
 _atom_site_pbe_ddec_spin_density
 _atom_site_pbe_ddec_sum_bond_order
 _atom_site_pbe_magmom
Sn  Sn0  1  0.54587326  0.24991520  0.49963385  1  0  1.546898  0  2.927972  0  0  1.393925  0  3.439053  0  0  1.44453  0  3.408194  0  1.879272  0  0.625911  1.357717  0  3.461345  0
Sn  Sn1  1  0.95389041  0.25011923  0.50026876  1  0  1.546964  0  2.928755  0  0  1.393969  0  3.439874  0  0  1.444373  0  3.409383  0  1.88112  0  0.625932  1.357948  0  3.461779  0
Sn  Sn2  1  0.45413264  0.75008450  0.50036351  1  0  1.546971  0  2.928046  0  0  1.39402  0  3.43915  0  0  1.444618  0  3.408286  0  1.879447  0  0.625928  1.357799  0  3.461468  0
Sn  Sn3  1  0.04611113  0.74987874  0.49972995  1  0  1.546967  0  2.928721  0  0  1.393977  0  3.439804  0  0  1.444362  0  3.409348  0  1.88095  0  0.625961  1.357961  0  3.461706  0
Sn  Sn4  1  0.32742183  0.32721254  0.65401432  1  0  1.603575  0  2.91918  0  0  1.454263  0  3.423085  0  0  1.506201  0  3.389312  0  1.926884  0  0.617445  1.417965  0  3.446329  0
Sn  Sn5  1  0.17241826  0.17321872  0.34590769  1  0  1.602761  0  2.917904  0  0  1.453292  0  3.422065  0  0  1.505213  0  3.388356  0  1.927187  0  0.617582  1.417237  0  3.444826  0
Sn  Sn6  1  0.67257848  0.67278803  0.34598590  1  0  1.60357  0  2.919006  0  0  1.454245  0  3.42293  0  0  1.506188  0  3.389146  0  1.926713  0  0.617456  1.417952  0  3.446167  0
Sn  Sn7  1  0.82758523  0.82677925  0.65409235  1  0  1.602847  0  2.91784  0  0  1.453365  0  3.422028  0  0  1.505266  0  3.388354  0  1.927248  0  0.617603  1.417313  0  3.444787  0
H  H8  1  0.68757693  0.47902769  0.99941036  1  0  0.124504  0  0.922326  0  0  0.130936  0  0.985431  0  0  0.136246  0  0.979809  0  0.140961  0  0.117465  0.127026  0  0.989583  0
H  H9  1  0.31243022  0.52096596  0.00058886  1  0  0.12451  0  0.92215  0  0  0.130907  0  0.985302  0  0  0.136235  0  0.979659  0  0.141069  0  0.117416  0.126963  0  0.989489  0
H  H10  1  0.18784497  0.02044306  0.99945217  1  0  0.1249  0  0.921496  0  0  0.131075  0  0.984876  0  0  0.136392  0  0.979264  0  0.136849  0  0.11753  0.127134  0  0.989049  0
H  H11  1  0.81215093  0.97956616  0.00055275  1  0  0.124892  0  0.921625  0  0  0.131051  0  0.984995  0  0  0.136378  0  0.97937  0  0.136726  0  0.117535  0.1271  0  0.989179  0
H  H12  1  0.88759178  0.25977275  0.80482539  1  0  0.12379  0  0.958604  0  0  0.128906  0  1.027653  0  0  0.132875  0  1.024269  0  0.158418  0  0.117555  0.12591  0  1.030272  0
H  H13  1  0.91643244  0.54463291  0.80381069  1  0  0.124114  0  0.959275  0  0  0.128872  0  1.028581  0  0  0.132842  0  1.025229  0  0.141513  0  0.117348  0.125902  0  1.031229  0
H  H14  1  0.58290195  0.24074064  0.19582459  1  0  0.12436  0  0.958942  0  0  0.129035  0  1.02849  0  0  0.13302  0  1.025118  0  0.168284  0  0.117554  0.126057  0  1.031152  0
H  H15  1  0.61274118  0.95542284  0.19557366  1  0  0.124029  0  0.958811  0  0  0.129146  0  1.027861  0  0  0.13309  0  1.024503  0  0.121364  0  0.117626  0.126174  0  1.030478  0
H  H16  1  0.11240692  0.74021139  0.19517310  1  0  0.123893  0  0.958666  0  0  0.12893  0  1.027756  0  0  0.132917  0  1.024353  0  0.158325  0  0.117574  0.12593  0  1.03037  0
H  H17  1  0.08356762  0.45537025  0.19619206  1  0  0.124065  0  0.959313  0  0  0.128887  0  1.028575  0  0  0.132858  0  1.025219  0  0.141415  0  0.11737  0.125917  0  1.031223  0
H  H18  1  0.41710048  0.75927117  0.80417442  1  0  0.12433  0  0.959203  0  0  0.129063  0  1.028647  0  0  0.133046  0  1.025278  0  0.168339  0  0.117556  0.126087  0  1.031307  0
H  H19  1  0.38724869  0.04457859  0.80442999  1  0  0.124029  0  0.958902  0  0  0.129137  0  1.027957  0  0  0.133081  0  1.024598  0  0.121463  0  0.117621  0.126192  0  1.030548  0
H  H20  1  0.62114009  0.45023917  0.52227111  1  0  0.170986  0  0.974183  0  0  0.191116  0  1.024108  0  0  0.194333  0  1.024513  0  0.080197  0  0.094868  0.188842  0  1.023792  0
H  H21  1  0.90139162  0.07219565  0.52285361  1  0  0.17078  0  0.973875  0  0  0.191295  0  1.023413  0  0  0.194533  0  1.023773  0  0.080748  0  0.094965  0.189  0  1.02316  0
H  H22  1  0.59916227  0.04959987  0.47760070  1  0  0.171035  0  0.973886  0  0  0.191227  0  1.023783  0  0  0.194448  0  1.024188  0  0.027172  0  0.094886  0.188943  0  1.023494  0
H  H23  1  0.87836299  0.42791573  0.47741031  1  0  0.170838  0  0.97384  0  0  0.19097  0  1.02383  0  0  0.194194  0  1.024215  0  0.091992  0  0.094975  0.188695  0  1.023529  0
H  H24  1  0.37885681  0.54976312  0.47773164  1  0  0.17095  0  0.974199  0  0  0.191083  0  1.024122  0  0  0.1943  0  1.024528  0  0.080071  0  0.094862  0.188809  0  1.023806  0
H  H25  1  0.09861353  0.92780838  0.47715614  1  0  0.170707  0  0.973906  0  0  0.191212  0  1.023464  0  0  0.194451  0  1.023823  0  0.08074  0  0.094923  0.188916  0  1.023214  0
H  H26  1  0.40084122  0.95039810  0.52239651  1  0  0.171  0  0.97389  0  0  0.191204  0  1.023783  0  0  0.194427  0  1.024183  0  0.027145  0  0.094871  0.188919  0  1.023496  0
H  H27  1  0.12164170  0.57208311  0.52258839  1  0  0.170793  0  0.973807  0  0  0.190934  0  1.023793  0  0  0.194158  0  1.024178  0  0.092009  0  0.094965  0.18866  0  1.023491  0
H  H28  1  0.76369677  0.42462613  0.61725957  1  0  0.15939  0  1.004632  0  0  0.17579  0  1.06628  0  0  0.178514  0  1.06757  0  0.047904  0  0.089369  0.173527  0  1.066008  0
H  H29  1  0.85385828  0.19242721  0.61728176  1  0  0.159758  0  1.004046  0  0  0.176308  0  1.065569  0  0  0.179052  0  1.066805  0  0.074269  0  0.089659  0.174052  0  1.065287  0
H  H30  1  0.64643440  0.07515499  0.38292212  1  0  0.159537  0  1.004029  0  0  0.175992  0  1.065639  0  0  0.178745  0  1.066869  0  0.074237  0  0.089375  0.173725  0  1.065376  0
H  H31  1  0.73583514  0.30788561  0.38246433  1  0  0.159636  0  1.004435  0  0  0.176202  0  1.065792  0  0  0.178939  0  1.067039  0  0.085587  0  0.089465  0.173939  0  1.06553  0
H  H32  1  0.23630305  0.57537617  0.38274625  1  0  0.159395  0  1.004621  0  0  0.175796  0  1.066281  0  0  0.178517  0  1.067569  0  0.047821  0  0.08937  0.173533  0  1.066008  0
H  H33  1  0.14614588  0.80758028  0.38272219  1  0  0.159779  0  1.004023  0  0  0.176334  0  1.065525  0  0  0.179079  0  1.066759  0  0.074407  0  0.089668  0.174076  0  1.065249  0
H  H34  1  0.35356688  0.92484558  0.61707770  1  0  0.159496  0  1.004021  0  0  0.175945  0  1.065647  0  0  0.178698  0  1.066878  0  0.05827  0  0.08936  0.173678  0  1.065384  0
H  H35  1  0.26416712  0.69211496  0.61753156  1  0  0.159621  0  1.004427  0  0  0.176189  0  1.065797  0  0  0.178929  0  1.067035  0  0.085538  0  0.089477  0.173924  0  1.065536  0
H  H36  1  0.64081949  0.47771704  0.66671203  1  0  0.177702  0  0.979321  0  0  0.193884  0  1.035151  0  0  0.197327  0  1.035295  0  0.096315  0  0.095689  0.1914  0  1.035081  0
H  H37  1  0.02665346  0.18910216  0.66740439  1  0  0.177442  0  0.979077  0  0  0.193828  0  1.034568  0  0  0.197284  0  1.034673  0  0.073515  0  0.095593  0.191351  0  1.034503  0
H  H38  1  0.47372835  0.02204852  0.33288534  1  0  0.177546  0  0.978603  0  0  0.193878  0  1.034204  0  0  0.197326  0  1.034332  0  0.080325  0  0.095644  0.1914  0  1.034131  0
H  H39  1  0.85881272  0.31098587  0.33310008  1  0  0.177198  0  0.979941  0  0  0.193525  0  1.035572  0  0  0.196964  0  1.035713  0  0.092634  0  0.095506  0.191029  0  1.03554  0
H  H40  1  0.35917767  0.52228266  0.33329103  1  0  0.177717  0  0.979304  0  0  0.193898  0  1.035159  0  0  0.197342  0  1.035304  0  0.096187  0  0.095704  0.191415  0  1.035088  0
H  H41  1  0.97334972  0.81090532  0.33259995  1  0  0.177432  0  0.979044  0  0  0.193788  0  1.03455  0  0  0.197244  0  1.034652  0  0.073567  0  0.095591  0.191311  0  1.034484  0
H  H42  1  0.52627608  0.97795291  0.66711448  1  0  0.177525  0  0.978593  0  0  0.19387  0  1.034189  0  0  0.197318  0  1.034318  0  0.080292  0  0.095631  0.191394  0  1.034115  0
H  H43  1  0.14119027  0.68901383  0.66689706  1  0  0.1772  0  0.979908  0  0  0.193545  0  1.035523  0  0  0.196986  0  1.035658  0  0.092746  0  0.095514  0.191051  0  1.035489  0
H  H44  1  0.37415438  0.23795421  0.79493926  1  0  0.168956  0  0.969259  0  0  0.18721  0  1.022645  0  0  0.190179  0  1.023154  0  0.080842  0  0.092649  0.185047  0  1.022446  0
H  H45  1  0.42089856  0.55708410  0.79502477  1  0  0.169174  0  0.967829  0  0  0.187064  0  1.021827  0  0  0.190021  0  1.022339  0  0.046843  0  0.09254  0.184903  0  1.021652  0
H  H46  1  0.07845267  0.26217965  0.20461337  1  0  0.169209  0  0.969744  0  0  0.187178  0  1.023527  0  0  0.190131  0  1.024056  0  0.03581  0  0.092786  0.185012  0  1.023362  0
H  H47  1  0.12618443  0.94318865  0.20519760  1  0  0.168523  0  0.96895  0  0  0.186807  0  1.022369  0  0  0.189818  0  1.022813  0  0.039299  0  0.092418  0.184628  0  1.022197  0
H  H48  1  0.62583937  0.76204723  0.20506138  1  0  0.168941  0  0.969298  0  0  0.187174  0  1.02271  0  0  0.190145  0  1.023216  0  0.080842  0  0.09261  0.185006  0  1.022517  0
H  H49  1  0.57910684  0.44291733  0.20497890  1  0  0.16916  0  0.967839  0  0  0.187058  0  1.021825  0  0  0.190016  0  1.022337  0  0.047307  0  0.092551  0.184897  0  1.02165  0
H  H50  1  0.92154283  0.73781400  0.79538353  1  0  0.169247  0  0.969629  0  0  0.1872  0  1.023434  0  0  0.190156  0  1.023955  0  0.035885  0  0.092805  0.185035  0  1.023268  0
H  H51  1  0.87382219  0.05681365  0.79480473  1  0  0.168514  0  0.969022  0  0  0.186813  0  1.02243  0  0  0.189819  0  1.022885  0  0.039393  0  0.092435  0.184635  0  1.022257  0
H  H52  1  0.41780675  0.15150738  0.67536207  1  0  0.163454  0  0.990388  0  0  0.181081  0  1.047691  0  0  0.183785  0  1.04901  0  0.039301  0  0.089712  0.17914  0  1.046855  0
H  H53  1  0.25693900  0.52360888  0.67496525  1  0  0.163132  0  0.991876  0  0  0.180735  0  1.049116  0  0  0.183431  0  1.050426  0  0.046965  0  0.089593  0.178766  0  1.048337  0
H  H54  1  0.24230988  0.34829795  0.32464049  1  0  0.163497  0  0.991234  0  0  0.181267  0  1.048272  0  0  0.183957  0  1.0496  0  0.061247  0  0.08996  0.179318  0  1.04746  0
H  H55  1  0.08275405  0.97665091  0.32494199  1  0  0.162639  0  0.990804  0  0  0.18039  0  1.048139  0  0  0.183105  0  1.049448  0  0.051336  0  0.089462  0.178423  0  1.047335  0
H  H56  1  0.58218944  0.84849233  0.32463784  1  0  0.1634  0  0.990414  0  0  0.181018  0  1.047736  0  0  0.183725  0  1.04905  0  0.039209  0  0.089703  0.179076  0  1.0469  0
H  H57  1  0.74306641  0.47639256  0.32503842  1  0  0.163147  0  0.991895  0  0  0.180752  0  1.049142  0  0  0.183454  0  1.050446  0  0.046978  0  0.089606  0.178786  0  1.04835  0
H  H58  1  0.75768754  0.65169916  0.67535508  1  0  0.163487  0  0.991289  0  0  0.181282  0  1.048275  0  0  0.183972  0  1.049603  0  0.061155  0  0.089964  0.179325  0  1.047477  0
H  H59  1  0.91725235  0.02334707  0.67506252  1  0  0.162596  0  0.990934  0  0  0.180369  0  1.048236  0  0  0.183093  0  1.049534  0  0.050947  0  0.089444  0.178403  0  1.047431  0
H  H60  1  0.24544267  0.13652134  0.64521849  1  0  0.162397  0  0.97466  0  0  0.182622  0  1.028074  0  0  0.185465  0  1.028861  0  0.04588  0  0.092106  0.180563  0  1.027659  0
H  H61  1  0.39949350  0.50953147  0.64556246  1  0  0.161629  0  0.976024  0  0  0.182155  0  1.02892  0  0  0.184977  0  1.029745  0  0.037425  0  0.09196  0.180095  0  1.028505  0
H  H62  1  0.09974325  0.36403528  0.35399143  1  0  0.161896  0  0.975844  0  0  0.182314  0  1.028914  0  0  0.185156  0  1.029711  0  0.046593  0  0.091995  0.180231  0  1.028543  0
H  H63  1  0.25506501  0.99127816  0.35495724  1  0  0.161923  0  0.975611  0  0  0.182227  0  1.028837  0  0  0.185081  0  1.029619  0  0.053373  0  0.092046  0.180155  0  1.028445  0
H  H64  1  0.75454793  0.86347923  0.35477861  1  0  0.162379  0  0.974752  0  0  0.182617  0  1.028136  0  0  0.185462  0  1.028921  0  0.045959  0  0.092111  0.180559  0  1.02772  0
H  H65  1  0.60051481  0.49047342  0.35444233  1  0  0.161596  0  0.976072  0  0  0.182123  0  1.028964  0  0  0.184947  0  1.029789  0  0.037331  0  0.091943  0.180063  0  1.028549  0
H  H66  1  0.90025126  0.63596183  0.64600392  1  0  0.161844  0  0.975892  0  0  0.182278  0  1.028948  0  0  0.185122  0  1.029742  0  0.046544  0  0.091993  0.180197  0  1.028574  0
H  H67  1  0.74494499  0.00872586  0.64504840  1  0  0.161945  0  0.975503  0  0  0.182219  0  1.02879  0  0  0.185076  0  1.029567  0  0.053276  0  0.09205  0.180147  0  1.028397  0
C  C68  1  0.77409125  0.44295969  0.99974017  1  0  -0.015441  0  3.635648  0  0  -0.067559  0  3.898425  0  0  -0.061124  0  3.912862  0  -0.024792  0  -0.056074  -0.071157  0  3.888535  0
C  C69  1  0.22590010  0.55703655  0.00025731  1  0  -0.01553  0  3.635839  0  0  -0.067601  0  3.898382  0  0  -0.061184  0  3.912821  0  -0.024769  0  -0.056034  -0.071165  0  3.888507  0
C  C70  1  0.27412313  0.05673670  0.99961193  1  0  -0.016503  0  3.636185  0  0  -0.06833  0  3.8989  0  0  -0.061938  0  3.913358  0  -0.040976  0  -0.056391  -0.071859  0  3.888981  0
C  C71  1  0.72587402  0.94326646  0.00038422  1  0  -0.016492  0  3.636211  0  0  -0.068284  0  3.898858  0  0  -0.061895  0  3.913314  0  -0.041211  0  -0.056404  -0.071816  0  3.88894  0
C  C72  1  0.77407665  0.36517821  0.88975825  1  0  -0.059529  0  3.737803  0  0  -0.034917  0  3.980873  0  0  -0.045983  0  4.003264  0  -0.028508  0  -0.009509  -0.028062  0  3.965824  0
C  C73  1  0.11566885  0.52463509  0.88982225  1  0  -0.05865  0  3.737222  0  0  -0.0348  0  3.980979  0  0  -0.045838  0  4.003317  0  0.072295  0  -0.009659  -0.02793  0  3.965926  0
C  C74  1  0.38412449  0.13476285  0.10998134  1  0  -0.059488  0  3.737511  0  0  -0.035076  0  3.980625  0  0  -0.046099  0  4.002973  0  0.018289  0  -0.009617  -0.028212  0  3.965556  0
C  C75  1  0.72594394  0.97560394  0.11042812  1  0  -0.059505  0  3.736863  0  0  -0.035256  0  3.980346  0  0  -0.046336  0  4.002758  0  0.098421  0  -0.0099  -0.028396  0  3.965263  0
C  C76  1  0.22591740  0.63481371  0.11024164  1  0  -0.059604  0  3.738101  0  0  -0.03491  0  3.980883  0  0  -0.045979  0  4.003283  0  -0.028824  0  -0.009508  -0.028073  0  3.965849  0
C  C77  1  0.88432909  0.47535683  0.11017180  1  0  -0.058615  0  3.736732  0  0  -0.034788  0  3.980637  0  0  -0.045826  0  4.002974  0  0.073285  0  -0.009642  -0.027918  0  3.965591  0
C  C78  1  0.61586847  0.86524982  0.89002141  1  0  -0.059542  0  3.737654  0  0  -0.035198  0  3.980917  0  0  -0.046224  0  4.003266  0  0.018721  0  -0.009677  -0.02833  0  3.965847  0
C  C79  1  0.27405101  0.02440181  0.88957419  1  0  -0.059556  0  3.736876  0  0  -0.035366  0  3.980483  0  0  -0.046432  0  4.002875  0  0.098289  0  -0.009964  -0.028531  0  3.965441  0
C  C80  1  0.88593648  0.32033161  0.88955969  1  0  -0.066938  0  3.664928  0  0  -0.108815  0  3.919814  0  0  -0.103545  0  3.935786  0  0.035837  0  -0.059314  -0.111636  0  3.908802  0
C  C81  1  0.00317192  0.56888861  0.88883621  1  0  -0.068998  0  3.66318  0  0  -0.110844  0  3.920213  0  0  -0.105578  0  3.936087  0  -0.003481  0  -0.060131  -0.113801  0  3.909374  0
C  C82  1  0.49633731  0.17989215  0.11084351  1  0  -0.067196  0  3.662027  0  0  -0.109492  0  3.919043  0  0  -0.104253  0  3.93487  0  -0.041737  0  -0.059503  -0.112442  0  3.908231  0
C  C83  1  0.61437522  0.93111786  0.11080216  1  0  -0.066519  0  3.663843  0  0  -0.109047  0  3.920544  0  0  -0.103774  0  3.93651  0  -0.021647  0  -0.059448  -0.11189  0  3.909572  0
C  C84  1  0.11405951  0.67966031  0.11044577  1  0  -0.066504  0  3.663687  0  0  -0.108755  0  3.920053  0  0  -0.103503  0  3.936014  0  0.035953  0  -0.059305  -0.111563  0  3.909041  0
C  C85  1  0.99683278  0.43111023  0.11116249  1  0  -0.069467  0  3.66506  0  0  -0.11091  0  3.920508  0  0  -0.105646  0  3.936386  0  -0.004722  0  -0.060173  -0.113868  0  3.909667  0
C  C86  1  0.50365573  0.82010668  0.88914721  1  0  -0.067195  0  3.662502  0  0  -0.109566  0  3.919474  0  0  -0.104325  0  3.935301  0  -0.041558  0  -0.059466  -0.11251  0  3.908652  0
C  C87  1  0.38562046  0.06888703  0.88919645  1  0  -0.066394  0  3.663883  0  0  -0.10881  0  3.920599  0  0  -0.10354  0  3.936555  0  -0.021925  0  -0.059385  -0.111673  0  3.909623  0
C  C88  1  0.99594241  0.35527657  0.00059369  1  0  0.053369  0  3.708282  0  0  0.051541  0  3.964961  0  0  0.045628  0  3.988457  0  0.145428  0  0.075821  0.055053  0  3.949056  0
C  C89  1  0.00406835  0.64472314  0.99941373  1  0  0.060597  0  3.7118  0  0  0.05157  0  3.964716  0  0  0.045656  0  3.988212  0  0.145147  0  0.075832  0.055082  0  3.948808  0
C  C90  1  0.49539829  0.14498265  0.00016839  1  0  0.0598  0  3.712054  0  0  0.051241  0  3.964744  0  0  0.045399  0  3.988176  0  0.186782  0  0.075424  0.054694  0  3.94891  0
C  C91  1  0.50459382  0.85500927  0.99981953  1  0  0.059979  0  3.711925  0  0  0.051548  0  3.964418  0  0  0.045708  0  3.987849  0  0.186265  0  0.075532  0.054997  0  3.948581  0
C  C92  1  0.65459913  0.33345715  0.77334196  1  0  0.670495  0  3.877581  0  0  0.617494  0  4.166832  0  0  0.652787  0  4.159147  0  1.582681  0  0.233103  0.593652  0  4.171186  0
C  C93  1  0.11911655  0.44027960  0.77394120  1  0  0.670132  0  3.877541  0  0  0.617647  0  4.166947  0  0  0.652926  0  4.159243  0  1.576005  0  0.232605  0.593815  0  4.17127  0
C  C94  1  0.38071319  0.16641561  0.22592182  1  0  0.670212  0  3.876959  0  0  0.617596  0  4.166444  0  0  0.652864  0  4.158776  0  1.597918  0  0.23281  0.593771  0  4.170748  0
C  C95  1  0.84523803  0.06030987  0.22675657  1  0  0.669224  0  3.877607  0  0  0.616288  0  4.167013  0  0  0.651586  0  4.159319  0  1.557778  0  0.232178  0.592445  0  4.171385  0
C  C96  1  0.34540099  0.66653563  0.22665885  1  0  0.670317  0  3.877419  0  0  0.617354  0  4.166546  0  0  0.652649  0  4.158865  0  1.581983  0  0.233082  0.593518  0  4.1709  0
C  C97  1  0.88088400  0.55972183  0.22606446  1  0  0.670182  0  3.877476  0  0  0.617715  0  4.166886  0  0  0.652993  0  4.159179  0  1.576184  0  0.232618  0.593882  0  4.171211  0
C  C98  1  0.61928879  0.83359101  0.77408315  1  0  0.670647  0  3.876507  0  0  0.617904  0  4.166174  0  0  0.653176  0  4.158497  0  1.598263  0  0.232914  0.594076  0  4.170484  0
C  C99  1  0.15476183  0.93968551  0.77323615  1  0  0.669273  0  3.877594  0  0  0.616342  0  4.167025  0  0  0.651635  0  4.159328  0  1.557661  0  0.232214  0.592507  0  4.171396  0
C  C100  1  0.65698386  0.42227716  0.58773345  1  0  -0.727142  0  3.48109  0  0  -0.770556  0  3.711655  0  0  -0.787162  0  3.71783  0  -0.482339  0  -0.323992  -0.758801  0  3.70793  0
C  C101  1  0.93110199  0.16548536  0.58811404  1  0  -0.727482  0  3.482272  0  0  -0.771293  0  3.7121  0  0  -0.787983  0  3.718306  0  -0.484705  0  -0.324096  -0.759482  0  3.708306  0
C  C102  1  0.56923376  0.07756102  0.41213131  1  0  -0.727698  0  3.481639  0  0  -0.771047  0  3.711601  0  0  -0.787782  0  3.717859  0  -0.439162  0  -0.323706  -0.759211  0  3.707779  0
C  C103  1  0.84254277  0.33465023  0.41204579  1  0  -0.727031  0  3.482242  0  0  -0.770747  0  3.712583  0  0  -0.787388  0  3.718803  0  -0.527003  0  -0.324093  -0.75895  0  3.708802  0
C  C104  1  0.34301233  0.57772254  0.41226929  1  0  -0.727154  0  3.481088  0  0  -0.770578  0  3.711715  0  0  -0.787179  0  3.717891  0  -0.48202  0  -0.324032  -0.758824  0  3.707988  0
C  C105  1  0.06890169  0.83452040  0.41188895  1  0  -0.727422  0  3.482122  0  0  -0.771209  0  3.711985  0  0  -0.787897  0  3.718186  0  -0.484722  0  -0.324073  -0.759401  0  3.708187  0
C  C106  1  0.43076802  0.92243782  0.58786858  1  0  -0.727625  0  3.481567  0  0  -0.770985  0  3.711459  0  0  -0.78772  0  3.717717  0  -0.423271  0  -0.323674  -0.759148  0  3.707634  0
C  C107  1  0.15745851  0.66535034  0.58794979  1  0  -0.726956  0  3.482199  0  0  -0.770704  0  3.712494  0  0  -0.787347  0  3.718723  0  -0.527081  0  -0.324078  -0.758906  0  3.708711  0
C  C108  1  0.34365768  0.19663236  0.69776867  1  0  -0.70642  0  3.481748  0  0  -0.755247  0  3.715124  0  0  -0.771667  0  3.722108  0  -0.414348  0  -0.322804  -0.743875  0  3.710547  0
C  C109  1  0.35396105  0.50139609  0.69774646  1  0  -0.704947  0  3.483509  0  0  -0.753919  0  3.717286  0  0  -0.77028  0  3.724311  0  -0.379386  0  -0.322285  -0.742604  0  3.712747  0
C  C110  1  0.14536590  0.30362167  0.30189460  1  0  -0.705092  0  3.485198  0  0  -0.754111  0  3.718815  0  0  -0.770518  0  3.725916  0  -0.391158  0  -0.322569  -0.742796  0  3.714214  0
C  C111  1  0.15672827  0.99905475  0.30234828  1  0  -0.703894  0  3.482091  0  0  -0.752851  0  3.71496  0  0  -0.76932  0  3.721892  0  -0.392572  0  -0.321739  -0.741481  0  3.710432  0
C  C112  1  0.65633631  0.80336994  0.30222961  1  0  -0.706333  0  3.481788  0  0  -0.75514  0  3.715168  0  0  -0.771566  0  3.722149  0  -0.414213  0  -0.322768  -0.743764  0  3.710595  0
C  C113  1  0.64604655  0.49860275  0.30225743  1  0  -0.704899  0  3.483532  0  0  -0.753884  0  3.717287  0  0  -0.77025  0  3.724307  0  -0.379712  0  -0.322287  -0.742566  0  3.712754  0
C  C114  1  0.85462740  0.69637458  0.69810066  1  0  -0.705072  0  3.485213  0  0  -0.754128  0  3.718802  0  0  -0.770534  0  3.725898  0  -0.391151  0  -0.322605  -0.742804  0  3.714212  0
C  C115  1  0.84328052  0.00094841  0.69765657  1  0  -0.703896  0  3.48212  0  0  -0.752852  0  3.715038  0  0  -0.769321  0  3.721957  0  -0.392155  0  -0.321761  -0.741483  0  3.710509  0
N  N116  1  0.11618537  0.31147434  0.00096331  1  0  0.494619  0  3.911524  0  0  0.524227  0  4.208546  0  0  0.544728  0  4.218114  0  0.373693  0  0.058366  0.510489  0  4.202228  0
N  N117  1  0.88381521  0.68852363  0.99903508  1  0  0.468473  0  3.951434  0  0  0.524208  0  4.208393  0  0  0.54471  0  4.217961  0  0.373885  0  0.058387  0.510471  0  4.202071  0
N  N118  1  0.61539005  0.18909957  0.00046296  1  0  0.467333  0  3.951959  0  0  0.522596  0  4.209413  0  0  0.543059  0  4.219036  0  0.353066  0  0.058256  0.50888  0  4.203081  0
N  N119  1  0.38460592  0.81089581  0.99953205  1  0  0.467177  0  3.951863  0  0  0.522505  0  4.209206  0  0  0.542966  0  4.218831  0  0.353688  0  0.058167  0.508791  0  4.202873  0
O  O120  1  0.65280760  0.25295581  0.67455244  1  0  -0.647214  0  2.033272  0  0  -0.577456  0  2.271025  0  0  -0.604977  0  2.262743  0  -1.200778  0  -0.285856  -0.557875  0  2.275906  0
O  O121  1  0.02117370  0.42133048  0.67468711  1  0  -0.6478  0  2.034945  0  0  -0.578004  0  2.272673  0  0  -0.605628  0  2.264495  0  -1.193741  0  -0.285862  -0.558358  0  2.277557  0
O  O122  1  0.47825179  0.24682099  0.32510218  1  0  -0.648005  0  2.033665  0  0  -0.578192  0  2.271505  0  0  -0.605823  0  2.263286  0  -1.196752  0  -0.286322  -0.558532  0  2.276423  0
O  O123  1  0.84713763  0.07865986  0.32564614  1  0  -0.647003  0  2.032598  0  0  -0.577035  0  2.270156  0  0  -0.604582  0  2.261958  0  -1.185922  0  -0.285506  -0.55748  0  2.275046  0
O  O124  1  0.34719104  0.74703871  0.32545224  1  0  -0.647158  0  2.033214  0  0  -0.577425  0  2.270951  0  0  -0.604944  0  2.262669  0  -1.200752  0  -0.285881  -0.557835  0  2.275814  0
O  O125  1  0.97882420  0.57866836  0.32530941  1  0  -0.647788  0  2.035138  0  0  -0.578  0  2.272853  0  0  -0.605618  0  2.264672  0  -1.193764  0  -0.285835  -0.558356  0  2.277741  0
O  O126  1  0.52175459  0.75318044  0.67489755  1  0  -0.648121  0  2.033613  0  0  -0.578276  0  2.271498  0  0  -0.605907  0  2.263275  0  -1.196742  0  -0.286331  -0.558615  0  2.276416  0
O  O127  1  0.15285928  0.92134244  0.67435237  1  0  -0.646967  0  2.03263  0  0  -0.577004  0  2.270198  0  0  -0.604545  0  2.262  0  -1.186062  0  -0.285506  -0.557451  0  2.275088  0
O  O128  1  0.56471888  0.38868436  0.77928216  1  0  -0.633614  0  2.034957  0  0  -0.569374  0  2.268317  0  0  -0.596453  0  2.260551  0  -1.190117  0  -0.275683  -0.55053  0  2.273055  0
O  O129  1  0.21568396  0.39192727  0.78042994  1  0  -0.633186  0  2.027174  0  0  -0.569799  0  2.26006  0  0  -0.596763  0  2.252231  0  -1.195433  0  -0.276185  -0.551047  0  2.26481  0
O  O130  1  0.28462668  0.11159301  0.21962033  1  0  -0.633279  0  2.026837  0  0  -0.569906  0  2.259606  0  0  -0.596869  0  2.25181  0  -1.193641  0  -0.276471  -0.551183  0  2.26433  0
O  O131  1  0.93477956  0.10949735  0.22072365  1  0  -0.633023  0  2.034846  0  0  -0.568879  0  2.268237  0  0  -0.595889  0  2.2604  0  -1.187054  0  -0.275514  -0.550105  0  2.272999  0
O  O132  1  0.43528389  0.61131102  0.22072070  1  0  -0.633486  0  2.034796  0  0  -0.569264  0  2.268135  0  0  -0.596345  0  2.260374  0  -1.189489  0  -0.275634  -0.55042  0  2.272865  0
O  O133  1  0.78431031  0.60806898  0.21956493  1  0  -0.633253  0  2.027186  0  0  -0.569863  0  2.26004  0  0  -0.596828  0  2.252208  0  -1.19555  0  -0.276228  -0.551113  0  2.264796  0
O  O134  1  0.71538527  0.88841101  0.78038593  1  0  -0.633556  0  2.026576  0  0  -0.570081  0  2.259357  0  0  -0.597045  0  2.251558  0  -1.193954  0  -0.276531  -0.551353  0  2.26408  0
O  O135  1  0.06522541  0.89049543  0.77927164  1  0  -0.633052  0  2.03481  0  0  -0.568912  0  2.26823  0  0  -0.595919  0  2.260392  0  -1.186715  0  -0.275494  -0.550141  0  2.273  0
O  O136  1  0.21349311  0.34433055  0.10084972  1  0  -0.3531  0  1.737205  0  0  -0.335576  0  1.935141  0  0  -0.348159  0  1.933522  0  -0.461675  0  -0.125108  -0.327197  0  1.936443  0
O  O137  1  0.88655308  0.75541962  0.09864612  1  0  -0.343373  0  1.747331  0  0  -0.335518  0  1.933018  0  0  -0.348208  0  1.931511  0  -0.468996  0  -0.125053  -0.327141  0  1.934274  0
O  O138  1  0.61267528  0.15624077  0.90083067  1  0  -0.342947  0  1.748044  0  0  -0.335026  0  1.934189  0  0  -0.347628  0  1.932567  0  -0.455718  0  -0.125064  -0.326628  0  1.935417  0
O  O139  1  0.28753186  0.74374997  0.89968788  1  0  -0.343289  0  1.749209  0  0  -0.334362  0  1.934418  0  0  -0.34694  0  1.932779  0  -0.457727  0  -0.124695  -0.325984  0  1.935708  0
O  O140  1  0.78650481  0.65566483  0.89914733  1  0  -0.344148  0  1.749587  0  0  -0.335565  0  1.935058  0  0  -0.348147  0  1.933438  0  -0.461689  0  -0.125122  -0.327198  0  1.936373  0
O  O141  1  0.11344555  0.24457836  0.90135591  1  0  -0.35228  0  1.734973  0  0  -0.335493  0  1.93311  0  0  -0.348181  0  1.931602  0  -0.469001  0  -0.125038  -0.32712  0  1.93437  0
O  O142  1  0.38731098  0.84375461  0.09915981  1  0  -0.342853  0  1.747891  0  0  -0.334991  0  1.934021  0  0  -0.34759  0  1.932394  0  -0.456344  0  -0.125025  -0.326596  0  1.935247  0
O  O143  1  0.71246433  0.25624973  0.10030424  1  0  -0.343312  0  1.7492  0  0  -0.334357  0  1.93444  0  0  -0.346936  0  1.9328  0  -0.457688  0  -0.124698  -0.325981  0  1.935727  0
O  O144  1  0.36681214  0.25024459  0.49995051  1  0  -1.01267  0  1.821793  0  0  -0.89708  0  2.098578  0  0  -0.928102  0  2.078267  0  -1.255522  0  -0.442761  -0.874723  0  2.112074  0
O  O145  1  0.13296101  0.25017629  0.49993318  1  0  -1.01298  0  1.821568  0  0  -0.897178  0  2.098183  0  0  -0.928123  0  2.07781  0  -1.254488  0  -0.442901  -0.874841  0  2.111639  0
O  O146  1  0.63318808  0.74977327  0.50005342  1  0  -1.01271  0  1.821844  0  0  -0.897147  0  2.098673  0  0  -0.928162  0  2.078354  0  -1.255563  0  -0.442762  -0.87479  0  2.112168  0
O  O147  1  0.86703980  0.74982255  0.50006569  1  0  -1.013045  0  1.821607  0  0  -0.897208  0  2.098188  0  0  -0.928153  0  2.077815  0  -1.254476  0  -0.442915  -0.874882  0  2.111662  0
