# generated using pymatgen
data_Zn4H36C39O19
_symmetry_space_group_name_H-M   'P 1'
_cell_length_a   18.21606161
_cell_length_b   18.01738290
_cell_length_c   18.24929312
_cell_angle_alpha   118.20426756
_cell_angle_beta   90.12377626
_cell_angle_gamma   120.81376100
_symmetry_Int_Tables_number   1
_chemical_formula_structural   Zn4H36C39O19
_chemical_formula_sum   'Zn8 H72 C78 O38'
_cell_volume   4290.70581782
_cell_formula_units_Z   2
loop_
 _symmetry_equiv_pos_site_id
 _symmetry_equiv_pos_as_xyz
  1  'x, y, z'
loop_
 _atom_site_type_symbol
 _atom_site_label
 _atom_site_symmetry_multiplicity
 _atom_site_fract_x
 _atom_site_fract_y
 _atom_site_fract_z
 _atom_site_occupancy
 _atom_site_pbe_bader_charge
 _atom_site_pbe_bader_spin_density
 _atom_site_pbe_cm5_charge
 _atom_site_pbe_ddec_charge
 _atom_site_pbe_ddec_spin_density
 _atom_site_pbe_ddec_sum_bond_order
 _atom_site_pbe_magmom
Zn  Zn0  1  0.96187355  0.10324142  0.07525882  1  1.329771  0  0.696845  0.997226  0  2.297904  0
Zn  Zn1  1  0.95709017  0.92752596  0.90220859  1  1.301515  0  0.672446  0.955704  0  2.413244  0
Zn  Zn2  1  0.95916957  0.92055684  0.07196676  1  1.311982  0  0.673494  0.964973  0  2.365307  0
Zn  Zn3  1  0.13598719  0.09858288  0.06704916  1  1.300785  0  0.672975  0.962715  0  2.381729  0
Zn  Zn4  1  0.55005489  0.92898702  0.49171049  1  1.313213  0  0.674292  0.973344  0  2.360896  0
Zn  Zn5  1  0.54639639  0.10331765  0.65698685  1  1.316534  0  0.6788  0.960309  0  2.407778  0
Zn  Zn6  1  0.37091974  0.92262162  0.49062742  1  1.313641  0  0.680312  0.969391  0  2.362166  0
Zn  Zn7  1  0.54696148  0.10057737  0.48148611  1  1.313416  0  0.682099  0.973881  0  2.356797  0
H  H8  1  0.14116364  0.06482978  0.60912838  1  0.020331  0  0.087181  0.114896  0  0.999694  0
H  H9  1  0.20671444  0.15615558  0.72191388  1  -0.005618  0  0.079125  0.102731  0  1.028458  0
H  H10  1  0.17094319  0.19294643  0.66244385  1  0.012938  0  0.082768  0.1057  0  1.008652  0
H  H11  1  0.04394983  0.02961460  0.70138975  1  0.006442  0  0.089386  0.078197  0  0.975297  0
H  H12  1  0.00841372  0.06559940  0.64211681  1  0.002233  0  0.087856  0.07298  0  0.97531  0
H  H13  1  0.12507895  0.20878977  0.83679908  1  0.023598  0  0.09304  0.090158  0  0.972166  0
H  H14  1  0.09501933  0.24956840  0.77821402  1  0.047761  0  0.094501  0.091207  0  0.971393  0
H  H15  1  0.96052728  0.07485013  0.80052651  1  0.056397  0  0.096395  0.061266  0  1.020966  0
H  H16  1  0.93162138  0.12241656  0.74794186  1  0.044602  0  0.101344  0.065878  0  0.981872  0
H  H17  1  0.78402160  0.18144201  0.80662845  1  0.145669  0  0.120108  0.135035  0  0.981885  0
H  H18  1  0.61349221  0.84834031  0.66964720  1  0.102058  0  0.11099  0.112768  0  0.985306  0
H  H19  1  0.71805847  0.85900794  0.77001405  1  0.080336  0  0.112596  0.1166  0  0.9802  0
H  H20  1  0.53677994  0.44246975  0.90870278  1  0.010351  0  0.087882  0.115703  0  0.997968  0
H  H21  1  0.56705223  0.49708839  0.84507069  1  0.012642  0  0.080848  0.105304  0  1.02067  0
H  H22  1  0.46667806  0.46844927  0.87320738  1  -0.00593  0  0.081932  0.103704  0  1.009875  0
H  H23  1  0.65988367  0.63183371  0.00581540  1  0.014512  0  0.090267  0.078925  0  0.972337  0
H  H24  1  0.56036973  0.60359193  0.03352463  1  0.025696  0  0.087281  0.071346  0  0.975041  0
H  H25  1  0.62779762  0.69338040  0.92078283  1  0.021364  0  0.092757  0.090372  0  0.972701  0
H  H26  1  0.52506185  0.66142762  0.94367537  1  0.042887  0  0.09395  0.090632  0  0.970851  0
H  H27  1  0.71229194  0.81440686  0.08277143  1  0.038224  0  0.096747  0.062295  0  1.022864  0
H  H28  1  0.60925129  0.78813419  0.10428381  1  0.050481  0  0.100985  0.066196  0  0.978983  0
H  H29  1  0.61623837  0.00161451  0.24607113  1  0.132446  0  0.120944  0.135318  0  0.979446  0
H  H30  1  0.80083858  0.02360936  0.41683302  1  0.106858  0  0.11059  0.112544  0  0.987582  0
H  H31  1  0.89036109  0.01609326  0.31256037  1  0.09127  0  0.111876  0.115854  0  0.979879  0
H  H32  1  0.44264830  0.34488337  0.50928194  1  0.034973  0  0.087084  0.114771  0  0.999968  0
H  H33  1  0.32638636  0.25097499  0.48368400  1  0.035315  0  0.079694  0.103177  0  1.0258  0
H  H34  1  0.37984468  0.38116780  0.57361300  1  0.014012  0  0.082445  0.10457  0  1.00822  0
H  H35  1  0.35193929  0.30926147  0.37892532  1  0.018244  0  0.089761  0.077926  0  0.974184  0
H  H36  1  0.40575366  0.43858913  0.46776504  1  0.02733  0  0.087819  0.072885  0  0.975262  0
H  H37  1  0.20689200  0.26091453  0.41466576  1  0.020036  0  0.091757  0.088132  0  0.976109  0
H  H38  1  0.26075640  0.39037261  0.50485012  1  0.02678  0  0.094794  0.091706  0  0.969369  0
H  H39  1  0.23957746  0.32094985  0.31217769  1  0.059103  0  0.09748  0.064933  0  1.002747  0
H  H40  1  0.29323110  0.45117957  0.40289473  1  0.061367  0  0.100836  0.064259  0  0.989691  0
H  H41  1  0.23080547  0.60630203  0.41966209  1  0.114877  0  0.121651  0.135009  0  0.974295  0
H  H42  1  0.38470428  0.61352287  0.24086989  1  0.093209  0  0.111277  0.112475  0  0.987673  0
H  H43  1  0.28714693  0.41918069  0.14787501  1  0.083744  0  0.112913  0.116418  0  0.979676  0
H  H44  1  0.01279378  0.34355794  0.46767249  1  0.063836  0  0.087741  0.130282  0  1.024926  0
H  H45  1  0.97039333  0.24681081  0.49145268  1  0.000961  0  0.074445  0.093587  0  1.0293  0
H  H46  1  0.06372544  0.37600881  0.57108772  1  -0.008814  0  0.077825  0.098266  0  1.013107  0
H  H47  1  0.87067850  0.30833682  0.50435734  1  0.027314  0  0.089855  0.079228  0  0.970461  0
H  H48  1  0.96352438  0.43630916  0.58266770  1  0.004739  0  0.090933  0.079445  0  0.967305  0
H  H49  1  0.87999369  0.25360947  0.60549012  1  0.0554  0  0.090282  0.086938  0  0.97746  0
H  H50  1  0.97667612  0.38013044  0.68348374  1  0.043598  0  0.093133  0.090283  0  0.972085  0
H  H51  1  0.78894153  0.32311354  0.61821498  1  0.047176  0  0.097874  0.063191  0  1.003819  0
H  H52  1  0.88579833  0.45091454  0.69651708  1  0.061972  0  0.101002  0.064767  0  0.984318  0
H  H53  1  0.87806810  0.59793896  0.90604324  1  0.103218  0  0.117941  0.128393  0  0.977027  0
H  H54  1  0.72534004  0.62118449  0.74796683  1  0.093559  0  0.112595  0.118548  0  0.986783  0
H  H55  1  0.63192584  0.42801116  0.64011259  1  0.117612  0  0.113498  0.117818  0  0.984087  0
H  H56  1  0.57346222  0.88866037  0.90024233  1  0.076378  0  0.08993  0.128837  0  1.006552  0
H  H57  1  0.52913249  0.79331117  0.78527216  1  -0.002297  0  0.074373  0.092084  0  1.030312  0
H  H58  1  0.46164806  0.77495766  0.85354200  1  0.009184  0  0.081144  0.104499  0  1.008352  0
H  H59  1  0.53056798  0.94708501  0.81803071  1  0.028859  0  0.085735  0.073919  0  0.987048  0
H  H60  1  0.46478696  0.92980757  0.88665430  1  0.01643  0  0.092654  0.082899  0  0.963438  0
H  H61  1  0.40419132  0.77225717  0.68756037  1  0.027084  0  0.091103  0.087359  0  0.974782  0
H  H62  1  0.33807270  0.75266639  0.75606641  1  0.013545  0  0.093146  0.089904  0  0.970554  0
H  H63  1  0.40929611  0.92870699  0.72682789  1  0.058821  0  0.097685  0.064072  0  0.995633  0
H  H64  1  0.34014770  0.90660084  0.79366367  1  0.045258  0  0.101211  0.065065  0  0.988408  0
H  H65  1  0.11941356  0.84294773  0.74742430  1  0.11391  0  0.117473  0.1282  0  0.976608  0
H  H66  1  0.28065698  0.17621230  0.89968078  1  0.114204  0  0.112523  0.116088  0  0.986042  0
H  H67  1  0.38175098  0.17796291  0.80588372  1  0.102119  0  0.113389  0.118289  0  0.985504  0
H  H68  1  0.09378746  0.44568362  0.04912696  1  0.068531  0  0.088118  0.132003  0  1.023724  0
H  H69  1  0.21007520  0.49929053  0.08748369  1  -0.023982  0  0.0721  0.090989  0  1.042616  0
H  H70  1  0.16879403  0.49762900  0.99796324  1  -0.005302  0  0.078148  0.099847  0  1.010701  0
H  H71  1  0.17607469  0.62383002  0.18887968  1  0.019868  0  0.089093  0.078899  0  0.972542  0
H  H72  1  0.13091791  0.61896858  0.10004188  1  0.020088  0  0.090082  0.077315  0  0.969401  0
H  H73  1  0.32934835  0.70480735  0.17060607  1  0.016568  0  0.088323  0.083481  0  0.982431  0
H  H74  1  0.28403751  0.69473463  0.07780184  1  0.018222  0  0.093025  0.089956  0  0.972832  0
H  H75  1  0.28876117  0.82209633  0.26571572  1  0.030844  0  0.097258  0.063435  0  1.003674  0
H  H76  1  0.23564503  0.80672367  0.17261569  1  0.04229  0  0.100912  0.063809  0  0.993462  0
H  H77  1  0.29341619  0.00742972  0.14783362  1  0.117004  0  0.117876  0.128335  0  0.975483  0
H  H78  1  0.11996093  0.01323146  0.30720589  1  0.091828  0  0.112189  0.116218  0  0.986068  0
H  H79  1  0.21110416  0.01132709  0.40920928  1  0.110986  0  0.113376  0.117332  0  0.982425  0
C  C80  1  0.15048549  0.12924682  0.67095228  1  -0.018135  0  -0.245352  -0.353981  0  3.990394  0
C  C81  1  0.06407542  0.09530170  0.69575212  1  0.009575  0  -0.163077  -0.08998  0  3.974269  0
C  C82  1  0.07302401  0.18215615  0.78166424  1  -0.029124  0  -0.165669  -0.17701  0  3.959922  0
C  C83  1  0.98363394  0.14392511  0.79963387  1  0.38105  0  -0.070414  0.027791  0  3.900748  0
C  C84  1  0.92187189  0.21826986  0.90833547  1  1.520448  0  0.237336  0.516231  0  4.117784  0
C  C85  1  0.83183803  0.11612558  0.84956183  1  0.01951  0  0.00301  -0.033709  0  3.954684  0
C  C86  1  0.77012353  0.11083170  0.79824603  1  -0.013048  0  -0.063828  -0.108597  0  3.8938  0
C  C87  1  0.69215452  0.01405785  0.73335502  1  -0.036904  0  -0.007661  -0.021154  0  3.982946  0
C  C88  1  0.67378618  0.92286479  0.72145756  1  -0.011517  0  -0.0761  -0.092008  0  3.978729  0
C  C89  1  0.73216717  0.92867792  0.77635057  1  -0.00427  0  -0.073413  -0.082393  0  3.967807  0
C  C90  1  0.81129097  0.02476366  0.84010814  1  -0.046156  0  -0.002906  -0.049685  0  3.944636  0
C  C91  1  0.87300183  0.02667947  0.89597659  1  1.589387  0  0.231817  0.603436  0  4.175667  0
C  C92  1  0.63005792  0.00847378  0.67447513  1  1.565421  0  0.231702  0.606658  0  4.17037  0
C  C93  1  0.53722627  0.49749761  0.89750546  1  -0.005879  0  -0.24484  -0.353065  0  3.986268  0
C  C94  1  0.59037312  0.60611960  0.98156055  1  -0.013211  0  -0.162309  -0.08758  0  3.970829  0
C  C95  1  0.59382842  0.68630518  0.96940013  1  -0.022863  0  -0.16605  -0.177085  0  3.960507  0
C  C96  1  0.64464831  0.79111581  0.05581459  1  0.386509  0  -0.071003  0.024502  0  3.907541  0
C  C97  1  0.68157485  0.96360303  0.10999085  1  1.518374  0  0.23354  0.51289  0  4.121218  0
C  C98  1  0.72181951  0.99212478  0.19910612  1  0.015696  0  0.002761  -0.030612  0  3.943434  0
C  C99  1  0.67595663  0.00403247  0.26020486  1  -0.023694  0  -0.06342  -0.106529  0  3.893266  0
C  C100  1  0.70493519  0.01556611  0.33847159  1  0.018377  0  -0.009147  -0.023825  0  3.974557  0
C  C101  1  0.78054149  0.01703384  0.35664152  1  -0.024645  0  -0.075283  -0.0887  0  3.971236  0
C  C102  1  0.82954087  0.01157941  0.29832850  1  -0.005242  0  -0.074679  -0.086259  0  3.968097  0
C  C103  1  0.80088802  0.99966306  0.21989044  1  -0.061386  0  -0.003107  -0.050742  0  3.942705  0
C  C104  1  0.85661278  0.99745791  0.15995688  1  1.568071  0  0.23184  0.605157  0  4.173068  0
C  C105  1  0.65265771  0.02302825  0.40120154  1  1.543221  0  0.231839  0.607793  0  4.159749  0
C  C106  1  0.37668842  0.33237525  0.50635743  1  -0.085023  0  -0.244392  -0.350949  0  3.984689  0
C  C107  1  0.35246320  0.35769255  0.44512250  1  -0.005708  0  -0.162807  -0.089646  0  3.969756  0
C  C108  1  0.26110519  0.34208862  0.43915716  1  -0.005544  0  -0.165079  -0.17622  0  3.955637  0
C  C109  1  0.24096766  0.36963633  0.37861674  1  0.350998  0  -0.069478  0.028103  0  3.898513  0
C  C110  1  0.13072278  0.40089092  0.34943253  1  1.521625  0  0.235207  0.514136  0  4.122182  0
C  C111  1  0.19398045  0.45734319  0.31259002  1  -0.002886  0  0.002161  -0.036283  0  3.959361  0
C  C112  1  0.24365590  0.56521865  0.36054597  1  0.003323  0  -0.064509  -0.110015  0  3.902892  0
C  C113  1  0.31203523  0.62081992  0.33426924  1  0.009689  0  -0.007227  -0.018091  0  3.973257  0
C  C114  1  0.33000000  0.56897198  0.25929543  1  0.020877  0  -0.075474  -0.09283  0  3.973765  0
C  C115  1  0.27666971  0.46128322  0.20832935  1  -0.014098  0  -0.073854  -0.083621  0  3.9703  0
C  C116  1  0.20840489  0.40510936  0.23420865  1  -0.046632  0  -0.003146  -0.048896  0  3.94343  0
C  C117  1  0.15004921  0.28965719  0.17581711  1  1.576236  0  0.231131  0.601882  0  4.17967  0
C  C118  1  0.36754563  0.73636763  0.38815665  1  1.530335  0  0.233765  0.610938  0  4.163802  0
C  C119  1  0.99882495  0.32880994  0.51966549  1  -0.029658  0  -0.248944  -0.354644  0  3.975342  0
C  C120  1  0.93426813  0.35461816  0.55741097  1  -0.006377  0  -0.162019  -0.086163  0  3.958878  0
C  C121  1  0.91350935  0.33613916  0.63093569  1  -0.057625  0  -0.167527  -0.182507  0  3.973575  0
C  C122  1  0.85339476  0.36830475  0.66945880  1  0.359315  0  -0.068471  0.032611  0  3.897681  0
C  C123  1  0.80414335  0.39499713  0.79952014  1  1.536791  0  0.228981  0.515129  0  4.139177  0
C  C124  1  0.77670926  0.45440864  0.78528026  1  0.013611  0  0.000238  -0.039053  0  3.953414  0
C  C125  1  0.82465590  0.56068852  0.84748311  1  0.004765  0  -0.066584  -0.106079  0  3.917175  0
C  C126  1  0.80546915  0.61993216  0.83377728  1  -0.072793  0  -0.010075  -0.024428  0  3.975548  0
C  C127  1  0.73762268  0.57311573  0.75818397  1  0.017267  0  -0.074905  -0.088599  0  3.96543  0
C  C128  1  0.68684035  0.46658031  0.69798785  1  -0.019119  0  -0.074838  -0.087558  0  3.971113  0
C  C129  1  0.70553707  0.40700673  0.71159242  1  -0.040609  0  -0.003704  -0.047687  0  3.95089  0
C  C130  1  0.64539200  0.29190477  0.65218746  1  1.545598  0  0.22678  0.59075  0  4.201123  0
C  C131  1  0.85984852  0.73454169  0.89664192  1  1.574268  0  0.228687  0.602092  0  4.170708  0
C  C132  1  0.51255937  0.83331235  0.84240524  1  -0.067289  0  -0.246887  -0.356256  0  3.981223  0
C  C133  1  0.47758864  0.88760004  0.82710857  1  -0.008165  0  -0.162523  -0.086888  0  3.95807  0
C  C134  1  0.39140938  0.81278423  0.74790542  1  -0.005778  0  -0.166156  -0.179336  0  3.966329  0
C  C135  1  0.35723387  0.86879043  0.73593578  1  0.374987  0  -0.067569  0.032764  0  3.897581  0
C  C136  1  0.21784576  0.81369319  0.64434592  1  1.538645  0  0.229857  0.516753  0  4.137645  0
C  C137  1  0.23653159  0.91687133  0.71183201  1  -0.03226  0  0.002105  -0.033884  0  3.952452  0
C  C138  1  0.17754241  0.91619543  0.76065063  1  0.004902  0  -0.068324  -0.111318  0  3.919131  0
C  C139  1  0.19394735  0.00944783  0.82797823  1  -0.05742  0  -0.008578  -0.019224  0  3.978784  0
C  C140  1  0.26838007  0.10443677  0.84603007  1  -0.032317  0  -0.074711  -0.089547  0  3.968136  0
C  C141  1  0.32475712  0.10544372  0.79492674  1  -0.01789  0  -0.072844  -0.08125  0  3.96818  0
C  C142  1  0.30926798  0.01236390  0.72797826  1  0.029126  0  -0.006361  -0.054645  0  3.957124  0
C  C143  1  0.36834276  0.01570497  0.67183477  1  1.572054  0  0.225488  0.588494  0  4.203509  0
C  C144  1  0.13465713  0.00901934  0.88403239  1  1.593802  0  0.229193  0.602622  0  4.173019  0
C  C145  1  0.16265817  0.50839236  0.06168657  1  -0.022172  0  -0.250369  -0.353969  0  3.97398  0
C  C146  1  0.18263327  0.61467647  0.12557648  1  -0.002249  0  -0.162613  -0.086446  0  3.962153  0
C  C147  1  0.27633422  0.70455263  0.14098779  1  -0.001085  0  -0.167327  -0.179713  0  3.971422  0
C  C148  1  0.28996252  0.80738800  0.20006734  1  0.398737  0  -0.06929  0.032092  0  3.896973  0
C  C149  1  0.39278417  0.98218097  0.23020020  1  1.532185  0  0.229531  0.51653  0  4.136042  0
C  C150  1  0.32201915  0.99934327  0.25766537  1  -0.009401  0  0.000873  -0.03775  0  3.955643  0
C  C151  1  0.27513780  0.00759613  0.20473042  1  0.017919  0  -0.068243  -0.110374  0  3.920049  0
C  C152  1  0.20265446  0.01256670  0.22307651  1  -0.046814  0  -0.009335  -0.022439  0  3.977402  0
C  C153  1  0.17790619  0.01166308  0.29547756  1  -0.012458  0  -0.075345  -0.089051  0  3.965521  0
C  C154  1  0.22755540  0.00929937  0.35118629  1  -0.015224  0  -0.074521  -0.086571  0  3.976129  0
C  C155  1  0.29964139  0.00358874  0.33282995  1  -0.043075  0  -0.004706  -0.050688  0  3.953704  0
C  C156  1  0.35628774  0.00699150  0.39495529  1  1.5735  0  0.228019  0.595089  0  4.190427  0
C  C157  1  0.14729197  0.01334219  0.16350586  1  1.575811  0  0.229158  0.6049  0  4.16777  0
O  O158  1  0.00399234  0.01338113  0.03040974  1  -1.202853  0  -0.57525  -1.039877  0  2.550146  0
O  O159  1  0.99546329  0.22569174  0.88430556  1  -1.021685  0  -0.176573  -0.251666  0  2.449023  0
O  O160  1  0.93177866  0.29271864  0.97262521  1  -1.091551  0  -0.258729  -0.416903  0  2.077216  0
O  O161  1  0.88499378  0.95550307  0.85527790  1  -1.175847  0  -0.313769  -0.545177  0  2.354547  0
O  O162  1  0.90770992  0.09747499  0.97761874  1  -1.164393  0  -0.296811  -0.521922  0  2.316514  0
O  O163  1  0.61614308  0.07818605  0.71079666  1  -1.16267  0  -0.305083  -0.525517  0  2.33858  0
O  O164  1  0.59681353  0.93497543  0.59329032  1  -1.177942  0  -0.317899  -0.554244  0  2.309582  0
O  O165  1  0.65196638  0.86674926  0.04052995  1  -1.032384  0  -0.179273  -0.255424  0  2.454009  0
O  O166  1  0.67244312  0.01896195  0.09705879  1  -1.083426  0  -0.266409  -0.419839  0  2.055871  0
O  O167  1  0.88609871  0.94292545  0.14713398  1  -1.164297  0  -0.312702  -0.545725  0  2.329863  0
O  O168  1  0.86981464  0.05049504  0.12759322  1  -1.158906  0  -0.29792  -0.523123  0  2.325156  0
O  O169  1  0.61801820  0.07100206  0.40750001  1  -1.162472  0  -0.305081  -0.528634  0  2.326002  0
O  O170  1  0.64682686  0.98058541  0.44278449  1  -1.168942  0  -0.318487  -0.554701  0  2.30675  0
O  O171  1  0.15327165  0.35259107  0.37461641  1  -1.02606  0  -0.177652  -0.253273  0  2.454874  0
O  O172  1  0.06410945  0.39881991  0.36002966  1  -1.089618  0  -0.261155  -0.418141  0  2.071466  0
O  O173  1  0.18982321  0.24713222  0.14060203  1  -1.175428  0  -0.312828  -0.544448  0  2.334964  0
O  O174  1  0.06597825  0.24431185  0.16579261  1  -1.150848  0  -0.298856  -0.525479  0  2.326498  0
O  O175  1  0.32507675  0.77659070  0.41800509  1  -1.16022  0  -0.305531  -0.529169  0  2.323242  0
O  O176  1  0.45221149  0.78415479  0.39949112  1  -1.1817  0  -0.316828  -0.552635  0  2.308294  0
O  O177  1  0.83628088  0.34971910  0.73923432  1  -1.036994  0  -0.179412  -0.253325  0  2.472973  0
O  O178  1  0.80219265  0.38999505  0.86370626  1  -1.095123  0  -0.277393  -0.434059  0  2.056077  0
O  O179  1  0.61061655  0.25013378  0.57063267  1  -1.159306  0  -0.309539  -0.537548  0  2.301026  0
O  O180  1  0.63376559  0.24528726  0.69059084  1  -1.160906  0  -0.300778  -0.525736  0  2.396539  0
O  O181  1  0.89917207  0.77364393  0.97641768  1  -1.161858  0  -0.312328  -0.541123  0  2.290402  0
O  O182  1  0.86253249  0.78465517  0.86436532  1  -1.180133  0  -0.315745  -0.546391  0  2.356063  0
O  O183  1  0.27743227  0.79365948  0.65805051  1  -1.044439  0  -0.177936  -0.249224  0  2.480212  0
O  O184  1  0.14867376  0.74631950  0.58192167  1  -1.102827  0  -0.2815  -0.437485  0  2.046192  0
O  O185  1  0.44894403  0.09778921  0.70541675  1  -1.174459  0  -0.313018  -0.539381  0  2.318975  0
O  O186  1  0.33255538  0.93559869  0.59391023  1  -1.173673  0  -0.300206  -0.527953  0  2.371825  0
O  O187  1  0.05162185  0.93141124  0.84896990  1  -1.172183  0  -0.312857  -0.540214  0  2.306814  0
O  O188  1  0.17277320  0.08718864  0.96316955  1  -1.181226  0  -0.313303  -0.543746  0  2.337443  0
O  O189  1  0.37688889  0.89021360  0.20790412  1  -1.032706  0  -0.180706  -0.255034  0  2.465937  0
O  O190  1  0.45991683  0.04394055  0.22379639  1  -1.096954  0  -0.279064  -0.43545  0  2.052127  0
O  O191  1  0.31763894  0.96143006  0.43386418  1  -1.166336  0  -0.313637  -0.543526  0  2.302563  0
O  O192  1  0.43979292  0.05671131  0.40318592  1  -1.171404  0  -0.299388  -0.524674  0  2.380051  0
O  O193  1  0.18678453  0.05816502  0.12425071  1  -1.168341  0  -0.313956  -0.542898  0  2.296331  0
O  O194  1  0.06411498  0.96825130  0.15736189  1  -1.178867  0  -0.312941  -0.543322  0  2.343369  0
O  O195  1  0.50321005  0.01325185  0.52868502  1  -1.215691  0  -0.57559  -1.039817  0  2.553226  0
