# generated using pymatgen
data_Zn2H16C30Br4N2O9
_symmetry_space_group_name_H-M   'P 1'
_cell_length_a   9.86503453
_cell_length_b   11.00328335
_cell_length_c   16.06820809
_cell_angle_alpha   88.17625358
_cell_angle_beta   89.06003611
_cell_angle_gamma   95.72579241
_symmetry_Int_Tables_number   1
_chemical_formula_structural   Zn2H16C30Br4N2O9
_chemical_formula_sum   'Zn2 H16 C30 Br4 N2 O9'
_cell_volume   1734.25078487
_cell_formula_units_Z   1
loop_
 _symmetry_equiv_pos_site_id
 _symmetry_equiv_pos_as_xyz
  1  'x, y, z'
loop_
 _atom_site_type_symbol
 _atom_site_label
 _atom_site_symmetry_multiplicity
 _atom_site_fract_x
 _atom_site_fract_y
 _atom_site_fract_z
 _atom_site_occupancy
 _atom_site_pbe_bader_charge
 _atom_site_pbe_bader_spin_density
 _atom_site_pbe_cm5_charge
 _atom_site_pbe_ddec_charge
 _atom_site_pbe_ddec_spin_density
 _atom_site_pbe_ddec_sum_bond_order
 _atom_site_pbe_magmom
Zn  Zn0  1  0.36232444  0.47916728  0.50741336  1  1.288437  0  0.672992  0.824365  0  2.408419  0
Zn  Zn1  1  0.65080952  0.50765962  0.50886298  1  1.309092  0  0.669737  0.856749  0  2.374945  0
H  H2  1  0.28173708  0.53045947  0.08462439  1  0.091273  0  0.114006  0.121428  0  0.980114  0
H  H3  1  0.19775382  0.08251255  0.45922176  1  0.082708  0  0.1001  0.099555  0  0.975588  0
H  H4  1  0.15366276  0.57199282  0.62134542  1  0.185295  0  0.135403  0.131391  0  0.978019  0
H  H5  1  0.12562559  0.42396276  0.31735689  1  0.136564  0  0.113385  0.150027  0  0.979106  0
H  H6  1  0.10001868  0.28066624  0.37318031  1  0.110439  0  0.101126  0.132179  0  1.012045  0
H  H7  1  0.84390114  0.29962701  0.37917253  1  0.155869  0  0.11959  0.128841  0  0.954827  0
H  H8  1  0.28335613  0.50489679  0.93099481  1  0.088096  0  0.114388  0.118975  0  0.976734  0
H  H9  1  0.71897215  0.52577040  0.08412045  1  0.108763  0  0.106467  0.126718  0  0.996155  0
H  H10  1  0.71957944  0.12869293  0.55068907  1  0.085689  0  0.10398  0.108531  0  0.991787  0
H  H11  1  0.71838827  0.90243603  0.56313912  1  0.063709  0  0.102135  0.105931  0  1.006207  0
H  H12  1  0.19529581  0.85362340  0.47687074  1  0.065493  0  0.098008  0.043994  0  0.980026  0
H  H13  1  0.08986612  0.86852311  0.31757127  1  0.03894  0  0.086089  0.041767  0  0.993968  0
H  H14  1  0.09082077  0.73073760  0.37946843  1  -0.002043  0  0.081921  0.033018  0  0.993021  0
H  H15  1  0.22631256  0.64166842  0.26555548  1  0.03862  0  0.085199  0.123763  0  1.027136  0
H  H16  1  0.06680086  0.68330157  0.22893732  1  0.03462  0  0.077769  0.106311  0  1.044627  0
H  H17  1  0.22045889  0.77831093  0.20372691  1  0.058313  0  0.090669  0.128864  0  0.989906  0
C  C18  1  0.52265332  0.26156734  0.49210591  1  1.589344  0  0.219306  0.606439  0  4.167279  0
C  C19  1  0.37703467  0.52391459  0.05063608  1  -0.065846  0  -0.076047  -0.122645  0  3.950022  0
C  C20  1  0.49752691  0.48456671  0.83345267  1  0.140294  0  -0.038887  -0.048309  0  4.134668  0
C  C21  1  0.49930669  0.53675647  0.18229181  1  -0.536631  0  -0.029296  -0.052092  0  4.080506  0
C  C22  1  0.49641302  0.53810066  0.25806593  1  0.23581  0  -0.036021  -0.167434  0  3.956571  0
C  C23  1  0.49038596  0.47170480  0.75855279  1  -0.458588  0  -0.042835  -0.170856  0  3.94836  0
C  C24  1  0.41572049  0.04649381  0.46652278  1  -0.017233  0  -0.010974  0.02931  0  3.931127  0
C  C25  1  0.52297557  0.12597433  0.49467875  1  0.027186  0  -0.005996  -0.046482  0  3.945728  0
C  C26  1  0.63283740  0.07000277  0.52860074  1  -0.008028  0  -0.081092  -0.096801  0  3.965181  0
C  C27  1  0.63206938  0.94290385  0.53595563  1  -0.038398  0  -0.078883  -0.09013  0  3.959343  0
C  C28  1  0.52152079  0.86368293  0.50941278  1  -0.021307  0  -0.005146  -0.041039  0  3.933956  0
C  C29  1  0.48873802  0.52699324  0.34785453  1  1.710384  0  0.222703  0.66815  0  4.232584  0
C  C30  1  0.41532140  0.91991851  0.47334507  1  -0.035156  0  -0.001759  0.010629  0  3.871738  0
C  C31  1  0.27728610  0.89457824  0.43372110  1  0.534028  0  0.013091  0.10882  0  3.892733  0
C  C32  1  0.27886019  0.04120356  0.42626050  1  -0.011573  0  -0.073  -0.061654  0  3.736541  0
C  C33  1  0.93221371  0.45779797  0.44801677  1  0.525708  0  0.137659  0.159053  0  3.854113  0
C  C34  1  0.95050602  0.55456313  0.56895002  1  0.481356  0  0.125905  0.184257  0  3.936553  0
C  C35  1  0.09045142  0.53876597  0.57028096  1  0.533295  0  0.067638  0.014049  0  3.846625  0
C  C36  1  0.07046911  0.44254807  0.44864151  1  0.573408  0  0.143771  0.206642  0  3.872853  0
C  C37  1  0.06928793  0.37388962  0.36922962  1  -0.041475  0  -0.144687  -0.269118  0  3.82561  0
C  C38  1  0.91046782  0.38491491  0.36974945  1  -0.016325  0  -0.055643  -0.009924  0  3.718697  0
C  C39  1  0.52028893  0.72826082  0.51807655  1  1.59445  0  0.218754  0.608604  0  4.159079  0
C  C40  1  0.48612934  0.46540706  0.66907405  1  1.701182  0  0.217201  0.66928  0  4.235759  0
C  C41  1  0.37800326  0.50976114  0.96534711  1  0.03625  0  -0.071859  -0.098362  0  3.949775  0
C  C42  1  0.50066652  0.50021045  0.92024627  1  0.149893  0  -0.001123  0.082644  0  4.094782  0
C  C43  1  0.62338994  0.50737886  0.96508825  1  -0.114202  0  -0.005292  0.082494  0  3.927048  0
C  C44  1  0.62373999  0.52152726  0.05059196  1  0.013406  0  -0.083481  -0.172536  0  3.924602  0
C  C45  1  0.50010009  0.52887999  0.09461626  1  0.122988  0  0.009605  0.153934  0  4.09886  0
C  C46  1  0.14756276  0.78918493  0.33043081  1  0.43873  0  -0.074389  0.096327  0  3.940431  0
C  C47  1  0.16648909  0.71884831  0.25234100  1  -0.072197  0  -0.253278  -0.400492  0  3.974473  0
Br  Br48  1  0.87988746  0.63499175  0.65885011  1  0.066877  0  0.107223  0.024442  0  1.45914  0
Br  Br49  1  0.84641727  0.46690137  0.27089117  1  -0.077938  0  0.018688  -0.066377  0  1.364829  0
Br  Br50  1  0.79160672  0.49725825  0.90798564  1  -0.055023  0  0.014926  -0.075902  0  1.358141  0
Br  Br51  1  0.27937983  0.10998620  0.31173931  1  -0.133703  0  -0.020989  -0.114604  0  1.301011  0
N  N52  1  0.86715687  0.51286095  0.50763820  1  -1.186533  0  -0.278407  -0.212733  0  3.402995  0
N  N53  1  0.15196112  0.48081596  0.50977124  1  -1.225738  0  -0.282594  -0.157039  0  3.447867  0
O  O54  1  0.40672981  0.30214390  0.49942758  1  -1.160771  0  -0.312501  -0.539746  0  2.310374  0
O  O55  1  0.63785258  0.32508350  0.48457341  1  -1.167514  0  -0.317556  -0.554361  0  2.323429  0
O  O56  1  0.37033674  0.49659116  0.37952013  1  -1.132113  0  -0.305158  -0.527924  0  2.270958  0
O  O57  1  0.59943455  0.54628741  0.38694919  1  -1.160464  0  -0.313414  -0.557337  0  2.328703  0
O  O58  1  0.40515241  0.66618414  0.51204128  1  -1.158481  0  -0.311325  -0.542985  0  2.326663  0
O  O59  1  0.63425768  0.68588401  0.53054527  1  -1.16113  0  -0.324206  -0.559875  0  2.354847  0
O  O60  1  0.37019406  0.47084931  0.63584309  1  -1.151199  0  -0.315404  -0.544102  0  2.258652  0
O  O61  1  0.59897316  0.45657948  0.63124083  1  -1.154058  0  -0.31767  -0.558127  0  2.30866  0
O  O62  1  0.28018479  0.82966243  0.36054708  1  -1.05284  0  -0.220523  -0.228501  0  2.497812  0
