# generated using pymatgen
data_AgH11C15(N3O)2
_symmetry_space_group_name_H-M   'P 1'
_cell_length_a   7.77604593
_cell_length_b   8.90051345
_cell_length_c   10.78447488
_cell_angle_alpha   104.58039337
_cell_angle_beta   93.80006667
_cell_angle_gamma   99.01490849
_symmetry_Int_Tables_number   1
_chemical_formula_structural   AgH11C15(N3O)2
_chemical_formula_sum   'Ag2 H22 C30 N12 O4'
_cell_volume   709.06429158
_cell_formula_units_Z   2
loop_
 _symmetry_equiv_pos_site_id
 _symmetry_equiv_pos_as_xyz
  1  'x, y, z'
loop_
 _atom_site_type_symbol
 _atom_site_label
 _atom_site_symmetry_multiplicity
 _atom_site_fract_x
 _atom_site_fract_y
 _atom_site_fract_z
 _atom_site_occupancy
 _atom_site_hle17_bader_spin_density
 _atom_site_hle17_ddec_charge
 _atom_site_hle17_ddec_spin_density
 _atom_site_hle17_ddec_sum_bond_order
 _atom_site_hle17_magmom
 _atom_site_hse06_10hf_bader_spin_density
 _atom_site_hse06_10hf_ddec_charge
 _atom_site_hse06_10hf_ddec_spin_density
 _atom_site_hse06_10hf_ddec_sum_bond_order
 _atom_site_hse06_10hf_magmom
 _atom_site_hse06_bader_spin_density
 _atom_site_hse06_ddec_charge
 _atom_site_hse06_ddec_spin_density
 _atom_site_hse06_ddec_sum_bond_order
 _atom_site_hse06_magmom
 _atom_site_pbe_bader_spin_density
 _atom_site_pbe_cm5_charge
 _atom_site_pbe_ddec_charge
 _atom_site_pbe_ddec_spin_density
 _atom_site_pbe_ddec_sum_bond_order
 _atom_site_pbe_magmom
Ag  Ag0  1  0.41699564  0.15111477  0.28009840  1  0  0.487353  0  1.457578  0  0  0.330119  0  1.904979  0  0  0.360891  0  1.860145  0  0  0.456857  0.308068  0  1.93561  0
Ag  Ag1  1  0.58300251  0.84888288  0.71990503  1  0  0.487293  0  1.457602  0  0  0.330057  0  1.904994  0  0  0.360829  0  1.860156  0  0  0.456848  0.308002  0  1.935631  0
H  H2  1  0.69706406  0.04497128  0.06270296  1  0  0.138498  0  0.971053  0  0  0.145532  0  1.033764  0  0  0.149761  0  1.029334  0  0  0.14774  0.1422  0  1.037484  0
H  H3  1  0.30293369  0.95503112  0.93729312  1  0  0.138502  0  0.971083  0  0  0.145566  0  1.033752  0  0  0.149798  0  1.029324  0  0  0.147756  0.142235  0  1.037471  0
H  H4  1  0.03430982  0.34674676  0.96489940  1  0  0.118223  0  0.932158  0  0  0.12351  0  1.008206  0  0  0.126339  0  1.005703  0  0  0.120813  0.121671  0  1.009781  0
H  H5  1  0.96568745  0.65325327  0.03509616  1  0  0.118147  0  0.932197  0  0  0.123436  0  1.008239  0  0  0.126265  0  1.005733  0  0  0.120788  0.121598  0  1.009815  0
H  H6  1  0.92828309  0.14528010  0.91041487  1  0  0.123161  0  0.926898  0  0  0.135054  0  0.991164  0  0  0.137034  0  0.990429  0  0  0.122874  0.133494  0  0.991854  0
H  H7  1  0.07171521  0.85471875  0.08958048  1  0  0.123182  0  0.92691  0  0  0.135052  0  0.991197  0  0  0.137034  0  0.99046  0  0  0.122878  0.133492  0  0.991887  0
H  H8  1  0.49574060  0.79177461  0.09794041  1  0  0.085393  0  0.970388  0  0  0.093966  0  1.036107  0  0  0.096916  0  1.033177  0  0  0.110848  0.091572  0  1.038829  0
H  H9  1  0.50425931  0.20822538  0.90206174  1  0  0.085385  0  0.970447  0  0  0.093957  0  1.036172  0  0  0.096909  0  1.033242  0  0  0.110835  0.091564  0  1.038888  0
H  H10  1  0.41890261  0.50653409  0.09318527  1  0  0.107755  0  0.946992  0  0  0.118343  0  1.005368  0  0  0.12124  0  1.005106  0  0  0.107541  0.116673  0  1.004923  0
H  H11  1  0.58108930  0.49346477  0.90681445  1  0  0.107749  0  0.947018  0  0  0.118335  0  1.005407  0  0  0.121233  0  1.005142  0  0  0.107518  0.116653  0  1.004974  0
H  H12  1  0.26508738  0.43371059  0.27209877  1  0  0.098371  0  0.969824  0  0  0.106136  0  1.039694  0  0  0.110165  0  1.035429  0  0  0.101528  0.102984  0  1.042695  0
H  H13  1  0.73490816  0.56628707  0.72790178  1  0  0.098415  0  0.969789  0  0  0.106166  0  1.039669  0  0  0.110196  0  1.035402  0  0  0.10154  0.103014  0  1.042669  0
H  H14  1  0.13566828  0.51858943  0.47559468  1  0  0.095231  0  0.965491  0  0  0.108781  0  1.025162  0  0  0.110684  0  1.025681  0  0  0.103226  0.106911  0  1.02612  0
H  H15  1  0.86433107  0.48141411  0.52440820  1  0  0.095221  0  0.965452  0  0  0.108733  0  1.025198  0  0  0.110633  0  1.02572  0  0  0.103186  0.106895  0  1.026109  0
H  H16  1  0.05418325  0.73446873  0.64705132  1  0  0.107913  0  0.955731  0  0  0.116691  0  1.018863  0  0  0.11973  0  1.017793  0  0  0.104769  0.114414  0  1.019994  0
H  H17  1  0.94581713  0.26553364  0.35295042  1  0  0.107888  0  0.955757  0  0  0.11668  0  1.018863  0  0  0.119716  0  1.017798  0  0  0.104762  0.114377  0  1.020032  0
H  H18  1  0.06806467  0.01378100  0.74553333  1  0  0.109593  0  0.956174  0  0  0.119375  0  1.019799  0  0  0.122621  0  1.017292  0  0  0.107257  0.116815  0  1.021864  0
H  H19  1  0.93193732  0.98621663  0.25446749  1  0  0.109638  0  0.956124  0  0  0.11942  0  1.01975  0  0  0.122665  0  1.017244  0  0  0.107288  0.116861  0  1.021815  0
H  H20  1  0.16513816  0.29725069  0.73987007  1  0  0.104623  0  0.972846  0  0  0.110906  0  1.040383  0  0  0.113803  0  1.039539  0  0  0.106678  0.108291  0  1.042017  0
H  H21  1  0.83486669  0.70274809  0.26013482  1  0  0.104624  0  0.9728  0  0  0.110914  0  1.04035  0  0  0.113811  0  1.039505  0  0  0.106691  0.108299  0  1.041983  0
H  H22  1  0.31728873  0.34913877  0.55622417  1  0  0.066925  0  0.943004  0  0  0.07555  0  1.012059  0  0  0.077993  0  1.009234  0  0  0.111471  0.073416  0  1.015145  0
H  H23  1  0.68271532  0.65086238  0.44378211  1  0  0.066949  0  0.942995  0  0  0.075584  0  1.012019  0  0  0.078027  0  1.009196  0  0  0.111484  0.073448  0  1.015109  0
C  C24  1  0.71948313  0.17285823  0.10485614  1  0  0.14149  0  3.590678  0  0  0.065164  0  3.853592  0  0  0.077048  0  3.86402  0  0  0.17448  0.057042  0  3.848198  0
C  C25  1  0.28051953  0.82714295  0.89514081  1  0  0.141407  0  3.590662  0  0  0.065028  0  3.853619  0  0  0.07691  0  3.864058  0  0  0.174429  0.056904  0  3.848228  0
C  C26  1  0.98579168  0.24106690  0.99583313  1  0  -0.182809  0  3.601857  0  0  -0.253987  0  3.845499  0  0  -0.255153  0  3.851745  0  0  -0.052927  -0.25279  0  3.840831  0
C  C27  1  0.01420787  0.75893784  0.00416629  1  0  -0.182709  0  3.601813  0  0  -0.253845  0  3.845377  0  0  -0.255007  0  3.851616  0  0  -0.052887  -0.252651  0  3.840712  0
C  C28  1  0.14021146  0.18871474  0.06233899  1  0  0.659096  0  3.939819  0  0  0.615267  0  4.241977  0  0  0.646715  0  4.237807  0  0  0.191939  0.594078  0  4.242662  0
C  C29  1  0.85979071  0.81128409  0.93765652  1  0  0.659122  0  3.939696  0  0  0.615285  0  4.241851  0  0  0.646733  0  4.23768  0  0  0.191969  0.594094  0  4.242536  0
C  C30  1  0.42301852  0.75685306  0.17227837  1  0  0.12475  0  3.717127  0  0  0.092498  0  3.976882  0  0  0.099457  0  3.994164  0  0  0.044312  0.08823  0  3.964955  0
C  C31  1  0.57698268  0.24314692  0.82772476  1  0  0.124728  0  3.717176  0  0  0.092496  0  3.976909  0  0  0.099451  0  3.994194  0  0  0.044327  0.088232  0  3.964977  0
C  C32  1  0.38263281  0.59665013  0.17063268  1  0  -0.112874  0  3.736985  0  0  -0.13086  0  3.997866  0  0  -0.137101  0  4.019501  0  0  -0.088144  -0.125968  0  3.981183  0
C  C33  1  0.61736532  0.40334751  0.82936891  1  0  -0.112844  0  3.737051  0  0  -0.13084  0  3.99789  0  0  -0.137081  0  4.01953  0  0  -0.088122  -0.125937  0  3.98121  0
C  C34  1  0.29805187  0.55660084  0.26940223  1  0  -0.056378  0  3.699008  0  0  -0.079005  0  3.945981  0  0  -0.077731  0  3.964204  0  0  -0.068309  -0.07918  0  3.932562  0
C  C35  1  0.70194081  0.44339567  0.73059332  1  0  -0.056424  0  3.699111  0  0  -0.079047  0  3.946077  0  0  -0.07777  0  3.964293  0  0  -0.068287  -0.07922  0  3.932651  0
C  C36  1  0.25475813  0.67647366  0.36912869  1  0  0.023602  0  3.807758  0  0  0.043492  0  4.030952  0  0  0.040761  0  4.056847  0  0  -0.004521  0.045388  0  4.012827  0
C  C37  1  0.74524246  0.32352989  0.63086960  1  0  0.023598  0  3.807803  0  0  0.043511  0  4.030943  0  0  0.040784  0  4.056837  0  0  -0.004539  0.045404  0  4.012829  0
C  C38  1  0.16739855  0.64159661  0.47366079  1  0  -0.112889  0  3.766433  0  0  -0.134479  0  4.017265  0  0  -0.138246  0  4.040408  0  0  -0.090471  -0.131237  0  4.001664  0
C  C39  1  0.83259414  0.35839989  0.52633568  1  0  -0.112873  0  3.766531  0  0  -0.134445  0  4.017358  0  0  -0.138212  0  4.040501  0  0  -0.090396  -0.131222  0  4.001729  0
C  C40  1  0.12447884  0.75904210  0.56805693  1  0  -0.104206  0  3.772328  0  0  -0.12866  0  4.03098  0  0  -0.131068  0  4.053466  0  0  -0.088888  -0.127157  0  4.016066  0
C  C41  1  0.87551871  0.24095910  0.43194260  1  0  -0.104226  0  3.772309  0  0  -0.128629  0  4.030946  0  0  -0.131036  0  4.053433  0  0  -0.088893  -0.127112  0  4.016048  0
C  C42  1  0.17194339  0.92069912  0.56725090  1  0  0.02009  0  3.795178  0  0  0.037205  0  4.027687  0  0  0.034493  0  4.051549  0  0  -0.00393  0.039134  0  4.011645  0
C  C43  1  0.82806171  0.07930084  0.43275517  1  0  0.020255  0  3.794947  0  0  0.037231  0  4.027646  0  0  0.03452  0  4.051505  0  0  -0.00389  0.039163  0  4.011598  0
C  C44  1  0.13563532  0.04401988  0.66730661  1  0  -0.036864  0  3.657509  0  0  -0.063376  0  3.906044  0  0  -0.060855  0  3.923638  0  0  -0.063722  -0.065468  0  3.894741  0
C  C45  1  0.86436764  0.95598247  0.33269617  1  0  -0.036911  0  3.657251  0  0  -0.063387  0  3.905844  0  0  -0.060865  0  3.923438  0  0  -0.063727  -0.065478  0  3.894541  0
C  C46  1  0.18771806  0.19830263  0.66392189  1  0  -0.107936  0  3.733536  0  0  -0.121439  0  3.987776  0  0  -0.128264  0  4.010374  0  0  -0.083906  -0.116925  0  3.973331  0
C  C47  1  0.81228422  0.80169616  0.33608474  1  0  -0.108026  0  3.733627  0  0  -0.121563  0  3.987922  0  0  -0.128386  0  4.010514  0  0  -0.083975  -0.11705  0  3.973475  0
C  C48  1  0.27301738  0.22782044  0.55945578  1  0  0.133081  0  3.712161  0  0  0.099939  0  3.966991  0  0  0.107576  0  3.985491  0  0  0.049575  0.094657  0  3.954879  0
C  C49  1  0.72698615  0.77217835  0.44054720  1  0  0.133098  0  3.712192  0  0  0.099957  0  3.967026  0  0  0.107596  0  3.985527  0  0  0.049518  0.094677  0  3.954911  0
C  C50  1  0.25920902  0.96095122  0.46504954  1  0  0.129049  0  3.728587  0  0  0.121851  0  3.964438  0  0  0.126649  0  3.985897  0  0  0.113974  0.119109  0  3.949087  0
C  C51  1  0.74079451  0.03904757  0.53495251  1  0  0.128927  0  3.728592  0  0  0.121766  0  3.964445  0  0  0.126564  0  3.985906  0  0  0.11388  0.119022  0  3.949095  0
C  C52  1  0.29918612  0.83541620  0.36238566  1  0  0.130718  0  3.738565  0  0  0.124113  0  3.974547  0  0  0.12803  0  3.996727  0  0  0.113709  0.121622  0  3.959086  0
C  C53  1  0.70081556  0.16458615  0.63761706  1  0  0.130777  0  3.738382  0  0  0.124183  0  3.974326  0  0  0.128092  0  3.99652  0  0  0.113744  0.121692  0  3.958867  0
N  N54  1  0.84788844  0.27479900  0.07714737  1  0  0.061445  0  3.589885  0  0  0.176904  0  3.778906  0  0  0.167036  0  3.801204  0  0  -0.121203  0.181897  0  3.76617  0
N  N55  1  0.15211425  0.72520217  0.92285144  1  0  0.061324  0  3.589895  0  0  0.176821  0  3.778873  0  0  0.166926  0  3.801221  0  0  -0.121264  0.181816  0  3.766135  0
N  N56  1  0.84096484  0.42242352  0.14785078  1  0  -0.113316  0  2.860144  0  0  -0.122636  0  3.139056  0  0  -0.122357  0  3.14978  0  0  -0.07062  -0.123131  0  3.132873  0
N  N57  1  0.15903680  0.57757884  0.85214823  1  0  -0.113292  0  2.860184  0  0  -0.122612  0  3.139082  0  0  -0.122326  0  3.149805  0  0  -0.070615  -0.123106  0  3.132895  0
N  N58  1  0.71015754  0.40991089  0.21624207  1  0  -0.058777  0  2.933278  0  0  -0.055176  0  3.237992  0  0  -0.053136  0  3.249635  0  0  -0.071911  -0.056575  0  3.230584  0
N  N59  1  0.28984209  0.59008794  0.78375704  1  0  -0.058804  0  2.933258  0  0  -0.055208  0  3.237986  0  0  -0.053166  0  3.249623  0  0  -0.071898  -0.056608  0  3.230577  0
N  N60  1  0.63203468  0.25568642  0.19124108  1  0  -0.242098  0  3.264763  0  0  -0.175544  0  3.597701  0  0  -0.191603  0  3.607475  0  0  -0.242995  -0.164678  0  3.59096  0
N  N61  1  0.36796493  0.74431241  0.80875617  1  0  -0.241899  0  3.264703  0  0  -0.175334  0  3.597615  0  0  -0.191391  0  3.60739  0  0  -0.242923  -0.164468  0  3.590871  0
N  N62  1  0.38062754  0.87231642  0.26379607  1  0  -0.332617  0  3.236571  0  0  -0.26911  0  3.519094  0  0  -0.284402  0  3.533352  0  0  -0.329667  -0.259087  0  3.509386  0
N  N63  1  0.61937516  0.12768475  0.73620459  1  0  -0.332661  0  3.236554  0  0  -0.269195  0  3.519104  0  0  -0.284483  0  3.533366  0  0  -0.329722  -0.259172  0  3.509397  0
N  N64  1  0.30697341  0.11377883  0.46233769  1  0  -0.318284  0  3.273182  0  0  -0.243998  0  3.552562  0  0  -0.261283  0  3.567555  0  0  -0.331929  -0.231832  0  3.541411  0
N  N65  1  0.69302674  0.88622235  0.53766564  1  0  -0.318244  0  3.273022  0  0  -0.243917  0  3.552326  0  0  -0.2612  0  3.567316  0  0  -0.331811  -0.231752  0  3.541176  0
O  O66  1  0.12525827  0.16768425  0.17352089  1  0  -0.648134  0  1.979245  0  0  -0.589435  0  2.236688  0  0  -0.615657  0  2.225836  0  0  -0.34016  -0.569522  0  2.242546  0
O  O67  1  0.87474205  0.83231813  0.82647436  1  0  -0.648105  0  1.979336  0  0  -0.589428  0  2.236797  0  0  -0.61565  0  2.225943  0  0  -0.340132  -0.569517  0  2.242657  0
O  O68  1  0.26591750  0.17036807  0.99563591  1  0  -0.639177  0  1.946106  0  0  -0.592696  0  2.177025  0  0  -0.618089  0  2.170251  0  0  -0.336294  -0.574119  0  2.180118  0
O  O69  1  0.73408103  0.82963196  0.00435784  1  0  -0.63921  0  1.945838  0  0  -0.592721  0  2.176777  0  0  -0.618114  0  2.170002  0  0  -0.336352  -0.574145  0  2.179871  0
