# generated using pymatgen
data_CuH18C24(NO4)2
_symmetry_space_group_name_H-M   'P 1'
_cell_length_a   8.18209873
_cell_length_b   11.03301077
_cell_length_c   15.56010874
_cell_angle_alpha   90.00023942
_cell_angle_beta   98.93687313
_cell_angle_gamma   89.99993202
_symmetry_Int_Tables_number   1
_chemical_formula_structural   CuH18C24(NO4)2
_chemical_formula_sum   'Cu2 H36 C48 N4 O16'
_cell_volume   1387.60810559
_cell_formula_units_Z   2
loop_
 _symmetry_equiv_pos_site_id
 _symmetry_equiv_pos_as_xyz
  1  'x, y, z'
loop_
 _atom_site_type_symbol
 _atom_site_label
 _atom_site_symmetry_multiplicity
 _atom_site_fract_x
 _atom_site_fract_y
 _atom_site_fract_z
 _atom_site_occupancy
 _atom_site_pbe_bader_charge
 _atom_site_pbe_bader_spin_density
 _atom_site_pbe_cm5_charge
 _atom_site_pbe_ddec_charge
 _atom_site_pbe_ddec_spin_density
 _atom_site_pbe_ddec_sum_bond_order
 _atom_site_pbe_magmom
Cu  Cu0  1  0.00000039  0.09657908  0.25000086  1  1.093571  0.568312  0.764055  0.793577  0.757768  2.221989  0.567
Cu  Cu1  1  0.99999974  0.90342196  0.74999953  1  1.093347  -0.568312  0.764043  0.79359  -0.757769  2.221993  -0.567
H  H2  1  0.79394839  0.91002143  0.31250397  1  0.151059  0.002292  0.127585  0.109387  0.001133  1.010632  0.002
H  H3  1  0.79396676  0.08998201  0.81251788  1  0.151241  -0.002293  0.127594  0.109435  -0.001133  1.010629  -0.002
H  H4  1  0.20603402  0.08997918  0.68748186  1  0.151207  -0.002293  0.127591  0.10943  -0.001133  1.01064  -0.002
H  H5  1  0.20605253  0.91002042  0.18749612  1  0.151065  0.002292  0.127586  0.10939  0.001133  1.010665  0.002
H  H6  1  0.78797964  0.68631189  0.31880599  1  0.091616  0.00111  0.113041  0.123616  0.000599  1.017898  0.001
H  H7  1  0.78799909  0.31369340  0.81881937  1  0.091185  -0.00111  0.113098  0.123666  -0.000599  1.017918  -0.001
H  H8  1  0.21200276  0.31369144  0.68118047  1  0.091179  -0.00111  0.113095  0.123637  -0.000599  1.017917  -0.001
H  H9  1  0.21201650  0.68630993  0.18119238  1  0.091558  0.00111  0.113037  0.123596  0.000599  1.017972  0.001
H  H10  1  0.75010702  0.28370812  0.25796984  1  0.142989  0.001732  0.127469  0.1044  0.000816  0.988874  0.001
H  H11  1  0.75010899  0.71629323  0.75796752  1  0.144128  -0.001731  0.127476  0.104413  -0.000816  0.988869  -0.001
H  H12  1  0.24989135  0.71629340  0.74203018  1  0.144123  -0.001731  0.127459  0.10435  -0.000816  0.988925  -0.001
H  H13  1  0.24989064  0.28370829  0.24203004  1  0.14302  0.001732  0.127471  0.104414  0.000816  0.98885  0.001
H  H14  1  0.73762186  0.50989570  0.25607879  1  0.094096  0.001107  0.117324  0.124534  0.000596  0.987029  0.001
H  H15  1  0.73762399  0.49010656  0.75607710  1  0.094004  -0.001107  0.117334  0.124516  -0.000596  0.987091  -0.001
H  H16  1  0.26237899  0.49010673  0.74392080  1  0.093955  -0.001107  0.117327  0.124541  -0.000596  0.987014  -0.001
H  H17  1  0.26237564  0.50989496  0.24392046  1  0.09412  0.001107  0.117327  0.124515  0.000596  0.987056  0.001
H  H18  1  0.75048749  0.18652275  0.96143223  1  0.64586  3e-06  0.295848  0.341132  1e-06  1.000111  0.0
H  H19  1  0.75049509  0.81346620  0.46142986  1  0.645596  -3e-06  0.295861  0.341124  -1e-06  1.00008  0.0
H  H20  1  0.24950343  0.81346608  0.03856910  1  0.645517  -3e-06  0.295868  0.341151  -1e-06  1.00002  0.0
H  H21  1  0.24951073  0.18653351  0.53856822  1  0.64594  3e-06  0.295884  0.341193  1e-06  1.0  0.0
H  H22  1  0.32824223  0.21897889  0.86706859  1  0.03858  0.000387  0.095761  0.108402  0.000201  1.025463  0.0
H  H23  1  0.32825109  0.78101077  0.36706623  1  0.038885  -0.000387  0.095714  0.108334  -0.000201  1.025495  0.0
H  H24  1  0.67174869  0.78101266  0.13293338  1  0.038896  -0.000387  0.095678  0.108264  -0.000201  1.025566  0.0
H  H25  1  0.67175472  0.21898531  0.63293314  1  0.03895  0.000387  0.095714  0.108305  0.000201  1.025507  0.0
H  H26  1  0.10464578  0.17221775  0.95395744  1  0.061109  2.3e-05  0.100167  0.114578  3.3e-05  1.012345  0.0
H  H27  1  0.10465340  0.82777987  0.45395062  1  0.061091  -2.3e-05  0.100174  0.114562  -3.3e-05  1.012379  0.0
H  H28  1  0.89534510  0.82778105  0.04604902  1  0.061099  -2.3e-05  0.100145  0.114532  -3.3e-05  1.012479  0.0
H  H29  1  0.89535119  0.17221712  0.54604607  1  0.061088  2.3e-05  0.100148  0.114522  3.3e-05  1.012515  0.0
H  H30  1  0.03871088  0.11687767  0.08611022  1  0.634541  2.4e-05  0.289626  0.3375  -5.4e-05  1.022582  0.0
H  H31  1  0.03871154  0.88312148  0.58610315  1  0.634468  -2.4e-05  0.289591  0.337429  5.4e-05  1.022676  0.0
H  H32  1  0.96128867  0.88312022  0.91389568  1  0.634491  -2.4e-05  0.289587  0.337442  5.4e-05  1.022654  0.0
H  H33  1  0.96128935  0.11687914  0.41389258  1  0.634518  2.4e-05  0.289598  0.337433  -5.4e-05  1.022678  0.0
H  H34  1  0.47104963  0.08371997  0.17440146  1  0.105028  0.000321  0.105833  0.128936  0.000284  1.003571  0.0
H  H35  1  0.47105025  0.91628385  0.67439642  1  0.105663  -0.000321  0.105826  0.128919  -0.000284  1.003598  0.0
H  H36  1  0.52894993  0.91628245  0.82560316  1  0.105113  -0.000321  0.10584  0.128949  -0.000284  1.00356  0.0
H  H37  1  0.52895063  0.08372130  0.32559996  1  0.105594  0.000321  0.105822  0.128925  0.000284  1.003553  0.0
C  C38  1  0.88416342  0.85603696  0.28478807  1  0.545357  -0.00113  0.057942  0.105143  2.5e-05  3.904604  -0.001
C  C39  1  0.88417438  0.14396806  0.78479509  1  0.545172  0.001129  0.057796  0.104825  -2.5e-05  3.904783  0.001
C  C40  1  0.11582636  0.14396638  0.71520416  1  0.545167  0.001129  0.057818  0.104819  -2.5e-05  3.904753  0.001
C  C41  1  0.11583629  0.85603618  0.21521239  1  0.545396  -0.00113  0.057896  0.105028  2.5e-05  3.904596  -0.001
C  C42  1  0.88167780  0.73017014  0.28692678  1  -0.066131  0.005631  -0.073621  -0.165279  0.003857  3.91479  0.005
C  C43  1  0.88168867  0.26983489  0.78693481  1  -0.065701  -0.00563  -0.073487  -0.165129  -0.003857  3.914846  -0.005
C  C44  1  0.11831322  0.26983410  0.71306427  1  -0.065671  -0.00563  -0.073483  -0.165043  -0.003857  3.914787  -0.005
C  C45  1  0.11831954  0.73016845  0.21307183  1  -0.066064  0.005631  -0.073548  -0.165097  0.003857  3.914713  0.005
C  C46  1  0.99999897  0.66415399  0.24999902  1  -0.015111  -0.003365  0.015287  0.100604  -0.002282  3.978267  -0.002
C  C47  1  0.00000119  0.33584706  0.74999945  1  -0.015095  0.003364  0.015191  0.100655  0.002282  3.9783  0.002
C  C48  1  0.85971724  0.33847099  0.25457170  1  0.484495  -0.001109  0.057471  0.108973  -9.8e-05  3.918376  -0.001
C  C49  1  0.85971925  0.66153024  0.75457051  1  0.483323  0.001109  0.057456  0.108972  9.8e-05  3.918412  0.001
C  C50  1  0.14028238  0.66153143  0.74542714  1  0.483297  0.001109  0.057493  0.109089  9.8e-05  3.918347  0.001
C  C51  1  0.14028037  0.33847218  0.24542898  1  0.484499  -0.001109  0.057482  0.108971  -9.8e-05  3.918358  -0.001
C  C52  1  0.85498818  0.46420820  0.25422545  1  -0.032197  0.004831  -0.072954  -0.160577  0.00336  3.918153  0.004
C  C53  1  0.85499026  0.53579394  0.75422518  1  -0.031995  -0.004831  -0.072968  -0.160544  -0.00336  3.918194  -0.004
C  C54  1  0.14501021  0.53579422  0.74577264  1  -0.031962  -0.004831  -0.072988  -0.160588  -0.00336  3.918096  -0.004
C  C55  1  0.14500935  0.46420758  0.24577430  1  -0.032183  0.00483  -0.072954  -0.160567  0.003359  3.918137  0.004
C  C56  1  0.99999847  0.53047200  0.24999984  1  -0.026903  -0.003207  0.018609  0.110633  -0.002172  3.97395  -0.002
C  C57  1  0.99999991  0.46953133  0.74999889  1  -0.027005  0.003207  0.018706  0.110587  0.002173  3.973954  0.002
C  C58  1  0.74164629  0.12656288  0.09838565  1  1.479763  6.8e-05  0.210648  0.584977  0.001297  4.171317  -0.002
C  C59  1  0.74165062  0.87343120  0.59838400  1  1.480013  -6.6e-05  0.210749  0.585167  -0.001296  4.171237  0.002
C  C60  1  0.25835082  0.87342867  0.90161620  1  1.480018  -6.7e-05  0.210735  0.585188  -0.001296  4.171441  0.002
C  C61  1  0.25835270  0.12656942  0.40161580  1  1.479717  6.8e-05  0.210713  0.585096  0.001296  4.171303  -0.002
C  C62  1  0.56615083  0.14065781  0.05893889  1  0.059716  0.009527  -0.043657  -0.176622  0.007051  4.028802  0.008
C  C63  1  0.56615517  0.85933890  0.55893656  1  0.059632  -0.009527  -0.043725  -0.176832  -0.007051  4.028785  -0.008
C  C64  1  0.43384257  0.85933736  0.94106264  1  0.059556  -0.009527  -0.04369  -0.176783  -0.00705  4.028821  -0.008
C  C65  1  0.43384940  0.14066443  0.44106205  1  0.059967  0.009526  -0.043652  -0.176678  0.007051  4.028686  0.008
C  C66  1  0.52517586  0.17920756  0.97126361  1  0.518146  0.001527  0.074955  0.288505  0.000972  4.075459  0.001
C  C67  1  0.52518345  0.82078618  0.47126062  1  0.518202  -0.001527  0.074984  0.288477  -0.000972  4.075148  -0.001
C  C68  1  0.47481630  0.82078581  0.02873846  1  0.518227  -0.001527  0.075018  0.288519  -0.000971  4.075093  -0.001
C  C69  1  0.47482360  0.17921716  0.52873756  1  0.517032  0.001528  0.074972  0.288464  0.000972  4.075253  0.001
C  C70  1  0.35831902  0.19110726  0.93481407  1  -0.04077  0.000821  -0.113601  -0.187745  0.00059  4.017232  0.001
C  C71  1  0.35832663  0.80888730  0.43481040  1  -0.041226  -0.000821  -0.113527  -0.187593  -0.00059  4.017255  -0.001
C  C72  1  0.64167436  0.80888610  0.06518939  1  -0.04122  -0.000821  -0.113497  -0.18752  -0.00059  4.017291  -0.001
C  C73  1  0.64168166  0.19111331  0.56518788  1  -0.04034  0.000821  -0.113502  -0.187528  0.00059  4.017258  0.001
C  C74  1  0.23415048  0.16486893  0.98340414  1  -0.031651  -0.000492  -0.106163  -0.182112  -0.000322  3.994372  0.0
C  C75  1  0.23415561  0.83513056  0.48339777  1  -0.031641  0.000492  -0.106181  -0.182131  0.000322  3.994523  0.0
C  C76  1  0.76584537  0.83512987  0.01660081  1  -0.031657  0.000493  -0.106103  -0.182056  0.000322  3.994625  0.0
C  C77  1  0.76585021  0.16487186  0.51659966  1  -0.03138  -0.000492  -0.106114  -0.182061  -0.000322  3.994605  0.0
C  C78  1  0.27363521  0.12625212  0.07037544  1  0.542722  5.5e-05  0.063158  0.302408  5e-05  4.100883  0.0
C  C79  1  0.27363834  0.87375127  0.57036920  1  0.543005  -5.6e-05  0.063175  0.302389  -5e-05  4.100614  0.0
C  C80  1  0.72636063  0.87375031  0.92963015  1  0.543001  -5.6e-05  0.063137  0.30236  -5e-05  4.100673  0.0
C  C81  1  0.72636501  0.12625297  0.42962739  1  0.542981  5.6e-05  0.063097  0.302277  5e-05  4.100925  0.0
C  C82  1  0.43895262  0.11497690  0.10751147  1  -0.074241  1.9e-05  -0.106344  -0.204366  7.1e-05  3.962758  0.0
C  C83  1  0.43895698  0.88502565  0.60750600  1  -0.074166  -1.9e-05  -0.106308  -0.204227  -7e-05  3.962709  0.0
C  C84  1  0.56104322  0.88502462  0.89249349  1  -0.074159  -1.9e-05  -0.106332  -0.20431  -7.1e-05  3.962723  0.0
C  C85  1  0.56104761  0.11497949  0.39249069  1  -0.074178  1.9e-05  -0.106313  -0.204291  7e-05  3.962771  0.0
N  N86  1  0.00000010  0.91745928  0.25000013  1  -1.19147  0.085999  -0.346742  -0.21632  0.059432  3.611139  0.074
N  N87  1  0.00000004  0.08254540  0.74999961  1  -1.191404  -0.085995  -0.34681  -0.21622  -0.05943  3.611165  -0.074
N  N88  1  0.99999909  0.27667952  0.25000038  1  -1.223457  0.078401  -0.346569  -0.22803  0.054511  3.619149  0.069
N  N89  1  0.99999982  0.72332334  0.74999862  1  -1.223436  -0.078409  -0.34658  -0.228107  -0.054516  3.619223  -0.069
O  O90  1  0.77413300  0.09482380  0.17852513  1  -1.119127  0.108571  -0.319232  -0.541967  0.072094  2.364055  0.099
O  O91  1  0.77413607  0.90517434  0.67852283  1  -1.119076  -0.108575  -0.31921  -0.541987  -0.072096  2.364146  -0.099
O  O92  1  0.22586412  0.90516956  0.82147671  1  -1.119034  -0.108578  -0.319236  -0.54203  -0.072097  2.364214  -0.099
O  O93  1  0.22586727  0.09482537  0.32147568  1  -1.119144  0.108584  -0.319242  -0.542028  0.072102  2.364164  0.099
O  O94  1  0.85343682  0.14825577  0.05069408  1  -1.181771  0.001985  -0.310238  -0.543364  0.001041  2.246404  0.002
O  O95  1  0.85343868  0.85173158  0.55069409  1  -1.181882  -0.001984  -0.310309  -0.543452  -0.001041  2.246395  -0.002
O  O96  1  0.14656156  0.85172943  0.94930466  1  -1.181808  -0.001984  -0.310326  -0.543487  -0.00104  2.246407  -0.002
O  O97  1  0.14656464  0.14826359  0.44930635  1  -1.18184  0.001985  -0.310316  -0.543457  0.001041  2.246445  0.002
O  O98  1  0.64293864  0.20456580  0.92131756  1  -1.18365  -0.000299  -0.367807  -0.476685  -0.000238  2.318301  0.0
O  O99  1  0.64294746  0.79542391  0.42131653  1  -1.183595  0.000299  -0.367891  -0.476661  0.000238  2.318031  0.0
O  O100  1  0.35705353  0.79542393  0.07868386  1  -1.183562  0.000299  -0.367897  -0.476693  0.000238  2.31796  0.0
O  O101  1  0.35706082  0.20457852  0.57868240  1  -1.183875  -0.000299  -0.367868  -0.476691  -0.000238  2.318067  0.0
O  O102  1  0.15311130  0.09703907  0.11850655  1  -1.184227  -0.000366  -0.375543  -0.524038  -0.000291  2.453577  0.001
O  O103  1  0.15311319  0.90296651  0.61849964  1  -1.184253  0.000366  -0.375522  -0.523969  0.00029  2.453454  -0.001
O  O104  1  0.84688576  0.90296698  0.88150043  1  -1.184267  0.000366  -0.375509  -0.52397  0.000291  2.453419  -0.001
O  O105  1  0.84689016  0.09703773  0.38149759  1  -1.184362  -0.000366  -0.375527  -0.523936  -0.000291  2.453558  0.001
