# generated using pymatgen
data_CuH20C28(NO4)2
_symmetry_space_group_name_H-M   'P 1'
_cell_length_a   11.88189562
_cell_length_b   11.90625618
_cell_length_c   12.24300000
_cell_angle_alpha   65.87895904
_cell_angle_beta   65.82634991
_cell_angle_gamma   67.42536206
_symmetry_Int_Tables_number   1
_chemical_formula_structural   CuH20C28(NO4)2
_chemical_formula_sum   'Cu2 H40 C56 N4 O16'
_cell_volume   1392.53221682
_cell_formula_units_Z   2
loop_
 _symmetry_equiv_pos_site_id
 _symmetry_equiv_pos_as_xyz
  1  'x, y, z'
loop_
 _atom_site_type_symbol
 _atom_site_label
 _atom_site_symmetry_multiplicity
 _atom_site_fract_x
 _atom_site_fract_y
 _atom_site_fract_z
 _atom_site_occupancy
 _atom_site_pbe_bader_charge
 _atom_site_pbe_bader_spin_density
 _atom_site_pbe_cm5_charge
 _atom_site_pbe_ddec_charge
 _atom_site_pbe_ddec_spin_density
 _atom_site_pbe_ddec_sum_bond_order
 _atom_site_pbe_magmom
Cu  Cu0  1  0.16870920  0.83124899  0.75003475  1  1.109185  0.579046  0.70115  0.919487  0.738741  2.070916  0.578
Cu  Cu1  1  0.83129119  0.16875057  0.24996478  1  1.10914  0.579088  0.701191  0.919561  0.738774  2.071033  0.578
H  H2  1  0.87762493  0.02680704  0.56261090  1  0.169067  0.000282  0.127958  0.150927  0.000215  0.971846  0.0
H  H3  1  0.97308136  0.12292566  0.93730563  1  0.173604  0.000286  0.128001  0.151359  0.000218  0.971542  0.0
H  H4  1  0.12237830  0.97318871  0.43739391  1  0.169076  0.000282  0.127919  0.150908  0.000215  0.971868  0.0
H  H5  1  0.02692322  0.87707200  0.06268728  1  0.173698  0.000286  0.127983  0.151306  0.000218  0.9716  0.0
H  H6  1  0.67081678  0.11356397  0.50841263  1  0.223743  -0.000168  0.136145  0.12281  -0.00032  1.041818  0.0
H  H7  1  0.88636306  0.32928881  0.99169235  1  0.223254  -0.000161  0.135957  0.122898  -0.000307  1.042189  0.0
H  H8  1  0.32918595  0.88643369  0.49158918  1  0.223783  -0.000167  0.136143  0.122783  -0.000319  1.041835  0.0
H  H9  1  0.11363875  0.67070884  0.00830656  1  0.223306  -0.00016  0.13595  0.12292  -0.000306  1.042155  0.0
H  H10  1  0.46718534  0.96297882  0.87779807  1  0.141863  0.000159  0.13668  0.114864  7.9e-05  0.971843  0.0
H  H11  1  0.03716408  0.53219339  0.62224699  1  0.144967  0.000161  0.136621  0.115068  8e-05  0.972342  0.0
H  H12  1  0.53281548  0.03702265  0.12220217  1  0.141764  0.00016  0.136664  0.114825  7.9e-05  0.971876  0.0
H  H13  1  0.96283415  0.46781093  0.37775477  1  0.145066  0.000162  0.136641  0.1151  8.1e-05  0.972304  0.0
H  H14  1  0.66670651  0.87147671  0.94662711  1  0.131952  6.4e-05  0.115858  0.125492  1.3e-05  1.012979  0.0
H  H15  1  0.12862985  0.33317911  0.55323828  1  0.129322  6.6e-05  0.115796  0.125564  1.4e-05  1.012758  0.0
H  H16  1  0.33329338  0.12852476  0.05337513  1  0.131897  6.4e-05  0.115851  0.125504  1.3e-05  1.01301  0.0
H  H17  1  0.87136838  0.66682522  0.44675858  1  0.129332  6.6e-05  0.115782  0.125562  1.4e-05  1.012845  0.0
H  H18  1  0.47101182  0.10947925  0.55802560  1  0.168368  -3.3e-05  0.124151  0.136901  -6e-06  1.016977  0.0
H  H19  1  0.89061826  0.52889017  0.94197085  1  0.169352  -3.4e-05  0.124299  0.136841  -8e-06  1.017101  0.0
H  H20  1  0.52898850  0.89052413  0.44197571  1  0.168346  -3.3e-05  0.124173  0.136905  -6e-06  1.016968  0.0
H  H21  1  0.10937543  0.47111035  0.05802852  1  0.169316  -3.4e-05  0.124283  0.136825  -8e-06  1.017123  0.0
H  H22  1  0.38408614  0.03439322  0.71341454  1  0.122542  -2.2e-05  0.119807  0.120067  -4e-05  0.978325  0.0
H  H23  1  0.96624452  0.61525921  0.78655412  1  0.111699  -2.2e-05  0.119882  0.120049  -4.1e-05  0.978797  0.0
H  H24  1  0.61591610  0.96560634  0.28658834  1  0.122524  -2.2e-05  0.1198  0.120076  -4e-05  0.978367  0.0
H  H25  1  0.03375403  0.38474036  0.21344450  1  0.111679  -2.2e-05  0.119871  0.120025  -4.1e-05  0.978801  0.0
H  H26  1  0.46811461  0.33487076  0.49351154  1  0.095542  9.2e-05  0.105485  0.117383  6.3e-05  1.004066  0.0
H  H27  1  0.66504725  0.53200755  0.00634050  1  0.096654  9e-05  0.105195  0.117028  6.1e-05  1.003611  0.0
H  H28  1  0.53188769  0.66512500  0.50649038  1  0.095592  9.2e-05  0.105484  0.117376  6.2e-05  1.004072  0.0
H  H29  1  0.33495566  0.46799296  0.99365928  1  0.096343  9e-05  0.105191  0.11702  6.1e-05  1.003568  0.0
H  H30  1  0.36889196  0.54489167  0.53927984  1  0.081808  0.000606  0.102601  0.107894  0.000476  1.013203  0.0
H  H31  1  0.45454466  0.63125499  0.96079135  1  0.101311  0.000599  0.102613  0.107949  0.000474  1.012733  0.0
H  H32  1  0.63110935  0.45510790  0.46072095  1  0.081815  0.000607  0.102602  0.107905  0.000476  1.013157  0.0
H  H33  1  0.54545481  0.36874457  0.03920936  1  0.101317  0.000599  0.102612  0.107954  0.000474  1.012711  0.0
H  H34  1  0.18362246  0.35589095  0.92027783  1  0.142135  1.7e-05  0.105582  0.114545  -4e-06  1.013574  0.0
H  H35  1  0.64422112  0.81624246  0.57991624  1  0.143353  1.5e-05  0.105622  0.115166  -5e-06  1.013566  0.0
H  H36  1  0.81637946  0.64411337  0.07972165  1  0.142072  1.7e-05  0.105572  0.114555  -4e-06  1.013588  0.0
H  H37  1  0.35577356  0.18375424  0.42008425  1  0.142942  1.5e-05  0.105627  0.115145  -5e-06  1.013608  0.0
H  H38  1  0.27509242  0.15022924  0.87585574  1  0.086132  0.000188  0.100171  0.106835  0.000106  1.027586  0.0
H  H39  1  0.85037428  0.72472607  0.62411573  1  0.084846  0.000185  0.100212  0.107024  0.000105  1.026709  0.0
H  H40  1  0.72490471  0.84977223  0.12414678  1  0.086163  0.000188  0.10014  0.106823  0.000106  1.02759  0.0
H  H41  1  0.14962359  0.27527254  0.37588191  1  0.084916  0.000185  0.100239  0.10708  0.000105  1.026707  0.0
C  C42  1  0.90650699  0.88743724  0.80024382  1  1.621113  -0.000661  0.196486  0.549316  -0.00057  4.252879  -0.002
C  C43  1  0.11257058  0.09365692  0.69965559  1  1.620267  -0.000663  0.196868  0.54991  -0.000558  4.250928  -0.002
C  C44  1  0.09349500  0.11256328  0.19975143  1  1.621344  -0.000661  0.19644  0.549209  -0.00057  4.252882  -0.002
C  C45  1  0.88742814  0.90634550  0.30034591  1  1.620213  -0.000662  0.196953  0.550033  -0.000559  4.251071  -0.002
C  C46  1  0.78641208  0.94441745  0.75995596  1  -0.023601  0.008544  0.022227  0.041776  0.005829  3.886259  0.006
C  C47  1  0.05562173  0.21367772  0.73996452  1  -0.023999  0.008691  0.022067  0.041938  0.00593  3.884904  0.007
C  C48  1  0.21358856  0.05558116  0.24004548  1  -0.023642  0.008545  0.022261  0.041814  0.00583  3.886194  0.006
C  C49  1  0.94437718  0.78632756  0.26003169  1  -0.024152  0.008689  0.022118  0.042117  0.005929  3.884668  0.007
C  C50  1  0.78861071  0.01315859  0.63568315  1  0.061239  0.000167  -0.051902  -0.100695  -6e-06  3.868867  0.0
C  C51  1  0.98676579  0.21170684  0.86425779  1  0.058317  0.000153  -0.05232  -0.101827  -2.2e-05  3.86928  0.0
C  C52  1  0.21139061  0.98684097  0.36431846  1  0.061384  0.000167  -0.05189  -0.10072  -7e-06  3.868934  0.0
C  C53  1  0.01323411  0.78829463  0.13573791  1  0.058351  0.000153  -0.052283  -0.101808  -2.2e-05  3.869232  0.0
C  C54  1  0.67614902  0.06199510  0.60383145  1  0.400456  0.00066  0.083018  0.07031  0.00035  3.766221  0.0
C  C55  1  0.93796218  0.32395180  0.89620950  1  0.399439  0.000654  0.083504  0.07089  0.000348  3.764158  0.0
C  C56  1  0.32385155  0.93800732  0.39617014  1  0.400337  0.000661  0.083061  0.070392  0.000351  3.766252  0.0
C  C57  1  0.06203452  0.67604776  0.10378986  1  0.399389  0.000654  0.083529  0.070922  0.000348  3.764177  0.0
C  C58  1  0.56037042  0.97545884  0.81373188  1  0.296411  0.000508  0.0618  0.027802  0.000279  3.882559  0.0
C  C59  1  0.02467035  0.43923410  0.68628525  1  0.299296  0.000515  0.061578  0.027179  0.000286  3.883129  0.0
C  C60  1  0.43963083  0.02454453  0.18626906  1  0.296474  0.000508  0.061874  0.027948  0.000279  3.882423  0.0
C  C61  1  0.97532678  0.56076737  0.31371400  1  0.299143  0.000516  0.061588  0.027233  0.000286  3.883107  0.0
C  C62  1  0.66965117  0.92628305  0.84976460  1  0.096456  0.001347  -0.067914  -0.1317  0.000791  3.964215  0.001
C  C63  1  0.07380723  0.33016942  0.65018539  1  0.096556  0.00134  -0.068041  -0.132123  0.000785  3.96306  0.001
C  C64  1  0.33034897  0.07371746  0.15023710  1  0.096616  0.001347  -0.067938  -0.131762  0.000791  3.964263  0.001
C  C65  1  0.92618891  0.66983586  0.34981274  1  0.096758  0.001339  -0.068058  -0.132272  0.000785  3.963009  0.001
C  C66  1  0.44428064  0.10099531  0.65751309  1  0.208702  -1e-05  -0.050993  -0.150092  -1.9e-05  3.823953  0.0
C  C67  1  0.89933387  0.55537794  0.84247494  1  0.217766  -1.1e-05  -0.051608  -0.149847  -2e-05  3.824367  0.0
C  C68  1  0.55572067  0.89900426  0.34248933  1  0.208702  -1e-05  -0.050929  -0.15002  -1.8e-05  3.824001  0.0
C  C69  1  0.10066585  0.44462067  0.15752360  1  0.217776  -1.1e-05  -0.051537  -0.149736  -2e-05  3.824297  0.0
C  C70  1  0.38087615  0.22840787  0.68193990  1  -0.043824  -0.000573  -0.016271  0.090408  -0.000644  3.990348  0.0
C  C71  1  0.77180993  0.61901799  0.81796857  1  -0.044888  -0.000571  -0.016443  0.089912  -0.000642  3.99104  0.0
C  C72  1  0.61912307  0.77159265  0.31806135  1  -0.043811  -0.000574  -0.016252  0.090385  -0.000645  3.990304  0.0
C  C73  1  0.22819028  0.38097872  0.18202971  1  -0.044909  -0.000572  -0.016491  0.089805  -0.000643  3.991207  0.0
C  C74  1  0.40564648  0.34024303  0.58699517  1  -0.01759  0.000186  -0.091857  -0.139098  5e-05  3.963273  0.0
C  C75  1  0.65965365  0.59440293  0.91295062  1  -0.016645  0.000184  -0.091259  -0.138575  4.7e-05  3.963695  0.0
C  C76  1  0.59435558  0.65975368  0.41300647  1  -0.01761  0.000186  -0.091855  -0.139059  5e-05  3.963131  0.0
C  C77  1  0.34034749  0.40559378  0.08704893  1  -0.016279  0.000183  -0.091264  -0.138564  4.6e-05  3.963641  0.0
C  C78  1  0.35111045  0.45709498  0.61233461  1  -0.038528  -4.7e-05  -0.086544  -0.09111  -0.000155  3.973798  0.0
C  C79  1  0.54257842  0.64897577  0.88771714  1  -0.059377  -3.1e-05  -0.086999  -0.091411  -0.000145  3.973909  0.0
C  C80  1  0.64889295  0.54290363  0.38766328  1  -0.038588  -4.6e-05  -0.086604  -0.091183  -0.000154  3.973836  0.0
C  C81  1  0.45742272  0.35102093  0.11228404  1  -0.059347  -2.9e-05  -0.087021  -0.091433  -0.000142  3.973853  0.0
C  C82  1  0.27270608  0.46323445  0.73304340  1  -0.055952  0.008256  -0.022468  -0.040184  0.005737  3.978087  0.007
C  C83  1  0.53664176  0.72729736  0.76706683  1  -0.056371  0.008079  -0.022454  -0.039567  0.00562  3.979279  0.006
C  C84  1  0.72729456  0.53676416  0.26695559  1  -0.055988  0.008256  -0.022468  -0.040206  0.005737  3.978129  0.007
C  C85  1  0.46335728  0.27270030  0.23293726  1  -0.056329  0.008078  -0.022449  -0.039639  0.00562  3.979355  0.006
C  C86  1  0.24725251  0.35127063  0.82729063  1  -0.132241  0.000288  -0.089257  -0.093405  -1.7e-05  3.986235  0.0
C  C87  1  0.64888082  0.75267771  0.67280711  1  -0.140288  0.000282  -0.089331  -0.094992  -2e-05  3.988048  0.0
C  C88  1  0.75274806  0.64873180  0.17270851  1  -0.132233  0.000289  -0.089251  -0.093447  -1.6e-05  3.986324  0.0
C  C89  1  0.35111705  0.24732090  0.32719298  1  -0.139829  0.000283  -0.089346  -0.09493  -1.9e-05  3.988067  0.0
C  C90  1  0.30013313  0.23508199  0.80175411  1  -0.073163  0.00064  -0.099254  -0.157287  0.00041  4.010585  0.0
C  C91  1  0.76529816  0.69974028  0.69824428  1  -0.062368  0.000631  -0.098921  -0.15647  0.000405  4.009604  0.0
C  C92  1  0.69986567  0.76491662  0.19824806  1  -0.073126  0.000641  -0.099208  -0.157201  0.000411  4.010609  0.0
C  C93  1  0.23469996  0.30025738  0.30175364  1  -0.062437  0.000632  -0.098918  -0.15648  0.000406  4.009622  0.0
C  C94  1  0.21451909  0.58696066  0.76476008  1  1.582977  -0.00225  0.191396  0.551104  -0.002904  4.25235  -0.004
C  C95  1  0.41281876  0.78553464  0.73534822  1  1.581091  -0.002241  0.191171  0.550377  -0.00291  4.252872  -0.004
C  C96  1  0.78548382  0.41303986  0.23523317  1  1.583063  -0.002248  0.191376  0.551103  -0.002903  4.252431  -0.004
C  C97  1  0.58717617  0.21446112  0.26466235  1  1.58083  -0.00224  0.191215  0.550545  -0.00291  4.252979  -0.004
N  N98  1  0.56505391  0.04253121  0.69252278  1  -1.226286  0.000372  -0.201892  0.111692  0.000214  3.716326  0.0
N  N99  1  0.95756866  0.43473100  0.80754294  1  -1.229362  0.000355  -0.201513  0.111553  0.000201  3.715446  0.0
N  N100  1  0.43494666  0.95747121  0.30747880  1  -1.226295  0.000373  -0.201987  0.111552  0.000214  3.716319  0.0
N  N101  1  0.04242964  0.56526952  0.19245704  1  -1.229336  0.000355  -0.201559  0.111463  0.000201  3.715601  0.0
O  O102  1  0.89457951  0.85264660  0.91441806  1  -1.150961  0.00089  -0.314675  -0.538628  -0.000356  2.134703  0.001
O  O103  1  0.14732842  0.10558800  0.58545783  1  -1.150536  0.000916  -0.314826  -0.538782  -0.000343  2.134162  0.001
O  O104  1  0.10542751  0.14735583  0.08557932  1  -1.151069  0.00089  -0.31461  -0.538521  -0.000354  2.134812  0.001
O  O105  1  0.85266907  0.89441919  0.41453574  1  -1.15047  0.000914  -0.314812  -0.538758  -0.000342  2.13448  0.001
O  O106  1  0.01039525  0.88117769  0.70775408  1  -1.111602  0.086412  -0.330362  -0.551145  0.055161  2.335316  0.078
O  O107  1  0.11880574  0.98998886  0.79199972  1  -1.112786  0.086963  -0.330349  -0.551847  0.055519  2.329889  0.078
O  O108  1  0.98960649  0.11882378  0.29223925  1  -1.111637  0.086391  -0.330371  -0.551127  0.055148  2.335251  0.078
O  O109  1  0.88119617  0.01001547  0.20799731  1  -1.112768  0.086956  -0.330406  -0.551979  0.055516  2.329842  0.078
O  O110  1  0.14374601  0.58628019  0.87446113  1  -1.194507  0.001754  -0.321439  -0.574055  0.000196  2.240276  0.002
O  O111  1  0.41355505  0.85621477  0.62572073  1  -1.193315  0.001609  -0.321432  -0.573995  9e-05  2.239338  0.002
O  O112  1  0.85625389  0.41372128  0.12553457  1  -1.194654  0.001752  -0.321337  -0.573936  0.000193  2.240441  0.002
O  O113  1  0.58643477  0.14378289  0.37429192  1  -1.193405  0.001607  -0.321412  -0.574044  8.9e-05  2.239449  0.002
O  O114  1  0.24118349  0.68759191  0.67609066  1  -1.116543  0.103033  -0.334711  -0.552284  0.065847  2.295698  0.092
O  O115  1  0.31192179  0.75894488  0.82404293  1  -1.116252  0.102271  -0.334962  -0.551304  0.065373  2.300349  0.091
O  O116  1  0.75881967  0.31240766  0.32390368  1  -1.116387  0.103021  -0.334775  -0.552376  0.065841  2.295664  0.092
O  O117  1  0.68807623  0.24104610  0.17596912  1  -1.115964  0.102263  -0.335004  -0.551377  0.065371  2.30044  0.091
