# generated using pymatgen
data_NiH12C18(NO2)2
_symmetry_space_group_name_H-M   'P 1'
_cell_length_a   8.58648387
_cell_length_b   10.11256362
_cell_length_c   10.46621335
_cell_angle_alpha   78.85740067
_cell_angle_beta   69.18992171
_cell_angle_gamma   82.50266925
_symmetry_Int_Tables_number   1
_chemical_formula_structural   NiH12C18(NO2)2
_chemical_formula_sum   'Ni2 H24 C36 N4 O8'
_cell_volume   831.59897331
_cell_formula_units_Z   2
loop_
 _symmetry_equiv_pos_site_id
 _symmetry_equiv_pos_as_xyz
  1  'x, y, z'
loop_
 _atom_site_type_symbol
 _atom_site_label
 _atom_site_symmetry_multiplicity
 _atom_site_fract_x
 _atom_site_fract_y
 _atom_site_fract_z
 _atom_site_occupancy
 _atom_site_pbe_bader_charge
 _atom_site_pbe_bader_spin_density
 _atom_site_pbe_cm5_charge
 _atom_site_pbe_ddec_charge
 _atom_site_pbe_ddec_spin_density
 _atom_site_pbe_ddec_sum_bond_order
 _atom_site_pbe_magmom
Ni  Ni0  1  0.92788568  0.87650483  0.88232918  1  1.049619  0.008585  0.63466  0.630222  0.010543  2.730721  0.01
Ni  Ni1  1  0.07211479  0.12349514  0.11766844  1  1.049738  0.008585  0.634694  0.63027  0.010538  2.73074  0.01
H  H2  1  0.88214270  0.42575908  0.93288560  1  0.090764  9.5e-05  0.108421  0.119395  0.000122  1.010693  0.0
H  H3  1  0.11786363  0.57423822  0.06711201  1  0.090829  9.5e-05  0.108398  0.119375  0.000122  1.010671  0.0
H  H4  1  0.81904648  0.21130582  0.63949692  1  0.065279  6.7e-05  0.09596  0.09305  7.8e-05  1.056713  0.0
H  H5  1  0.18094282  0.78869397  0.36050796  1  0.065308  6.7e-05  0.095954  0.093052  7.8e-05  1.056695  0.0
H  H6  1  0.77102637  0.42905025  0.49656539  1  0.060185  -2e-06  0.09353  0.088933  2e-06  1.018995  0.0
H  H7  1  0.22895451  0.57094827  0.50344572  1  0.059994  -2e-06  0.093487  0.088863  2e-06  1.019026  0.0
H  H8  1  0.77653359  0.64753503  0.57539523  1  0.075712  -7.3e-05  0.099155  0.097059  -5.7e-05  1.02363  0.0
H  H9  1  0.22345410  0.35246474  0.42461069  1  0.075864  -7.2e-05  0.099119  0.097009  -5.7e-05  1.023668  0.0
H  H10  1  0.02052997  0.04525512  0.61706402  1  0.152423  -0.000817  0.120879  0.094628  -0.000522  1.043795  -0.001
H  H11  1  0.97946892  0.95473654  0.38293153  1  0.152355  -0.000817  0.120893  0.094672  -0.000522  1.043641  -0.001
H  H12  1  0.24568400  0.04899733  0.39328835  1  0.17173  -0.00021  0.112661  0.136335  -0.000148  1.070697  0.0
H  H13  1  0.75431323  0.95099764  0.60671134  1  0.171692  -0.00021  0.112659  0.136317  -0.000149  1.070675  0.0
H  H14  1  0.48528675  0.70130844  0.58369470  1  0.086299  -0.000296  0.107933  0.113047  -0.000197  1.018577  0.0
H  H15  1  0.51471648  0.29868943  0.41630188  1  0.086327  -0.000296  0.107948  0.113064  -0.000197  1.018582  0.0
H  H16  1  0.24229118  0.71247455  0.79968209  1  0.160165  -0.00063  0.128116  0.112184  -0.000386  0.986183  -0.001
H  H17  1  0.75770893  0.28752192  0.20031346  1  0.160257  -0.00063  0.128126  0.112184  -0.000386  0.986189  -0.001
H  H18  1  0.43238682  0.06450570  0.23123713  1  0.156891  -0.000155  0.113672  0.137535  -9.4e-05  1.049815  0.0
H  H19  1  0.56761167  0.93549803  0.76876256  1  0.156907  -0.000155  0.113671  0.137516  -9.4e-05  1.049861  0.0
H  H20  1  0.63479278  0.05158389  0.00152045  1  0.101823  -0.000744  0.124171  0.093518  -0.000483  1.018405  -0.001
H  H21  1  0.36520572  0.94842181  0.99847925  1  0.101875  -0.000744  0.124135  0.093392  -0.000483  1.018415  -0.001
H  H22  1  0.84130780  0.67935578  0.13000099  1  0.131362  -0.000539  0.124394  0.100845  -0.000354  1.011506  0.0
H  H23  1  0.15869473  0.32065029  0.86999457  1  0.131385  -0.000539  0.124415  0.100917  -0.000354  1.011458  0.0
H  H24  1  0.64192103  0.67175139  0.36939793  1  0.071969  -0.000278  0.108261  0.113753  -0.000177  1.007506  0.0
H  H25  1  0.35808311  0.32825570  0.63059658  1  0.07187  -0.000278  0.108232  0.113751  -0.000178  1.007391  0.0
C  C26  1  0.83491313  0.68345910  0.79724946  1  1.536309  0.000956  0.201182  0.548663  0.001216  4.206143  0.0
C  C27  1  0.16508295  0.31653897  0.20275024  1  1.536332  0.000956  0.201156  0.548565  0.001216  4.206157  0.0
C  C28  1  0.82980534  0.54982034  0.75788758  1  -0.01918  -0.000914  -0.019812  -0.027479  -0.000763  3.982081  -0.001
C  C29  1  0.17019342  0.45017601  0.24211418  1  -0.019186  -0.000914  -0.019793  -0.027513  -0.000763  3.982208  -0.001
C  C30  1  0.85747651  0.42718496  0.83739127  1  -0.033998  2.4e-05  -0.080046  -0.114023  7.3e-05  3.92604  0.0
C  C31  1  0.14253176  0.57281191  0.16260737  1  -0.034128  2.4e-05  -0.080005  -0.113962  7.3e-05  3.926092  0.0
C  C32  1  0.85233577  0.30477511  0.79546285  1  -0.020791  0.001426  -0.021993  -0.038043  0.001167  3.979806  0.001
C  C33  1  0.14766141  0.69522320  0.20453995  1  -0.020919  0.001426  -0.021985  -0.038048  0.001167  3.979901  0.001
C  C34  1  0.87780397  0.17432848  0.88527985  1  1.540098  -0.002279  0.204209  0.548772  -0.002251  4.223039  -0.003
C  C35  1  0.12220119  0.82566995  0.11471776  1  1.539615  -0.002279  0.204279  0.548806  -0.00225  4.223047  -0.003
C  C36  1  0.82177841  0.30651919  0.67214212  1  -0.0394  -0.000761  -0.087554  -0.089319  -0.000595  3.962143  -0.001
C  C37  1  0.17821120  0.69347718  0.32786483  1  -0.039224  -0.00076  -0.087547  -0.089348  -0.000595  3.962397  -0.001
C  C38  1  0.79339173  0.42888075  0.59289843  1  -0.060605  0.000187  -0.098594  -0.092431  0.000105  4.043114  0.0
C  C39  1  0.20659402  0.57111846  0.40710646  1  -0.060411  0.000187  -0.098611  -0.092414  0.000106  4.043305  0.0
C  C40  1  0.79618581  0.55025893  0.63591954  1  -0.039589  -0.000381  -0.085266  -0.094015  -0.00031  3.980355  0.0
C  C41  1  0.20380825  0.44973896  0.36408223  1  -0.03974  -0.000381  -0.085179  -0.093852  -0.00031  3.980427  0.0
C  C42  1  0.12535711  0.97026871  0.60362296  1  0.438887  -0.000201  0.047253  0.088976  -0.000408  3.922841  0.0
C  C43  1  0.87463657  0.02972273  0.39637674  1  0.438879  -0.000201  0.047211  0.088943  -0.000408  3.922556  0.0
C  C44  1  0.25467088  0.97136196  0.47872697  1  -0.052625  -0.001372  -0.084177  -0.184228  -0.001178  3.93447  -0.001
C  C45  1  0.74532718  0.02863136  0.52127065  1  -0.052751  -0.001372  -0.08416  -0.184206  -0.001177  3.934523  -0.001
C  C46  1  0.38856446  0.87269338  0.46401332  1  -0.019913  0.000477  0.011401  0.098507  0.000382  3.976805  0.0
C  C47  1  0.61143908  0.12730206  0.53598533  1  -0.019929  0.000478  0.011499  0.098701  0.000382  3.976881  0.0
C  C48  1  0.38452673  0.77887408  0.58330316  1  -0.018273  -0.001502  -0.079979  -0.173431  -0.001283  3.932608  -0.001
C  C49  1  0.61547253  0.22112207  0.41669447  1  -0.018188  -0.001502  -0.080018  -0.173501  -0.001283  3.932549  -0.001
C  C50  1  0.24955292  0.78355931  0.70567746  1  0.423372  -8.6e-05  0.054751  0.096562  -0.000299  3.885388  0.0
C  C51  1  0.75044913  0.21643870  0.29431912  1  0.423281  -8.6e-05  0.054741  0.096565  -0.000299  3.885377  0.0
C  C52  1  0.51802637  0.86952340  0.32625642  1  0.024821  0.000102  0.011866  0.101386  9.1e-05  3.968076  0.0
C  C53  1  0.48197293  0.13047769  0.67374121  1  0.024973  0.000102  0.011841  0.101222  9.1e-05  3.968153  0.0
C  C54  1  0.52007324  0.97607847  0.21749990  1  0.001413  -0.00115  -0.076408  -0.161885  -0.000981  3.893861  -0.001
C  C55  1  0.47992954  0.02392554  0.78250083  1  0.00141  -0.00115  -0.076409  -0.161854  -0.000981  3.893831  -0.001
C  C56  1  0.63503417  0.97106935  0.08639621  1  0.471862  -0.000231  0.052631  0.104148  -0.000336  3.925161  0.0
C  C57  1  0.36496549  0.02893425  0.91360348  1  0.471889  -0.000231  0.052706  0.104294  -0.000336  3.925029  0.0
C  C58  1  0.74928061  0.76283455  0.15870211  1  0.441651  -0.000497  0.048303  0.09007  -0.000645  3.901771  0.0
C  C59  1  0.25072620  0.23716983  0.84129447  1  0.441658  -0.000498  0.048263  0.089923  -0.000645  3.901869  0.0
C  C60  1  0.63691218  0.76059281  0.29276667  1  -0.033575  -0.001159  -0.081224  -0.170744  -0.000984  3.937019  -0.001
C  C61  1  0.36309068  0.23941182  0.70723094  1  -0.033727  -0.001159  -0.081233  -0.170692  -0.000984  3.936973  -0.001
N  N62  1  0.12010258  0.87724181  0.71567943  1  -1.198847  -0.020075  -0.328612  -0.153961  -0.01675  3.597304  -0.015
N  N63  1  0.87989518  0.12275593  0.28431612  1  -1.198796  -0.020078  -0.32863  -0.154036  -0.016753  3.597109  -0.015
N  N64  1  0.75096986  0.86776331  0.05606989  1  -1.185288  -0.01795  -0.334404  -0.175057  -0.014942  3.626839  -0.012
N  N65  1  0.24903182  0.13224146  0.94392773  1  -1.185307  -0.017952  -0.334388  -0.174986  -0.014944  3.626767  -0.012
O  O66  1  0.76543021  0.78616438  0.74617654  1  -1.181763  -0.001501  -0.314258  -0.554538  -0.001573  2.233497  -0.002
O  O67  1  0.23456856  0.21383296  0.25382523  1  -1.181816  -0.0015  -0.314273  -0.554507  -0.001573  2.2334  -0.002
O  O68  1  0.91679003  0.68617701  0.88029751  1  -1.072114  0.026075  -0.301546  -0.497595  0.020306  2.331208  0.021
O  O69  1  0.08320757  0.31382047  0.11970425  1  -1.072121  0.026075  -0.30157  -0.497603  0.020306  2.331302  0.021
O  O70  1  0.87376474  0.17698071  0.00542060  1  -1.167813  -0.009026  -0.302633  -0.557937  -0.007717  2.35105  -0.007
O  O71  1  0.12624545  0.82301474  0.99457906  1  -1.167355  -0.009024  -0.30271  -0.558026  -0.007716  2.351107  -0.007
O  O72  1  0.89876971  0.06730778  0.82819271  1  -1.108809  0.024833  -0.306899  -0.522885  0.01935  2.499737  0.02
O  O73  1  0.10123557  0.93269522  0.17180180  1  -1.108896  0.024839  -0.306924  -0.522868  0.019355  2.499757  0.02
