# generated using pymatgen
data_ZnH12C17(NO2)2
_symmetry_space_group_name_H-M   'P 1'
_cell_length_a   9.18052027
_cell_length_b   9.14733056
_cell_length_c   10.43712207
_cell_angle_alpha   79.56403396
_cell_angle_beta   88.40573944
_cell_angle_gamma   62.45705187
_symmetry_Int_Tables_number   1
_chemical_formula_structural   ZnH12C17(NO2)2
_chemical_formula_sum   'Zn2 H24 C34 N4 O8'
_cell_volume   762.71464594
_cell_formula_units_Z   2
loop_
 _symmetry_equiv_pos_site_id
 _symmetry_equiv_pos_as_xyz
  1  'x, y, z'
loop_
 _atom_site_type_symbol
 _atom_site_label
 _atom_site_symmetry_multiplicity
 _atom_site_fract_x
 _atom_site_fract_y
 _atom_site_fract_z
 _atom_site_occupancy
 _atom_site_hle17_bader_spin_density
 _atom_site_hle17_ddec_charge
 _atom_site_hle17_ddec_spin_density
 _atom_site_hle17_ddec_sum_bond_order
 _atom_site_hle17_magmom
 _atom_site_hse06_10hf_bader_spin_density
 _atom_site_hse06_10hf_ddec_charge
 _atom_site_hse06_10hf_ddec_spin_density
 _atom_site_hse06_10hf_ddec_sum_bond_order
 _atom_site_hse06_10hf_magmom
 _atom_site_hse06_bader_spin_density
 _atom_site_hse06_ddec_charge
 _atom_site_hse06_ddec_spin_density
 _atom_site_hse06_ddec_sum_bond_order
 _atom_site_hse06_magmom
 _atom_site_pbe_bader_spin_density
 _atom_site_pbe_cm5_charge
 _atom_site_pbe_ddec_charge
 _atom_site_pbe_ddec_spin_density
 _atom_site_pbe_ddec_sum_bond_order
 _atom_site_pbe_magmom
Zn  Zn0  1  0.90970225  0.09875046  0.83839636  1  0  1.085619  0  1.806947  0  0  0.904454  0  2.290152  0  0  0.953872  0  2.227642  0  0  0.702084  0.869355  0  2.333753  0
Zn  Zn1  1  0.09030057  0.90124949  0.16160306  1  0  1.08558  0  1.807019  0  0  0.90443  0  2.290184  0  0  0.953842  0  2.227678  0  0  0.702058  0.869331  0  2.333784  0
H  H2  1  0.86101732  0.86075509  0.45382761  1  0  0.322738  0  0.933035  0  0  0.302699  0  0.993687  0  0  0.31171  0  0.986191  0  0  0.311122  0.296378  0  0.998946  0
H  H3  1  0.13898275  0.13924611  0.54617170  1  0  0.322754  0  0.93302  0  0  0.302699  0  0.993704  0  0  0.311704  0  0.986211  0  0  0.311111  0.296377  0  0.998967  0
H  H4  1  0.49102979  0.92581508  0.92209934  1  0  0.100647  0  0.945159  0  0  0.113078  0  1.001596  0  0  0.116231  0  0.99987  0  0  0.106598  0.110849  0  1.002931  0
H  H5  1  0.50896918  0.07418615  0.07789903  1  0  0.100648  0  0.945165  0  0  0.113089  0  1.001584  0  0  0.116245  0  0.999853  0  0  0.106606  0.11086  0  1.002919  0
H  H6  1  0.74612014  0.82960601  0.80120002  1  0  0.093966  0  0.964935  0  0  0.105534  0  1.021941  0  0  0.10804  0  1.02167  0  0  0.102736  0.103675  0  1.022707  0
H  H7  1  0.25387780  0.17039269  0.19879972  1  0  0.094014  0  0.964889  0  0  0.105561  0  1.021911  0  0  0.108067  0  1.021641  0  0  0.102739  0.1037  0  1.022678  0
H  H8  1  0.80859699  0.61145315  0.66586683  1  0  0.089782  0  0.963367  0  0  0.100235  0  1.025969  0  0  0.102445  0  1.02541  0  0  0.099939  0.098058  0  1.027238  0
H  H9  1  0.19140649  0.38854296  0.33413698  1  0  0.089745  0  0.963317  0  0  0.100232  0  1.025897  0  0  0.10244  0  1.025343  0  0  0.099915  0.098055  0  1.027164  0
H  H10  1  0.62122020  0.48685764  0.65720318  1  0  0.088732  0  0.960461  0  0  0.100117  0  1.024286  0  0  0.102787  0  1.023431  0  0  0.099229  0.098501  0  1.024095  0
H  H11  1  0.37878377  0.51313978  0.34279755  1  0  0.088691  0  0.960508  0  0  0.100099  0  1.024307  0  0  0.102767  0  1.023455  0  0  0.099227  0.098484  0  1.024116  0
H  H12  1  0.33817178  0.58662457  0.56329317  1  0  0.083135  0  0.978528  0  0  0.090521  0  1.049091  0  0  0.092989  0  1.049174  0  0  0.094068  0.089055  0  1.049154  0
H  H13  1  0.66182616  0.41337413  0.43670657  1  0  0.083129  0  0.978506  0  0  0.090535  0  1.04904  0  0  0.093004  0  1.049123  0  0  0.094072  0.089069  0  1.049104  0
H  H14  1  0.16899058  0.44095541  0.54965949  1  0  0.098037  0  0.963574  0  0  0.105687  0  1.030369  0  0  0.10934  0  1.02771  0  0  0.099948  0.10333  0  1.032084  0
H  H15  1  0.83100680  0.55904453  0.45034104  1  0  0.098041  0  0.963566  0  0  0.105698  0  1.030357  0  0  0.109351  0  1.027698  0  0  0.099949  0.103341  0  1.032072  0
H  H16  1  0.13797725  0.37542825  0.96562910  1  0  0.10232  0  0.953448  0  0  0.113044  0  1.013698  0  0  0.11617  0  1.012038  0  0  0.105039  0.110741  0  1.01518  0
H  H17  1  0.86202226  0.62457419  0.03437099  1  0  0.102315  0  0.953457  0  0  0.113035  0  1.01371  0  0  0.116161  0  1.012048  0  0  0.105045  0.110732  0  1.015191  0
H  H18  1  0.30714588  0.51901277  0.98096602  1  0  0.097512  0  0.953157  0  0  0.108058  0  1.013646  0  0  0.110062  0  1.01469  0  0  0.101712  0.106779  0  1.012953  0
H  H19  1  0.69285361  0.48098971  0.01903216  1  0  0.097541  0  0.953163  0  0  0.10809  0  1.013638  0  0  0.110099  0  1.014678  0  0  0.101708  0.106813  0  1.012944  0
H  H20  1  0.03601723  0.84778680  0.64426913  1  0  0.099176  0  0.950213  0  0  0.106877  0  1.014419  0  0  0.108767  0  1.013252  0  0  0.135998  0.104574  0  1.016753  0
H  H21  1  0.96398176  0.15221440  0.35573116  1  0  0.099172  0  0.95022  0  0  0.106876  0  1.014424  0  0  0.108766  0  1.013253  0  0  0.13599  0.104572  0  1.016758  0
H  H22  1  0.56147479  0.10007526  0.44943145  1  0  0.104306  0  0.982029  0  0  0.113301  0  1.044275  0  0  0.114743  0  1.045714  0  0  0.11825  0.112188  0  1.043396  0
H  H23  1  0.43852799  0.89992718  0.55056856  1  0  0.10435  0  0.981928  0  0  0.113316  0  1.044203  0  0  0.114768  0  1.045641  0  0  0.118248  0.112205  0  1.043328  0
H  H24  1  0.56030055  0.24534357  0.66226834  1  0  0.10273  0  0.977612  0  0  0.112579  0  1.037417  0  0  0.114127  0  1.038397  0  0  0.114409  0.110296  0  1.038525  0
H  H25  1  0.43970068  0.75465509  0.33773324  1  0  0.10272  0  0.977571  0  0  0.112567  0  1.037387  0  0  0.114115  0  1.038367  0  0  0.114398  0.110283  0  1.038496  0
C  C26  1  0.52021590  0.83026676  0.86288072  1  0  -0.072123  0  3.750441  0  0  -0.096293  0  3.998869  0  0  -0.096413  0  4.018926  0  0  -0.083608  -0.095689  0  3.984926  0
C  C27  1  0.47978090  0.16973445  0.13711868  1  0  -0.072162  0  3.750487  0  0  -0.096343  0  3.998898  0  0  -0.096463  0  4.018956  0  0  -0.083639  -0.095739  0  3.984954  0
C  C28  1  0.66243874  0.77691418  0.79446816  1  0  -0.07058  0  3.774067  0  0  -0.084796  0  4.028801  0  0  -0.0869  0  4.049631  0  0  -0.091228  -0.084674  0  4.015018  0
C  C29  1  0.33756086  0.22308327  0.20553173  1  0  -0.070585  0  3.774053  0  0  -0.084777  0  4.028788  0  0  -0.086883  0  4.049622  0  0  -0.091226  -0.084654  0  4.015004  0
C  C30  1  0.69731452  0.65442291  0.71928968  1  0  -0.059787  0  3.768657  0  0  -0.078356  0  4.025305  0  0  -0.07829  0  4.045339  0  0  -0.090361  -0.076911  0  4.010221  0
C  C31  1  0.30268893  0.34557325  0.28071125  1  0  -0.059772  0  3.768474  0  0  -0.078384  0  4.025141  0  0  -0.078315  0  4.04517  0  0  -0.090348  -0.076937  0  4.010053  0
C  C32  1  0.59065135  0.58571886  0.71345806  1  0  -0.117044  0  3.739969  0  0  -0.134581  0  3.990718  0  0  -0.137842  0  4.011228  0  0  -0.089228  -0.131692  0  3.973921  0
C  C33  1  0.40935147  0.41428108  0.28654136  1  0  -0.117022  0  3.739777  0  0  -0.134573  0  3.990559  0  0  -0.137832  0  4.011069  0  0  -0.089214  -0.131684  0  3.973767  0
C  C34  1  0.44538904  0.63926343  0.78043639  1  0  0.038179  0  3.757247  0  0  0.043936  0  3.991148  0  0  0.04525  0  4.014421  0  0  -0.001991  0.042984  0  3.975166  0
C  C35  1  0.55461096  0.36074032  0.21956062  1  0  0.038231  0  3.757209  0  0  0.043933  0  3.991167  0  0  0.045246  0  4.014442  0  0  -0.002008  0.042978  0  3.975186  0
C  C36  1  0.41080274  0.76432954  0.85543786  1  0  -0.103999  0  3.720845  0  0  -0.084813  0  3.954055  0  0  -0.09254  0  3.975475  0  0  -0.013342  -0.080521  0  3.940322  0
C  C37  1  0.58919509  0.23567419  0.14456017  1  0  -0.103988  0  3.720819  0  0  -0.084791  0  3.954019  0  0  -0.092518  0  3.975441  0  0  -0.013318  -0.080496  0  3.940285  0
C  C38  1  0.33784034  0.56002748  0.77321879  1  0  0.063179  0  3.771769  0  0  0.074486  0  4.007577  0  0  0.076261  0  4.029911  0  0  -0.003429  0.074706  0  3.991789  0
C  C39  1  0.66216248  0.43997247  0.22678063  1  0  0.063238  0  3.771921  0  0  0.074596  0  4.007676  0  0  0.076361  0  4.030013  0  0  -0.003382  0.074809  0  3.991885  0
C  C40  1  0.29733130  0.53692745  0.65196890  1  0  -0.132747  0  3.758458  0  0  -0.146437  0  4.00421  0  0  -0.150485  0  4.024782  0  0  -0.096982  -0.14515  0  3.992079  0
C  C41  1  0.70266989  0.46307128  0.34802884  1  0  -0.132748  0  3.758596  0  0  -0.146458  0  4.004333  0  0  -0.150502  0  4.024908  0  0  -0.096985  -0.145167  0  3.992204  0
C  C42  1  0.20243816  0.45594808  0.64390743  1  0  -0.067997  0  3.750668  0  0  -0.09175  0  3.996222  0  0  -0.090786  0  4.015753  0  0  -0.088304  -0.091207  0  3.983707  0
C  C43  1  0.79755807  0.54405437  0.35609276  1  0  -0.068006  0  3.750735  0  0  -0.091789  0  3.996308  0  0  -0.090821  0  4.015839  0  0  -0.088329  -0.091244  0  3.983793  0
C  C44  1  0.14632059  0.39527054  0.75723099  1  0  -0.084873  0  3.784148  0  0  -0.060157  0  4.014514  0  0  -0.069314  0  4.03929  0  0  -0.02518  -0.053644  0  3.997281  0
C  C45  1  0.85367566  0.60473190  0.24277016  1  0  -0.084926  0  3.78418  0  0  -0.060179  0  4.014533  0  0  -0.069347  0  4.039313  0  0  -0.025186  -0.053677  0  3.997304  0
C  C46  1  0.18305573  0.42140103  0.87802195  1  0  -0.051993  0  3.716608  0  0  -0.075648  0  3.960838  0  0  -0.074556  0  3.980779  0  0  -0.08005  -0.076406  0  3.946753  0
C  C47  1  0.81694155  0.57860393  0.12197783  1  0  -0.051912  0  3.71663  0  0  -0.075577  0  3.960843  0  0  -0.07448  0  3.980785  0  0  -0.08005  -0.07633  0  3.946758  0
C  C48  1  0.27769665  0.50238756  0.88592718  1  0  -0.091241  0  3.705554  0  0  -0.110549  0  3.954469  0  0  -0.114152  0  3.975614  0  0  -0.084259  -0.107167  0  3.938934  0
C  C49  1  0.72230169  0.49761743  0.11407065  1  0  -0.091401  0  3.705675  0  0  -0.110719  0  3.954562  0  0  -0.114324  0  3.97571  0  0  -0.084294  -0.107335  0  3.939027  0
C  C50  1  0.05138882  0.30118266  0.74832124  1  0  0.641278  0  3.92958  0  0  0.592542  0  4.220669  0  0  0.626197  0  4.214673  0  0  0.205235  0.569918  0  4.223313  0
C  C51  1  0.94860970  0.69881721  0.25168310  1  0  0.641341  0  3.929662  0  0  0.592576  0  4.220791  0  0  0.626232  0  4.214794  0  0  0.205177  0.569954  0  4.223434  0
C  C52  1  0.25474726  0.83915690  0.92343932  1  0  0.691265  0  3.869395  0  0  0.636899  0  4.160628  0  0  0.672904  0  4.151391  0  0  0.226569  0.611834  0  4.167381  0
C  C53  1  0.74525229  0.16084304  0.07656115  1  0  0.691307  0  3.869292  0  0  0.636977  0  4.160476  0  0  0.672983  0  4.151236  0  0  0.226617  0.611912  0  4.167228  0
C  C54  1  0.90747855  0.93746694  0.62055121  1  0  0.225989  0  3.649559  0  0  0.16562  0  3.918287  0  0  0.179821  0  3.931145  0  0  0.147165  0.156155  0  3.910565  0
C  C55  1  0.09252209  0.06253302  0.37944827  1  0  0.225997  0  3.649569  0  0  0.16563  0  3.918298  0  0  0.179825  0  3.931151  0  0  0.147164  0.156168  0  3.910574  0
C  C56  1  0.65830488  0.07056757  0.52158129  1  0  -0.008476  0  3.695794  0  0  -0.045049  0  3.953852  0  0  -0.043469  0  3.97438  0  0  0.003585  -0.046211  0  3.939785  0
C  C57  1  0.34169624  0.92943613  0.47841858  1  0  -0.008509  0  3.695723  0  0  -0.045043  0  3.953753  0  0  -0.043485  0  3.974285  0  0  0.003589  -0.04621  0  3.939692  0
C  C58  1  0.65988181  0.14311245  0.62574486  1  0  -0.012804  0  3.743454  0  0  -0.043393  0  4.003881  0  0  -0.042576  0  4.025237  0  0  -0.003837  -0.043513  0  3.99003  0
C  C59  1  0.34011827  0.85688874  0.37425541  1  0  -0.012809  0  3.743434  0  0  -0.043402  0  4.003847  0  0  -0.042584  0  4.025207  0  0  -0.003845  -0.043521  0  3.989995  0
N  N60  1  0.81662277  0.05897840  0.68637784  1  0  -0.410114  0  3.324841  0  0  -0.327326  0  3.627395  0  0  -0.348194  0  3.63775  0  0  -0.366364  -0.312831  0  3.619589  0
N  N61  1  0.18337788  0.94102154  0.31362260  1  0  -0.410098  0  3.32486  0  0  -0.327296  0  3.627393  0  0  -0.348162  0  3.637745  0  0  -0.366344  -0.3128  0  3.619583  0
N  N62  1  0.81495208  0.94165019  0.52068369  1  0  -0.284029  0  3.450264  0  0  -0.21315  0  3.681662  0  0  -0.229797  0  3.696787  0  0  -0.372347  -0.202341  0  3.671508  0
N  N63  1  0.18504742  0.05835226  0.47931640  1  0  -0.284053  0  3.450272  0  0  -0.213189  0  3.681694  0  0  -0.22981  0  3.696801  0  0  -0.372328  -0.202378  0  3.671537  0
O  O64  1  0.02654850  0.27182452  0.63950040  1  0  -0.642308  0  1.985314  0  0  -0.593569  0  2.21533  0  0  -0.616931  0  2.206271  0  0  -0.328307  -0.577814  0  2.22126  0
O  O65  1  0.97344787  0.72817286  0.36050342  1  0  -0.642351  0  1.985373  0  0  -0.593622  0  2.215402  0  0  -0.616987  0  2.206345  0  0  -0.328327  -0.577866  0  2.221331  0
O  O66  1  0.99802792  0.25391676  0.85567239  1  0  -0.642231  0  2.039755  0  0  -0.569657  0  2.308099  0  0  -0.599357  0  2.294328  0  0  -0.327092  -0.548723  0  2.316479  0
O  O67  1  0.00197225  0.74608186  0.14433209  1  0  -0.642219  0  2.039793  0  0  -0.569598  0  2.308075  0  0  -0.599293  0  2.294306  0  0  -0.32699  -0.548668  0  2.316467  0
O  O68  1  0.12023931  0.88247230  0.86016061  1  0  -0.649655  0  2.099994  0  0  -0.578761  0  2.377247  0  0  -0.606803  0  2.361057  0  0  -0.313201  -0.558857  0  2.388852  0
O  O69  1  0.87976246  0.11752516  0.13983825  1  0  -0.649676  0  2.099979  0  0  -0.578816  0  2.377248  0  0  -0.606853  0  2.361057  0  0  -0.313223  -0.558911  0  2.388852  0
O  O70  1  0.26858437  0.85854231  0.03978858  1  0  -0.626569  0  2.03531  0  0  -0.555363  0  2.304017  0  0  -0.583292  0  2.287147  0  0  -0.314559  -0.536004  0  2.315792  0
O  O71  1  0.73141576  0.14145637  0.96021206  1  0  -0.626599  0  2.035264  0  0  -0.555404  0  2.303961  0  0  -0.583336  0  2.287087  0  0  -0.314592  -0.536046  0  2.315736  0
