# generated using pymatgen
data_Zn2H56C57Br6N4O19
_symmetry_space_group_name_H-M   'P 1'
_cell_length_a   10.08335392
_cell_length_b   10.73664013
_cell_length_c   23.63245257
_cell_angle_alpha   89.23476601
_cell_angle_beta   88.73748601
_cell_angle_gamma   89.46093335
_symmetry_Int_Tables_number   1
_chemical_formula_structural   Zn2H56C57Br6N4O19
_chemical_formula_sum   'Zn2 H56 C57 Br6 N4 O19'
_cell_volume   2557.52550729
_cell_formula_units_Z   1
loop_
 _symmetry_equiv_pos_site_id
 _symmetry_equiv_pos_as_xyz
  1  'x, y, z'
loop_
 _atom_site_type_symbol
 _atom_site_label
 _atom_site_symmetry_multiplicity
 _atom_site_fract_x
 _atom_site_fract_y
 _atom_site_fract_z
 _atom_site_occupancy
 _atom_site_pbe_bader_charge
 _atom_site_pbe_bader_spin_density
 _atom_site_pbe_cm5_charge
 _atom_site_pbe_ddec_charge
 _atom_site_pbe_ddec_spin_density
 _atom_site_pbe_ddec_sum_bond_order
 _atom_site_pbe_magmom
Zn  Zn0  1  0.35925944  0.49199369  0.50028178  1  1.29688  0  0.681443  0.839916  0  2.417945  0
Zn  Zn1  1  0.63630202  0.49440683  0.49779806  1  1.296964  0  0.672478  0.857812  0  2.37476  0
H  H2  1  0.30432409  0.56904309  0.32556653  1  0.124922  0  0.106084  0.106885  0  1.022029  0
H  H3  1  0.69534501  0.40901827  0.31713579  1  0.130801  0  0.10653  0.123004  0  1.012815  0
H  H4  1  0.47287842  0.81964632  0.94311850  1  0.148958  0  0.119201  0.13804  0  0.983875  0
H  H5  1  0.43684065  0.19877195  0.05792456  1  0.137513  0  0.117456  0.138512  0  0.994332  0
H  H6  1  0.29114630  0.45918384  0.66897203  1  0.139923  0  0.111422  0.128392  0  1.017504  0
H  H7  1  0.65347465  0.56850045  0.79572472  1  0.080444  0  0.112579  0.132654  0  0.978646  0
H  H8  1  0.30178055  0.58410649  0.21923392  1  0.087671  0  0.113216  0.122153  0  0.970173  0
H  H9  1  0.88802986  0.20244872  0.46226666  1  0.047969  0  0.08779  0.052351  0  1.020025  0
H  H10  1  0.89176157  0.03874278  0.44992443  1  0.04297  0  0.090311  0.049987  0  1.015505  0
H  H11  1  0.93801719  0.11099543  0.54811053  1  -0.004635  0  0.081576  0.071118  0  1.007967  0
H  H12  1  0.77163944  0.15964812  0.55618023  1  0.055837  0  0.080472  0.083591  0  1.033291  0
H  H13  1  0.69448992  0.94036542  0.55542184  1  0.027299  0  0.083435  0.116911  0  1.026669  0
H  H14  1  0.83087503  0.94645750  0.60089240  1  0.011372  0  0.079366  0.106516  0  1.010255  0
H  H15  1  0.85185581  0.88684593  0.53130158  1  0.032296  0  0.083323  0.115764  0  1.017353  0
H  H16  1  0.25325212  0.99443605  0.56243145  1  0.066189  0  0.104268  0.075025  0  0.973707  0
H  H17  1  0.25897171  0.14020095  0.52492015  1  0.05897  0  0.102562  0.080867  0  0.998207  0
H  H18  1  0.36387804  0.08860261  0.64436884  1  0.033251  0  0.092973  0.089063  0  0.967844  0
H  H19  1  0.37581561  0.23367324  0.60802333  1  0.05382  0  0.089923  0.095615  0  0.997446  0
H  H20  1  0.12919869  0.25179016  0.60429951  1  0.006952  0  0.070525  0.091672  0  1.056815  0
H  H21  1  0.17870454  0.23207229  0.67568191  1  0.023877  0  0.080225  0.109214  0  1.02675  0
H  H22  1  0.11109780  0.10491565  0.63903197  1  0.026728  0  0.084029  0.110544  0  1.007238  0
H  H23  1  0.85016541  0.84785753  0.36922209  1  0.041853  0  0.090608  0.054213  0  1.026617  0
H  H24  1  0.75034133  0.98363049  0.35929198  1  0.033168  0  0.094988  0.060585  0  0.987216  0
H  H25  1  0.64338870  0.71686079  0.35527432  1  0.030369  0  0.080198  0.081478  0  1.026739  0
H  H26  1  0.55610736  0.85469250  0.33785818  1  0.026465  0  0.087639  0.08371  0  0.991588  0
H  H27  1  0.72380812  0.89846172  0.25772293  1  -0.005533  0  0.084221  0.111816  0  0.9972  0
H  H28  1  0.63763099  0.75758895  0.24858243  1  0.03257  0  0.08392  0.127241  0  1.021254  0
H  H29  1  0.80291304  0.75388671  0.27292170  1  0.003174  0  0.07213  0.092201  0  1.023602  0
H  H30  1  0.21150223  0.78515491  0.43943359  1  0.063772  0  0.092784  0.065845  0  0.99437  0
H  H31  1  0.33778035  0.78700950  0.38560970  1  0.024037  0  0.095269  0.056994  0  1.00221  0
H  H32  1  0.13183047  0.99257540  0.40953799  1  0.012374  0  0.08966  0.081811  0  0.988287  0
H  H33  1  0.27185824  0.01393677  0.36418080  1  0.033329  0  0.093416  0.089111  0  0.969565  0
H  H34  1  0.19907274  0.84610337  0.30064109  1  0.01889  0  0.084783  0.11215  0  1.000813  0
H  H35  1  0.06354803  0.95086281  0.31084345  1  0.032524  0  0.086945  0.11716  0  1.005789  0
H  H36  1  0.06652168  0.80605551  0.34787609  1  0.015944  0  0.072559  0.086405  0  1.064443  0
H  H37  1  0.23606279  0.30638610  0.37225472  1  0.062315  0  0.116269  0.100762  0  0.949447  0
H  H38  1  0.13733368  0.44225451  0.36127518  1  0.065517  0  0.094671  0.05238  0  1.037854  0
H  H39  1  0.03552389  0.17309111  0.37006840  1  0.02717  0  0.096169  0.094388  0  0.995964  0
H  H40  1  0.93150421  0.30535641  0.36291044  1  0.009553  0  0.086585  0.084472  0  1.002071  0
H  H41  1  0.04380939  0.35980873  0.26922993  1  0.019241  0  0.076866  0.10028  0  1.026937  0
H  H42  1  0.97620698  0.20832425  0.26830794  1  0.036103  0  0.086851  0.11773  0  1.004695  0
H  H43  1  0.14977394  0.22748975  0.27587637  1  0.045042  0  0.089788  0.121635  0  0.991336  0
H  H44  1  0.24591468  0.68144023  0.57172923  1  0.101628  0  0.108572  0.098585  0  0.991937  0
H  H45  1  0.13993583  0.56516386  0.60362688  1  0.044132  0  0.093778  0.060219  0  1.013069  0
H  H46  1  0.06326243  0.83685725  0.57656498  1  0.056161  0  0.095409  0.090859  0  0.982796  0
H  H47  1  0.94984789  0.72215256  0.59994195  1  0.02083  0  0.087302  0.087305  0  1.002119  0
H  H48  1  0.07722695  0.69264784  0.69062802  1  0.038042  0  0.075996  0.103442  0  1.031041  0
H  H49  1  0.02341326  0.84931122  0.68164883  1  0.034592  0  0.088012  0.117078  0  1.003316  0
H  H50  1  0.19170582  0.80799150  0.66742854  1  0.026595  0  0.089586  0.121795  0  0.989057  0
H  H51  1  0.29403780  0.08269952  0.89305794  1  0.080699  0  0.114423  0.094324  0  0.944777  0
H  H52  1  0.22321059  0.22236832  0.92048007  1  0.068283  0  0.097751  0.058862  0  0.994716  0
H  H53  1  0.25770018  0.97452492  0.98568676  1  0.005872  0  0.083975  0.076809  0  1.006317  0
H  H54  1  0.20322336  0.11412957  0.01735990  1  0.031957  0  0.089423  0.082761  0  0.978628  0
H  H55  1  0.00102767  0.12001581  0.95683136  1  0.027277  0  0.085607  0.109811  0  1.002921  0
H  H56  1  0.01048794  0.97775863  0.99555486  1  0.035175  0  0.089907  0.118185  0  0.997226  0
H  H57  1  0.05474458  0.98162800  0.92247098  1  0.020741  0  0.089163  0.116484  0  0.997074  0
C  C58  1  0.50145213  0.72362549  0.47192963  1  1.542513  0  0.199707  0.546988  0  4.208397  0
C  C59  1  0.48656968  0.73638846  0.02693931  1  -0.051049  0  0.001332  0.102394  0  3.935342  0
C  C60  1  0.46950908  0.73366703  0.96813114  1  0.019005  0  -0.072397  -0.130651  0  3.94236  0
C  C61  1  0.45045323  0.62241386  0.94058584  1  0.001017  0  -0.004378  -0.041877  0  3.979432  0
C  C62  1  0.44645201  0.50774876  0.97095713  1  -0.002347  0  0.00289  0.045506  0  3.991817  0
C  C63  1  0.42853413  0.39306997  0.94237241  1  0.050897  0  -0.015226  -0.179216  0  3.936965  0
C  C64  1  0.42342448  0.28130818  0.97445062  1  0.57445  0  0.111766  0.273222  0  4.029617  0
C  C65  1  0.44042999  0.28542403  0.03343431  1  0.046538  0  -0.070041  -0.17437  0  3.910324  0
C  C66  1  0.43849188  0.62674454  0.87831325  1  1.356637  0  0.242108  0.443656  0  4.100241  0
C  C67  1  0.42908281  0.39198066  0.87974313  1  1.283541  0  0.236508  0.446511  0  4.097927  0
C  C68  1  0.34766807  0.48180084  0.75554020  1  -0.089767  0  -0.009961  0.047896  0  3.945265  0
C  C69  1  0.50054430  0.51549589  0.60847863  1  1.614687  0  0.217427  0.601899  0  4.150186  0
C  C70  1  0.36982812  0.48376804  0.69737731  1  0.023767  0  -0.082541  -0.122668  0  3.946487  0
C  C71  1  0.49244519  0.51787022  0.67254506  1  0.041861  0  -0.010665  -0.055228  0  3.886858  0
C  C72  1  0.59450820  0.54987082  0.70919568  1  -0.034581  0  -0.003743  0.113179  0  3.917547  0
C  C73  1  0.57355046  0.54438140  0.76773263  1  0.04396  0  -0.086904  -0.19426  0  3.955636  0
C  C74  1  0.45111862  0.51067421  0.79138775  1  0.409359  0  0.091027  0.169771  0  4.016273  0
C  C75  1  0.38730971  0.54590030  0.24118756  1  0.024704  0  -0.078859  -0.132748  0  3.975371  0
C  C76  1  0.38818400  0.53688188  0.29975229  1  -0.033953  0  -0.081016  -0.086886  0  3.979102  0
C  C77  1  0.49828408  0.48482966  0.32670039  1  -0.014914  0  -0.008897  -0.006402  0  3.95073  0
C  C78  1  0.61014515  0.44737823  0.29514340  1  0.030554  0  -0.083822  -0.137142  0  3.950793  0
C  C79  1  0.60954522  0.45896928  0.23647104  1  -0.153361  0  -0.00647  0.053808  0  3.935673  0
C  C80  1  0.50582303  0.25538464  0.50790545  1  1.582638  0  0.217796  0.567414  0  4.187739  0
C  C81  1  0.49695570  0.50494078  0.20932211  1  0.428095  0  0.087882  0.148062  0  4.026573  0
C  C82  1  0.60543169  0.06105735  0.46628841  1  0.561936  0  0.053414  0.057303  0  4.060218  0
C  C83  1  0.51604996  0.11607047  0.50355848  1  0.568393  0  0.092021  0.051832  0  3.929841  0
C  C84  1  0.60163068  0.93169443  0.45042817  1  0.553866  0  0.079304  0.118952  0  4.020154  0
C  C85  1  0.49141490  0.85580598  0.45359676  1  0.513229  0  0.057978  -0.019506  0  3.981456  0
C  C86  1  0.07760495  0.45851241  0.46532873  1  1.297961  0  0.222497  0.265487  0  4.151053  0
C  C87  1  0.93500500  0.49455386  0.46074886  1  0.70893  0  0.152449  0.157196  0  3.971533  0
C  C88  1  0.49619672  0.47089946  0.38986991  1  1.569586  0  0.211172  0.582243  0  4.187812  0
C  C89  1  0.46688899  0.39172557  0.12338279  1  1.321833  0  0.238196  0.439768  0  4.121955  0
C  C90  1  0.49966688  0.62399005  0.12143293  1  1.343261  0  0.240637  0.448108  0  4.084923  0
C  C91  1  0.48243993  0.62592710  0.05922539  1  -0.04538  0  -0.010672  -0.111528  0  3.938163  0
C  C92  1  0.46186815  0.51122622  0.03084417  1  0.033538  0  0.003442  0.036663  0  3.972421  0
C  C93  1  0.45771618  0.39629154  0.06119509  1  -0.05217  0  -0.006648  -0.0424  0  4.008999  0
C  C94  1  0.83705361  0.11435985  0.47164909  1  0.375282  0  -0.073919  0.041092  0  3.86573  0
C  C95  1  0.83592797  0.08993324  0.53546329  1  -0.010841  0  -0.181025  -0.155006  0  3.992791  0
C  C96  1  0.80119778  0.95863233  0.55664506  1  -0.053282  0  -0.25396  -0.352004  0  3.950813  0
C  C97  1  0.30767997  0.08222685  0.55709445  1  0.402565  0  -0.066085  0.026801  0  3.864661  0
C  C98  1  0.31496998  0.14964989  0.61321212  1  -0.028655  0  -0.172809  -0.139933  0  3.965874  0
C  C99  1  0.17586156  0.18657319  0.63437568  1  -0.066886  0  -0.246207  -0.342346  0  3.968763  0
C  C100  1  0.74861795  0.88516122  0.37342850  1  0.407453  0  -0.071719  0.03079  0  3.879056  0
C  C101  1  0.65518370  0.81098074  0.33709761  1  -0.012044  0  -0.181349  -0.154036  0  3.992089  0
C  C102  1  0.70762261  0.80474130  0.27586592  1  -0.027179  0  -0.24835  -0.344937  0  3.960461  0
C  C103  1  0.27860888  0.84621508  0.41461821  1  0.419018  0  -0.070841  0.037913  0  3.863266  0
C  C104  1  0.20194645  0.94366712  0.38094445  1  -0.003768  0  -0.168427  -0.12917  0  3.971613  0
C  C105  1  0.12861332  0.88367807  0.33243506  1  -0.077457  0  -0.244977  -0.351061  0  3.98004  0
C  C106  1  0.13663078  0.34694414  0.37859944  1  0.361726  0  -0.058931  0.040383  0  3.808995  0
C  C107  1  0.03090910  0.26813399  0.35232363  1  0.047835  0  -0.172789  -0.149128  0  3.984002  0
C  C108  1  0.05172038  0.26570164  0.28791135  1  -0.092905  0  -0.243514  -0.349796  0  3.964095  0
C  C109  1  0.14291461  0.65072842  0.57755540  1  0.344059  0  -0.073051  -0.002639  0  3.845128  0
C  C110  1  0.05390970  0.75127789  0.60238339  1  -0.007863  0  -0.169648  -0.13299  0  3.977674  0
C  C111  1  0.08875451  0.77664862  0.66384105  1  -0.068631  0  -0.243565  -0.350015  0  3.956047  0
C  C112  1  0.27670678  0.13605470  0.93185808  1  0.38144  0  -0.058584  0.042583  0  3.843408  0
C  C113  1  0.20240040  0.06161516  0.97761372  1  -0.01791  0  -0.171177  -0.137898  0  3.993946  0
C  C114  1  0.05947946  0.03378333  0.96208327  1  -0.054948  0  -0.241443  -0.349717  0  3.978339  0
Br  Br115  1  0.51598167  0.89649876  0.05662831  1  0.020016  0  0.072586  -0.004849  0  1.459698  0
Br  Br116  1  0.76332828  0.41248779  0.19351704  1  -0.063375  0  0.026101  -0.063403  0  1.378805  0
Br  Br117  1  0.88774594  0.57665356  0.39302875  1  0.087717  0  0.185857  0.110833  0  1.577139  0
Br  Br118  1  0.90026223  0.40100183  0.56717470  1  0.245238  0  0.241259  0.15841  0  1.588119  0
Br  Br119  1  0.17560823  0.44369987  0.78464948  1  -0.056747  0  0.028534  -0.063272  0  1.385884  0
Br  Br120  1  0.76574712  0.60479395  0.68537102  1  -0.035699  0  0.03648  -0.060077  0  1.529739  0
N  N121  1  0.48944878  0.50670807  0.14886834  1  -1.211652  0  -0.239858  -0.232673  0  3.652147  0
N  N122  1  0.43706988  0.51009817  0.85195046  1  -1.221441  0  -0.236211  -0.229902  0  3.610507  0
N  N123  1  0.15490266  0.52035895  0.49752739  1  -0.62738  0  -0.22201  -0.172167  0  3.393875  0
N  N124  1  0.84413672  0.47374302  0.49829568  1  -0.979499  0  -0.294633  -0.206595  0  3.240519  0
O  O125  1  0.39772155  0.67957133  0.49689010  1  -1.162772  0  -0.32163  -0.547858  0  2.372816  0
O  O126  1  0.52051764  0.71639444  0.14984474  1  -1.086973  0  -0.2621  -0.423674  0  2.173826  0
O  O127  1  0.43395508  0.72436080  0.85067944  1  -1.093264  0  -0.27484  -0.425155  0  2.055763  0
O  O128  1  0.42738537  0.29737016  0.85124285  1  -1.078592  0  -0.261156  -0.415725  0  2.12679  0
O  O129  1  0.61107921  0.66385586  0.46529521  1  -1.158512  0  -0.323344  -0.544462  0  2.430888  0
O  O130  1  0.39402374  0.48170229  0.58499782  1  -1.173263  0  -0.314823  -0.555774  0  2.388287  0
O  O131  1  0.60767890  0.54470917  0.58299870  1  -1.158079  0  -0.310929  -0.537347  0  2.358764  0
O  O132  1  0.39357368  0.30256542  0.49573120  1  -1.14587  0  -0.303634  -0.521683  0  2.341316  0
O  O133  1  0.60788075  0.31460312  0.52232528  1  -1.151545  0  -0.307432  -0.530452  0  2.40005  0
O  O134  1  0.38608667  0.49952983  0.41421629  1  -1.169071  0  -0.31513  -0.551255  0  2.381617  0
O  O135  1  0.60105490  0.43403257  0.41371380  1  -1.160845  0  -0.315628  -0.549753  0  2.331461  0
O  O136  1  0.45464816  0.29569991  0.15181033  1  -1.098565  0  -0.278024  -0.433974  0  2.07383  0
O  O137  1  0.70937426  0.13138072  0.44453049  1  -1.055966  0  -0.217139  -0.232523  0  2.508177  0
O  O138  1  0.43652639  0.04193413  0.53559145  1  -1.042838  0  -0.163179  -0.154154  0  2.629113  0
O  O139  1  0.72272837  0.88105685  0.43417174  1  -1.046248  0  -0.199459  -0.217905  0  2.548102  0
O  O140  1  0.36664782  0.90819328  0.45267766  1  -1.050363  0  -0.192679  -0.198337  0  2.595491  0
O  O141  1  0.12218424  0.35419612  0.44100323  1  -1.051733  0  -0.162773  -0.196134  0  2.515504  0
O  O142  1  0.09014319  0.62205104  0.52208013  1  -0.646756  0  -0.09403  -0.098833  0  2.448341  0
O  O143  1  0.40750044  0.16677523  0.95257277  1  -1.059003  0  -0.191525  -0.227659  0  2.533399  0
