# generated using pymatgen
data_CdH16C20N4O5
_symmetry_space_group_name_H-M   'P 1'
_cell_length_a   6.00854290
_cell_length_b   8.22182562
_cell_length_c   20.96327317
_cell_angle_alpha   97.95229728
_cell_angle_beta   89.47941827
_cell_angle_gamma   109.92505993
_symmetry_Int_Tables_number   1
_chemical_formula_structural   CdH16C20N4O5
_chemical_formula_sum   'Cd2 H32 C40 N8 O10'
_cell_volume   963.44944556
_cell_formula_units_Z   2
loop_
 _symmetry_equiv_pos_site_id
 _symmetry_equiv_pos_as_xyz
  1  'x, y, z'
loop_
 _atom_site_type_symbol
 _atom_site_label
 _atom_site_symmetry_multiplicity
 _atom_site_fract_x
 _atom_site_fract_y
 _atom_site_fract_z
 _atom_site_occupancy
 _atom_site_hle17_bader_spin_density
 _atom_site_hle17_ddec_charge
 _atom_site_hle17_ddec_spin_density
 _atom_site_hle17_ddec_sum_bond_order
 _atom_site_hle17_magmom
 _atom_site_hse06_10hf_bader_spin_density
 _atom_site_hse06_10hf_ddec_charge
 _atom_site_hse06_10hf_ddec_spin_density
 _atom_site_hse06_10hf_ddec_sum_bond_order
 _atom_site_hse06_10hf_magmom
 _atom_site_hse06_bader_spin_density
 _atom_site_hse06_ddec_charge
 _atom_site_hse06_ddec_spin_density
 _atom_site_hse06_ddec_sum_bond_order
 _atom_site_hse06_magmom
 _atom_site_pbe_bader_spin_density
 _atom_site_pbe_cm5_charge
 _atom_site_pbe_ddec_charge
 _atom_site_pbe_ddec_spin_density
 _atom_site_pbe_ddec_sum_bond_order
 _atom_site_pbe_magmom
Cd  Cd0  1  0.85344024  0.00407895  0.24832103  1  0  1.110233  0  1.687338  0  0  0.915576  0  2.129839  0  0  0.975395  0  2.076627  0  0  0.763475  0.873222  0  2.166018  0
Cd  Cd1  1  0.14655229  0.99591575  0.75168422  1  0  1.110309  0  1.687088  0  0  0.915689  0  2.129548  0  0  0.97551  0  2.076337  0  0  0.763479  0.873339  0  2.165717  0
H  H2  1  0.93521526  0.74382648  0.13221257  1  0  0.092225  0  0.945808  0  0  0.096739  0  1.017103  0  0  0.099807  0  1.013514  0  0  0.119679  0.094416  0  1.019895  0
H  H3  1  0.22704410  0.26496951  0.36357923  1  0  0.090647  0  0.93846  0  0  0.096048  0  1.008304  0  0  0.099278  0  1.004413  0  0  0.121031  0.093562  0  1.011375  0
H  H4  1  0.06478965  0.25614525  0.86780124  1  0  0.092187  0  0.946006  0  0  0.096656  0  1.017263  0  0  0.099718  0  1.013683  0  0  0.119649  0.094334  0  1.020061  0
H  H5  1  0.77294786  0.73506238  0.63639875  1  0  0.090555  0  0.938683  0  0  0.095945  0  1.008523  0  0  0.099169  0  1.004623  0  0  0.121026  0.093463  0  1.011597  0
H  H6  1  0.35566802  0.67240797  0.24773422  1  0  0.081883  0  0.949009  0  0  0.089082  0  1.014802  0  0  0.091701  0  1.012899  0  0  0.114338  0.087151  0  1.016215  0
H  H7  1  0.71016631  0.33653521  0.25234188  1  0  0.089166  0  0.949335  0  0  0.096829  0  1.011889  0  0  0.099775  0  1.009682  0  0  0.116196  0.094676  0  1.013484  0
H  H8  1  0.64431537  0.32759558  0.75227780  1  0  0.081723  0  0.949338  0  0  0.088851  0  1.015202  0  0  0.091476  0  1.013289  0  0  0.114165  0.08691  0  1.016614  0
H  H9  1  0.28980008  0.66345329  0.74763824  1  0  0.089401  0  0.949241  0  0  0.097049  0  1.011777  0  0  0.099998  0  1.009572  0  0  0.116347  0.094897  0  1.013363  0
H  H10  1  0.30398794  0.29456267  0.07901109  1  0  0.102217  0  0.948902  0  0  0.112869  0  1.012463  0  0  0.115114  0  1.01126  0  0  0.109421  0.111187  0  1.013322  0
H  H11  1  0.00362579  0.70817084  0.42271215  1  0  0.102301  0  0.947988  0  0  0.111571  0  1.013456  0  0  0.113982  0  1.011966  0  0  0.109306  0.109771  0  1.014546  0
H  H12  1  0.69598157  0.70543272  0.92100666  1  0  0.10233  0  0.948453  0  0  0.112988  0  1.012017  0  0  0.115261  0  1.010778  0  0  0.109464  0.1113  0  1.012893  0
H  H13  1  0.99640021  0.29189757  0.57724608  1  0  0.102268  0  0.947976  0  0  0.111509  0  1.013484  0  0  0.113919  0  1.011992  0  0  0.109314  0.109713  0  1.014571  0
H  H14  1  0.12222366  0.39176018  0.17734218  1  0  0.1106  0  0.961493  0  0  0.117772  0  1.023954  0  0  0.120643  0  1.023954  0  0  0.107145  0.115685  0  1.024188  0
H  H15  1  0.73169365  0.61382877  0.32531872  1  0  0.112872  0  0.954508  0  0  0.120188  0  1.015577  0  0  0.123028  0  1.015685  0  0  0.108833  0.118085  0  1.015804  0
H  H16  1  0.87772755  0.60824222  0.82267032  1  0  0.110753  0  0.961527  0  0  0.117854  0  1.024058  0  0  0.120724  0  1.024053  0  0  0.107159  0.115765  0  1.024294  0
H  H17  1  0.26831091  0.38620148  0.67464195  1  0  0.112856  0  0.954524  0  0  0.120138  0  1.015616  0  0  0.122979  0  1.015721  0  0  0.108742  0.118035  0  1.015846  0
H  H18  1  0.27127577  0.04388859  0.40939034  1  0  0.10834  0  0.962544  0  0  0.114828  0  1.031432  0  0  0.119271  0  1.027202  0  0  0.103087  0.11164  0  1.034547  0
H  H19  1  0.23651281  0.96518210  0.09314670  1  0  0.110188  0  0.95972  0  0  0.118212  0  1.025238  0  0  0.122286  0  1.02175  0  0  0.1052  0.115323  0  1.027803  0
H  H20  1  0.72876975  0.95615124  0.59062475  1  0  0.108077  0  0.962596  0  0  0.114683  0  1.031378  0  0  0.119127  0  1.027145  0  0  0.103031  0.111527  0  1.034463  0
H  H21  1  0.76350474  0.03477413  0.90686135  1  0  0.11024  0  0.959747  0  0  0.118283  0  1.025254  0  0  0.122348  0  1.021765  0  0  0.105237  0.1154  0  1.027815  0
H  H22  1  0.84708199  0.90692783  0.47703106  1  0  0.094673  0  0.973785  0  0  0.104802  0  1.037137  0  0  0.107878  0  1.035459  0  0  0.101142  0.10249  0  1.03858  0
H  H23  1  0.93569786  0.10234428  0.01889269  1  0  0.098237  0  0.964893  0  0  0.107969  0  1.028163  0  0  0.11104  0  1.026563  0  0  0.102729  0.105635  0  1.029609  0
H  H24  1  0.15295338  0.09309761  0.52298364  1  0  0.094765  0  0.973668  0  0  0.104878  0  1.037052  0  0  0.107956  0  1.035372  0  0  0.101169  0.10257  0  1.038485  0
H  H25  1  0.06431307  0.89761201  0.98111490  1  0  0.098275  0  0.964788  0  0  0.107965  0  1.028107  0  0  0.11104  0  1.026502  0  0  0.102718  0.10563  0  1.029555  0
H  H26  1  0.28290381  0.94698244  0.27806580  1  0  0.44023  0  0.855817  0  0  0.409915  0  0.917886  0  0  0.421324  0  0.901174  0  0  0.294365  0.401774  0  0.929801  0
H  H27  1  0.31444949  0.99796826  0.20864387  1  0  0.438627  0  0.860711  0  0  0.40684  0  0.925187  0  0  0.418515  0  0.908185  0  0  0.291445  0.398556  0  0.937222  0
H  H28  1  0.71710632  0.05302130  0.72194045  1  0  0.440312  0  0.85571  0  0  0.409977  0  0.91782  0  0  0.421391  0  0.901101  0  0  0.2944  0.401838  0  0.929732  0
H  H29  1  0.68555074  0.00202511  0.79136080  1  0  0.438622  0  0.860749  0  0  0.406849  0  0.925191  0  0  0.418524  0  0.90819  0  0  0.291421  0.398567  0  0.937224  0
H  H30  1  0.63149379  0.35231201  0.00385690  1  0  0.072669  0  0.94518  0  0  0.080616  0  1.014779  0  0  0.083074  0  1.013208  0  0  0.112885  0.078812  0  1.015826  0
H  H31  1  0.28006176  0.65473862  0.49420042  1  0  0.072687  0  0.945555  0  0  0.080573  0  1.014958  0  0  0.083018  0  1.013403  0  0  0.113321  0.078745  0  1.016099  0
H  H32  1  0.36849635  0.64763568  0.99616452  1  0  0.072683  0  0.94524  0  0  0.080676  0  1.014757  0  0  0.083117  0  1.013235  0  0  0.112964  0.078869  0  1.015805  0
H  H33  1  0.71995403  0.34533990  0.50576562  1  0  0.072869  0  0.945751  0  0  0.080916  0  1.014898  0  0  0.083362  0  1.013342  0  0  0.113433  0.079069  0  1.01606  0
C  C34  1  0.75468270  0.66351413  0.14064345  1  0  0.115423  0  3.644519  0  0  0.078845  0  3.885456  0  0  0.086299  0  3.904216  0  0  0.060935  0.073917  0  3.87303  0
C  C35  1  0.11952684  0.34482745  0.35655913  1  0  0.114471  0  3.64978  0  0  0.077063  0  3.893742  0  0  0.084655  0  3.912047  0  0  0.061931  0.072037  0  3.881616  0
C  C36  1  0.24528394  0.33645766  0.85937332  1  0  0.115381  0  3.645155  0  0  0.078979  0  3.886091  0  0  0.086438  0  3.904844  0  0  0.060948  0.074039  0  3.873677  0
C  C37  1  0.88045820  0.65521092  0.64342117  1  0  0.114654  0  3.650169  0  0  0.077353  0  3.894039  0  0  0.084961  0  3.912327  0  0  0.061968  0.072307  0  3.881931  0
C  C38  1  0.43037412  0.62143323  0.20521115  1  0  0.12713  0  3.693078  0  0  0.095865  0  3.943825  0  0  0.103006  0  3.962596  0  0  0.047529  0.09128  0  3.931057  0
C  C39  1  0.83159504  0.38750934  0.29457996  1  0  0.127804  0  3.683414  0  0  0.09702  0  3.933107  0  0  0.104001  0  3.951571  0  0  0.04851  0.092538  0  3.920507  0
C  C40  1  0.56960707  0.37856917  0.79479842  1  0  0.127538  0  3.693201  0  0  0.096374  0  3.943861  0  0  0.103516  0  3.962628  0  0  0.047769  0.091805  0  3.931078  0
C  C41  1  0.16837398  0.61249519  0.70539590  1  0  0.127653  0  3.683425  0  0  0.096891  0  3.933109  0  0  0.103862  0  3.951579  0  0  0.048334  0.092415  0  3.920503  0
C  C42  1  0.63553818  0.51224259  0.09724001  1  0  -0.015134  0  3.791407  0  0  0.010669  0  4.022539  0  0  0.003426  0  4.047328  0  0  -0.006756  0.015076  0  4.005886  0
C  C43  1  0.13742600  0.49339065  0.40143723  1  0  -0.015116  0  3.791586  0  0  0.010244  0  4.023133  0  0  0.00304  0  4.048192  0  0  -0.006646  0.014677  0  4.006234  0
C  C44  1  0.36442121  0.48770687  0.90277682  1  0  -0.014834  0  3.790874  0  0  0.010734  0  4.022265  0  0  0.003493  0  4.047055  0  0  -0.006686  0.015153  0  4.005595  0
C  C45  1  0.86253860  0.50663618  0.59854002  1  0  -0.014779  0  3.790895  0  0  0.010502  0  4.022587  0  0  0.003295  0  4.047656  0  0  -0.006319  0.014946  0  4.005668  0
C  C46  1  0.74462501  0.45936158  0.03925758  1  0  0.095359  0  3.683714  0  0  0.060898  0  3.944702  0  0  0.06786  0  3.960648  0  0  0.074445  0.056583  0  3.933521  0
C  C47  1  0.29178294  0.54505765  0.45947236  1  0  0.096104  0  3.682558  0  0  0.061737  0  3.944242  0  0  0.068635  0  3.960359  0  0  0.074252  0.05744  0  3.93294  0
C  C48  1  0.25537172  0.54059649  0.96076542  1  0  0.09502  0  3.683704  0  0  0.060563  0  3.9448  0  0  0.067513  0  3.960747  0  0  0.074272  0.056251  0  3.933619  0
C  C49  1  0.70821634  0.45498258  0.54049754  1  0  0.095619  0  3.682841  0  0  0.061088  0  3.944629  0  0  0.067985  0  3.960746  0  0  0.073907  0.0568  0  3.933322  0
C  C50  1  0.40305704  0.41381423  0.11076548  1  0  -0.017532  0  3.658304  0  0  -0.049121  0  3.908132  0  0  -0.045202  0  3.926379  0  0  -0.054578  -0.051153  0  3.895453  0
C  C51  1  0.99409024  0.59095625  0.38974678  1  0  -0.01828  0  3.653429  0  0  -0.047705  0  3.901114  0  0  -0.044222  0  3.919858  0  0  -0.053443  -0.049473  0  3.888086  0
C  C52  1  0.59691539  0.58615919  0.88924564  1  0  -0.018009  0  3.657338  0  0  -0.049495  0  3.907256  0  0  -0.045604  0  3.925514  0  0  -0.054864  -0.051525  0  3.89457  0
C  C53  1  0.00590373  0.40907626  0.61022073  1  0  -0.018386  0  3.65301  0  0  -0.04775  0  3.900699  0  0  -0.044266  0  3.919442  0  0  -0.053628  -0.049519  0  3.887669  0
C  C54  1  0.30068865  0.46817111  0.16570411  1  0  -0.105849  0  3.723351  0  0  -0.118004  0  3.977161  0  0  -0.12538  0  3.998376  0  0  -0.080908  -0.113388  0  3.963036  0
C  C55  1  0.84128654  0.53824672  0.33548817  1  0  -0.101721  0  3.720902  0  0  -0.113201  0  3.973637  0  0  -0.12034  0  3.994899  0  0  -0.078344  -0.10871  0  3.959469  0
C  C56  1  0.69929956  0.53182856  0.83430623  1  0  -0.105906  0  3.72343  0  0  -0.118052  0  3.977203  0  0  -0.125434  0  3.998434  0  0  -0.080791  -0.113429  0  3.963068  0
C  C57  1  0.15869124  0.46176574  0.66448625  1  0  -0.101652  0  3.720946  0  0  -0.113099  0  3.973667  0  0  -0.120236  0  3.994924  0  0  -0.078204  -0.108616  0  3.959505  0
C  C58  1  0.65541431  0.95570110  0.36970930  1  0  0.632354  0  3.937865  0  0  0.582702  0  4.225338  0  0  0.616851  0  4.219281  0  0  0.192853  0.559685  0  4.228324  0
C  C59  1  0.70547795  0.06762266  0.12958719  1  0  0.632479  0  3.934804  0  0  0.58199  0  4.22478  0  0  0.616135  0  4.218635  0  0  0.193834  0.55893  0  4.22787  0
C  C60  1  0.34462665  0.04432204  0.63029952  1  0  0.632019  0  3.938071  0  0  0.582409  0  4.225615  0  0  0.616557  0  4.219566  0  0  0.192665  0.559386  0  4.228596  0
C  C61  1  0.29453603  0.93234705  0.87041598  1  0  0.632566  0  3.935262  0  0  0.582024  0  4.225332  0  0  0.616166  0  4.219199  0  0  0.193781  0.558974  0  4.228405  0
C  C62  1  0.37176063  0.02550511  0.44903919  1  0  -0.078085  0  3.739136  0  0  -0.106797  0  4.001166  0  0  -0.10652  0  4.017825  0  0  -0.086474  -0.106934  0  3.990052  0
C  C63  1  0.35194539  0.97988701  0.05245793  1  0  -0.079655  0  3.73388  0  0  -0.106602  0  3.993733  0  0  -0.10631  0  4.010371  0  0  -0.085847  -0.106787  0  3.982635  0
C  C64  1  0.62828564  0.97452574  0.55097200  1  0  -0.077852  0  3.738893  0  0  -0.106587  0  4.000967  0  0  -0.106314  0  4.01763  0  0  -0.086443  -0.106752  0  3.989837  0
C  C65  1  0.64805942  0.02006688  0.94754666  1  0  -0.079727  0  3.733939  0  0  -0.106714  0  3.993858  0  0  -0.10641  0  4.010477  0  0  -0.085853  -0.106906  0  3.982775  0
C  C66  1  0.69620921  0.94898591  0.48786084  1  0  -0.078148  0  3.747617  0  0  -0.103166  0  4.000321  0  0  -0.103804  0  4.019438  0  0  -0.08782  -0.102576  0  3.987506  0
C  C67  1  0.74481607  0.05592061  0.01007517  1  0  -0.076982  0  3.746958  0  0  -0.102336  0  4.001702  0  0  -0.102744  0  4.020405  0  0  -0.086882  -0.101967  0  3.989318  0
C  C68  1  0.30383244  0.05104223  0.51215211  1  0  -0.078316  0  3.747265  0  0  -0.103251  0  4.000002  0  0  -0.103897  0  4.019131  0  0  -0.087818  -0.102659  0  3.987168  0
C  C69  1  0.25519156  0.94403218  0.98992553  1  0  -0.077003  0  3.746877  0  0  -0.102319  0  4.001598  0  0  -0.102736  0  4.020308  0  0  -0.086901  -0.101948  0  3.989214  0
C  C70  1  0.56999082  0.97465852  0.43658867  1  0  -0.063969  0  3.765855  0  0  -0.039612  0  3.996015  0  0  -0.046072  0  4.017743  0  0  -0.020796  -0.035447  0  3.981401  0
C  C71  1  0.59839969  0.03594610  0.06293481  1  0  -0.062499  0  3.765086  0  0  -0.039244  0  3.997104  0  0  -0.0458  0  4.019099  0  0  -0.019297  -0.034978  0  3.982276  0
C  C72  1  0.43009953  0.02537752  0.56341941  1  0  -0.063634  0  3.765301  0  0  -0.03951  0  3.995774  0  0  -0.045965  0  4.017504  0  0  -0.020774  -0.03534  0  3.98116  0
C  C73  1  0.40161049  0.96400510  0.93707008  1  0  -0.062537  0  3.764949  0  0  -0.039229  0  3.996921  0  0  -0.045779  0  4.018922  0  0  -0.019305  -0.034977  0  3.982107  0
N  N74  1  0.65389426  0.71751177  0.19271672  1  0  -0.333795  0  3.255419  0  0  -0.255114  0  3.515125  0  0  -0.27657  0  3.536124  0  0  -0.325395  -0.24056  0  3.500602  0
N  N75  1  0.96938414  0.29296980  0.30497186  1  0  -0.339633  0  3.271499  0  0  -0.261177  0  3.534896  0  0  -0.282349  0  3.554906  0  0  -0.325269  -0.246802  0  3.521007  0
N  N76  1  0.34607386  0.28247361  0.80729277  1  0  -0.333951  0  3.255462  0  0  -0.255303  0  3.515104  0  0  -0.276763  0  3.536103  0  0  -0.32538  -0.24075  0  3.500583  0
N  N77  1  0.03057480  0.70703458  0.69500734  1  0  -0.339868  0  3.271964  0  0  -0.261486  0  3.53536  0  0  -0.282654  0  3.555363  0  0  -0.325324  -0.247113  0  3.521476  0
N  N78  1  0.96703846  0.53475751  0.02923335  1  0  -0.213851  0  3.034993  0  0  -0.18184  0  3.322365  0  0  -0.192455  0  3.342127  0  0  -0.213903  -0.174652  0  3.308677  0
N  N79  1  0.43705617  0.46551255  0.47066336  1  0  -0.21264  0  3.033796  0  0  -0.180776  0  3.321531  0  0  -0.191475  0  3.341565  0  0  -0.212946  -0.173508  0  3.30765  0
N  N80  1  0.03295922  0.46519551  0.97078599  1  0  -0.213227  0  3.034808  0  0  -0.181157  0  3.322088  0  0  -0.191767  0  3.341851  0  0  -0.213685  -0.17397  0  3.3084  0
N  N81  1  0.56292667  0.53452467  0.52931449  1  0  -0.21277  0  3.033787  0  0  -0.180838  0  3.321524  0  0  -0.191534  0  3.341553  0  0  -0.212951  -0.173569  0  3.30764  0
O  O82  1  0.85567638  0.93713686  0.36157178  1  0  -0.632632  0  1.935886  0  0  -0.572296  0  2.170145  0  0  -0.600123  0  2.162379  0  0  -0.325086  -0.552659  0  2.17458  0
O  O83  1  0.91780889  0.07240721  0.13645049  1  0  -0.63077  0  1.943347  0  0  -0.569478  0  2.179505  0  0  -0.597557  0  2.171596  0  0  -0.323398  -0.549646  0  2.184098  0
O  O84  1  0.14436635  0.06290056  0.63843983  1  0  -0.632575  0  1.935975  0  0  -0.572228  0  2.170203  0  0  -0.600069  0  2.16247  0  0  -0.324955  -0.552595  0  2.174648  0
O  O85  1  0.08219722  0.92755994  0.86355207  1  0  -0.630692  0  1.943453  0  0  -0.569393  0  2.179601  0  0  -0.597469  0  2.171694  0  0  -0.323274  -0.54956  0  2.184185  0
O  O86  1  0.52816909  0.96628280  0.32276210  1  0  -0.673294  0  2.031069  0  0  -0.603586  0  2.267263  0  0  -0.632963  0  2.256864  0  0  -0.33086  -0.582848  0  2.273568  0
O  O87  1  0.57808447  0.08287309  0.17791864  1  0  -0.670989  0  2.02543  0  0  -0.602844  0  2.258964  0  0  -0.631524  0  2.248541  0  0  -0.328038  -0.582626  0  2.265361  0
O  O88  1  0.47184318  0.03372198  0.67724850  1  0  -0.673211  0  2.031167  0  0  -0.603478  0  2.267335  0  0  -0.632854  0  2.256941  0  0  -0.33089  -0.582737  0  2.27363  0
O  O89  1  0.42193989  0.91710447  0.82208404  1  0  -0.671071  0  2.025573  0  0  -0.602924  0  2.25911  0  0  -0.631602  0  2.248687  0  0  -0.328052  -0.582711  0  2.2655  0
O  O90  1  0.19073691  0.94029414  0.23823032  1  0  -0.848461  0  1.866567  0  0  -0.784738  0  2.068811  0  0  -0.807793  0  2.032339  0  0  -0.595228  -0.768358  0  2.094114  0
O  O91  1  0.80926754  0.05970818  0.76177824  1  0  -0.848561  0  1.866532  0  0  -0.784835  0  2.068765  0  0  -0.807891  0  2.032289  0  0  -0.595238  -0.768451  0  2.094052  0
