# generated using pymatgen
data_Zn4H55C63N9O17
_symmetry_space_group_name_H-M   'P 1'
_cell_length_a   12.33208414
_cell_length_b   19.95508305
_cell_length_c   19.95508727
_cell_angle_alpha   102.56105305
_cell_angle_beta   94.21293062
_cell_angle_gamma   94.21289951
_symmetry_Int_Tables_number   1
_chemical_formula_structural   Zn4H55C63N9O17
_chemical_formula_sum   'Zn8 H110 C126 N18 O34'
_cell_volume   4759.99239985
_cell_formula_units_Z   2
loop_
 _symmetry_equiv_pos_site_id
 _symmetry_equiv_pos_as_xyz
  1  'x, y, z'
loop_
 _atom_site_type_symbol
 _atom_site_label
 _atom_site_symmetry_multiplicity
 _atom_site_fract_x
 _atom_site_fract_y
 _atom_site_fract_z
 _atom_site_occupancy
 _atom_site_pbe_bader_charge
 _atom_site_pbe_bader_spin_density
 _atom_site_pbe_cm5_charge
 _atom_site_pbe_ddec_charge
 _atom_site_pbe_ddec_spin_density
 _atom_site_pbe_ddec_sum_bond_order
 _atom_site_pbe_magmom
Zn  Zn0  1  0.61482187  0.56405569  0.07627697  1  1.273813  0  0.667898  0.815087  0  2.37674  0
Zn  Zn1  1  0.11482233  0.07627749  0.56405581  1  1.273794  0  0.667897  0.815082  0  2.376749  0
Zn  Zn2  1  0.80641942  0.52687167  0.01743934  1  1.274535  0  0.666951  0.817191  0  2.374905  0
Zn  Zn3  1  0.30641886  0.01743990  0.52687167  1  1.274531  0  0.66695  0.817192  0  2.374913  0
Zn  Zn4  1  0.40797856  0.61169696  0.33696322  1  1.285055  0  0.693147  0.869014  0  2.301172  0
Zn  Zn5  1  0.90797744  0.33696376  0.61169685  1  1.285058  0  0.693144  0.869006  0  2.301173  0
Zn  Zn6  1  0.49982028  0.74897115  0.48788422  1  1.320466  0  0.677342  0.868452  0  2.272975  0
Zn  Zn7  1  0.99982040  0.48788340  0.74897077  1  1.32056  0  0.677331  0.868442  0  2.27294  0
H  H8  1  0.33921383  0.63599354  0.53865151  1  0.106245  0  0.126722  0.055813  0  0.972256  0
H  H9  1  0.83921416  0.53865171  0.63599341  1  0.106254  0  0.126702  0.055832  0  0.972229  0
H  H10  1  0.37179186  0.47236150  0.58553413  1  0.07712  0  0.109475  0.127532  0  1.016541  0
H  H11  1  0.87179171  0.58553425  0.47236138  1  0.077118  0  0.109476  0.127561  0  1.016513  0
H  H12  1  0.26307786  0.50803630  0.54664592  1  0.085244  0  0.103426  0.116152  0  1.014019  0
H  H13  1  0.76307779  0.54664574  0.50803537  1  0.085235  0  0.103441  0.116167  0  1.013989  0
H  H14  1  0.33743667  0.55557775  0.62508348  1  0.084936  0  0.105736  0.122309  0  1.008809  0
H  H15  1  0.83743534  0.62508289  0.55557718  1  0.084951  0  0.105746  0.122339  0  1.008788  0
H  H16  1  0.51652362  0.46621589  0.53315095  1  0.037923  0  0.110346  0.124351  0  0.993074  0
H  H17  1  0.01652361  0.53315077  0.46621609  1  0.037948  0  0.11034  0.124347  0  0.993094  0
H  H18  1  0.59181115  0.54562912  0.53012082  1  0.081096  0  0.106687  0.120307  0  1.00319  0
H  H19  1  0.09181125  0.53012033  0.54562870  1  0.081103  0  0.106693  0.120323  0  1.003177  0
H  H20  1  0.51004237  0.49772917  0.45563872  1  0.070651  0  0.107397  0.124724  0  1.003177  0
H  H21  1  0.01004291  0.45563854  0.49772896  1  0.070647  0  0.107394  0.124726  0  1.003179  0
H  H22  1  0.49437492  0.53862877  0.20123525  1  0.147412  0  0.130416  0.113379  0  0.974017  0
H  H23  1  0.99437506  0.20123532  0.53862918  1  0.14689  0  0.130427  0.113393  0  0.973984  0
H  H24  1  0.56055988  0.62402585  0.22112404  1  0.086708  0  0.125789  0.100398  0  0.975086  0
H  H25  1  0.06055936  0.22112365  0.62402631  1  0.08669  0  0.12579  0.100394  0  0.975084  0
H  H26  1  0.53515849  0.69938206  0.14237005  1  0.094796  0  0.125075  0.100335  0  0.963861  0
H  H27  1  0.03515827  0.14237016  0.69938265  1  0.094809  0  0.125101  0.100388  0  0.963951  0
H  H28  1  0.45160938  0.66882085  0.06300703  1  0.091742  0  0.125118  0.099913  0  0.969726  0
H  H29  1  0.95160921  0.06300707  0.66882138  1  0.091703  0  0.125109  0.099904  0  0.969741  0
H  H30  1  0.36268100  0.55347175  0.03487794  1  0.074111  0  0.124833  0.093035  0  0.973612  0
H  H31  1  0.86268047  0.03487786  0.55347180  1  0.074115  0  0.124836  0.093041  0  0.973605  0
H  H32  1  0.38214069  0.49743497  0.09290313  1  0.064381  0  0.127874  0.099733  0  0.947396  0
H  H33  1  0.88213974  0.09290295  0.49743549  1  0.064395  0  0.127876  0.09973  0  0.947406  0
H  H34  1  0.30866020  0.70741661  0.25020366  1  0.09676  0  0.117773  0.086793  0  1.006292  0
H  H35  1  0.80865820  0.25020345  0.70741663  1  0.096742  0  0.117778  0.086828  0  1.006276  0
H  H36  1  0.45328394  0.72155246  0.24909844  1  0.083228  0  0.123059  0.09196  0  0.949567  0
H  H37  1  0.95328269  0.24909833  0.72155210  1  0.083222  0  0.123054  0.091951  0  0.949585  0
H  H38  1  0.19621639  0.66595993  0.14288139  1  0.063369  0  0.11736  0.07964  0  0.99983  0
H  H39  1  0.69621652  0.14288100  0.66596007  1  0.063364  0  0.117375  0.079667  0  0.9998  0
H  H40  1  0.25753770  0.64864043  0.06302105  1  0.073541  0  0.120647  0.086098  0  0.967942  0
H  H41  1  0.75753687  0.06302123  0.64864090  1  0.073546  0  0.120655  0.086121  0  0.967912  0
H  H42  1  0.30046572  0.51977769  0.20105837  1  0.095331  0  0.124959  0.099309  0  0.972662  0
H  H43  1  0.80046519  0.20105830  0.51977754  1  0.095334  0  0.124963  0.099302  0  0.972654  0
H  H44  1  0.21977135  0.59162735  0.22155847  1  0.067747  0  0.123374  0.091539  0  0.961574  0
H  H45  1  0.71977008  0.22155858  0.59162766  1  0.06773  0  0.12337  0.091534  0  0.961518  0
H  H46  1  0.86002611  0.46780014  0.87158507  1  0.121674  0  0.124554  0.099781  0  0.983581  0
H  H47  1  0.36002544  0.87158483  0.46779980  1  0.121668  0  0.124559  0.099784  0  0.983566  0
H  H48  1  0.91560482  0.55545707  0.89043448  1  0.109738  0  0.127487  0.102821  0  0.973586  0
H  H49  1  0.41560483  0.89043422  0.55545732  1  0.109728  0  0.127478  0.102799  0  0.973588  0
H  H50  1  0.98457774  0.42995849  0.02945993  1  0.100239  0  0.124818  0.098  0  0.965224  0
H  H51  1  0.48457755  0.02946017  0.42995876  1  0.100237  0  0.124828  0.098  0  0.96522  0
H  H52  1  0.90030516  0.39523127  0.95115202  1  0.095288  0  0.126453  0.099311  0  0.952537  0
H  H53  1  0.40030514  0.95115258  0.39523120  1  0.095289  0  0.126455  0.099315  0  0.952528  0
H  H54  1  0.02934681  0.60262390  0.99682679  1  0.083057  0  0.126529  0.09768  0  0.944637  0
H  H55  1  0.52934585  0.99682702  0.60262421  1  0.08305  0  0.126519  0.097662  0  0.944624  0
H  H56  1  0.06042841  0.54884284  0.05537326  1  0.063482  0  0.121845  0.088727  0  0.982166  0
H  H57  1  0.56042843  0.05537335  0.54884270  1  0.063483  0  0.121845  0.088722  0  0.98216  0
H  H58  1  0.97926858  0.37628462  0.84278477  1  0.066503  0  0.121361  0.090581  0  0.950518  0
H  H59  1  0.47926895  0.84278542  0.37628491  1  0.06651  0  0.121365  0.09059  0  0.950512  0
H  H60  1  0.12200632  0.39748944  0.84032154  1  0.119519  0  0.119464  0.089005  0  0.998278  0
H  H61  1  0.62200624  0.84032155  0.39748937  1  0.119543  0  0.119457  0.088994  0  0.998291  0
H  H62  1  0.17632172  0.45939680  0.02650691  1  0.080371  0  0.119097  0.08297  0  0.976218  0
H  H63  1  0.67632154  0.02650692  0.45939705  1  0.080374  0  0.119093  0.082955  0  0.976246  0
H  H64  1  0.23457550  0.44489217  0.94528640  1  0.045818  0  0.117674  0.07925  0  0.996354  0
H  H65  1  0.73457578  0.94528713  0.44489269  1  0.045903  0  0.117643  0.079185  0  0.996406  0
H  H66  1  0.19619831  0.51636187  0.86606106  1  0.075618  0  0.123601  0.095044  0  0.963537  0
H  H67  1  0.69619832  0.86606057  0.51636182  1  0.075626  0  0.123599  0.095031  0  0.963531  0
H  H68  1  0.10791443  0.58343805  0.88714605  1  0.072534  0  0.123661  0.094382  0  0.964754  0
H  H69  1  0.60791499  0.88714543  0.58343765  1  0.072533  0  0.123677  0.094402  0  0.96478  0
H  H70  1  0.67004900  0.34528303  0.85658262  1  0.058012  0  0.102889  0.107806  0  1.005584  0
H  H71  1  0.17004939  0.85658304  0.34528380  1  0.058009  0  0.102887  0.107797  0  1.005585  0
H  H72  1  0.26570017  0.32061981  0.86427405  1  0.018748  0  0.099666  0.101607  0  1.008017  0
H  H73  1  0.76569981  0.86427381  0.32061933  1  0.01875  0  0.099672  0.10159  0  1.008036  0
H  H74  1  0.38427118  0.40903558  0.95289064  1  0.077469  0  0.097464  0.097099  0  1.040629  0
H  H75  1  0.88427002  0.95289077  0.40903545  1  0.077448  0  0.097462  0.097063  0  1.040655  0
H  H76  1  0.65414124  0.24679189  0.75554192  1  0.033563  0  0.096702  0.094751  0  1.024716  0
H  H77  1  0.15414276  0.75554268  0.24679214  1  0.033545  0  0.096705  0.094713  0  1.024661  0
H  H78  1  0.53611867  0.15814000  0.66602053  1  0.058942  0  0.096436  0.095911  0  1.04666  0
H  H79  1  0.03611949  0.66602038  0.15814023  1  0.058924  0  0.096437  0.095894  0  1.046667  0
H  H80  1  0.24870244  0.22666470  0.75715014  1  0.082961  0  0.103032  0.107374  0  1.005613  0
H  H81  1  0.74870362  0.75714958  0.22666478  1  0.082983  0  0.103035  0.107371  0  1.005594  0
H  H82  1  0.93153526  0.40254656  0.15304470  1  0.084416  0  0.100337  0.104841  0  1.011918  0
H  H83  1  0.43153309  0.15304449  0.40254590  1  0.084503  0  0.10034  0.104863  0  1.011929  0
H  H84  1  0.98530441  0.34856947  0.25085981  1  0.053653  0  0.10387  0.108423  0  0.992064  0
H  H85  1  0.48530377  0.25085905  0.34856981  1  0.053648  0  0.103875  0.10843  0  0.99206  0
H  H86  1  0.64169348  0.46603220  0.24693391  1  0.135649  0  0.1108  0.125042  0  1.003056  0
H  H87  1  0.14169236  0.24693551  0.46603180  1  0.135625  0  0.110795  0.125024  0  1.003121  0
H  H88  1  0.94666694  0.32183519  0.36379026  1  0.095958  0  0.104621  0.110457  0  1.018406  0
H  H89  1  0.44666719  0.36378996  0.32183409  1  0.095943  0  0.104641  0.110465  0  1.018376  0
H  H90  1  0.66755396  0.39675655  0.46248920  1  0.074693  0  0.099882  0.103378  0  1.015388  0
H  H91  1  0.16755638  0.46249052  0.39675641  1  0.074717  0  0.099891  0.103373  0  1.015371  0
H  H92  1  0.60770992  0.44382406  0.36009452  1  0.07913  0  0.102622  0.107349  0  1.023971  0
H  H93  1  0.10771076  0.36009578  0.44382436  1  0.079165  0  0.102612  0.10732  0  1.023948  0
H  H94  1  0.12342688  0.62928492  0.33618823  1  0.093248  0  0.102407  0.106593  0  1.016788  0
H  H95  1  0.62342668  0.33618849  0.62928494  1  0.093238  0  0.102421  0.106615  0  1.016764  0
H  H96  1  0.96584295  0.80405247  0.51211933  1  0.087397  0  0.103739  0.107657  0  0.995961  0
H  H97  1  0.46584269  0.51211885  0.80405280  1  0.087395  0  0.103748  0.107686  0  0.995921  0
H  H98  1  0.16711648  0.80353451  0.50875565  1  0.110502  0  0.102764  0.109168  0  1.028326  0
H  H99  1  0.66711602  0.50875620  0.80353464  1  0.110502  0  0.102762  0.109164  0  1.028332  0
H  H100  1  0.93586768  0.57590599  0.29030525  1  0.03975  0  0.102266  0.106464  0  0.996076  0
H  H101  1  0.43586794  0.29030480  0.57590599  1  0.03908  0  0.102264  0.106464  0  0.996074  0
H  H102  1  0.73493353  0.57741130  0.29261558  1  0.107922  0  0.103668  0.109987  0  1.035149  0
H  H103  1  0.23493391  0.29261485  0.57741059  1  0.107906  0  0.103702  0.110026  0  1.035083  0
H  H104  1  0.77810419  0.75461094  0.46230646  1  0.106157  0  0.105899  0.117322  0  1.021926  0
H  H105  1  0.27810390  0.46230598  0.75461052  1  0.106169  0  0.105909  0.11734  0  1.021909  0
H  H106  1  0.78571449  0.62532701  0.85059267  1  0.0932  0  0.108384  0.118427  0  1.007308  0
H  H107  1  0.28571500  0.85059286  0.62532660  1  0.093183  0  0.108356  0.118388  0  1.007356  0
H  H108  1  0.42879548  0.72423956  0.82554583  1  0.079215  0  0.102931  0.106996  0  0.99792  0
H  H109  1  0.92879661  0.82554546  0.72424044  1  0.079227  0  0.10291  0.10692  0  0.998011  0
H  H110  1  0.47793032  0.67507681  0.92736743  1  0.073017  0  0.100641  0.104564  0  1.008972  0
H  H111  1  0.97793099  0.92736808  0.67507814  1  0.073022  0  0.100634  0.104569  0  1.008948  0
H  H112  1  0.83162746  0.64881738  0.74008257  1  0.105731  0  0.100143  0.11062  0  1.042932  0
H  H113  1  0.33162782  0.74008176  0.64881665  1  0.105724  0  0.100152  0.110629  0  1.042897  0
H  H114  1  0.78263051  0.69843024  0.63713643  1  0.092992  0  0.09862  0.099078  0  1.037359  0
H  H115  1  0.28263111  0.63713596  0.69843022  1  0.092974  0  0.098573  0.099041  0  1.03739  0
H  H116  1  0.47668184  0.75022879  0.71403594  1  0.065498  0  0.102973  0.107492  0  1.034992  0
H  H117  1  0.97668392  0.71403547  0.75022832  1  0.065539  0  0.102936  0.107415  0  1.034865  0
C  C118  1  0.41028015  0.61007294  0.51887844  1  1.370865  0  0.180779  0.316354  0  4.063627  0
C  C119  1  0.91028106  0.51887838  0.61007304  1  1.370871  0  0.180784  0.316342  0  4.063682  0
C  C120  1  0.34402007  0.52028595  0.57537920  1  0.216318  0  -0.127331  -0.274804  0  3.88711  0
C  C121  1  0.84402009  0.57537864  0.52028602  1  0.216325  0  -0.127356  -0.274879  0  3.887083  0
C  C122  1  0.51560466  0.51247707  0.51217564  1  0.27847  0  -0.127929  -0.264133  0  3.886995  0
C  C123  1  0.01560440  0.51217564  0.51247658  1  0.278433  0  -0.127947  -0.26418  0  3.887053  0
C  C124  1  0.48647858  0.59177254  0.19642768  1  0.532448  0  0.019488  -0.001075  0  3.820832  0
C  C125  1  0.98647806  0.19642782  0.59177302  1  0.532997  0  0.0195  -0.00105  0  3.820756  0
C  C126  1  0.46041101  0.66760066  0.11778923  1  0.532415  0  0.021844  0.00773  0  3.856496  0
C  C127  1  0.96041051  0.11778887  0.66760151  1  0.532447  0  0.02181  0.007655  0  3.856657  0
C  C128  1  0.37225735  0.55083241  0.08933850  1  0.561811  0  0.024885  0.00941  0  3.861884  0
C  C129  1  0.87225660  0.08933902  0.55083268  1  0.561698  0  0.024889  0.009424  0  3.861876  0
C  C130  1  0.37926085  0.68926614  0.22364039  1  0.539741  0  0.020355  0.010012  0  3.885401  0
C  C131  1  0.87926022  0.22363990  0.68926662  1  0.539775  0  0.020341  0.009979  0  3.885465  0
C  C132  1  0.26789414  0.64719621  0.11783274  1  0.554077  0  0.022846  0.011912  0  3.910653  0
C  C133  1  0.76789401  0.11783294  0.64719656  1  0.554109  0  0.022827  0.01186  0  3.910676  0
C  C134  1  0.29076468  0.57266595  0.19562023  1  0.530814  0  0.022809  0.005061  0  3.872435  0
C  C135  1  0.79076451  0.19562033  0.57266616  1  0.530823  0  0.022825  0.005127  0  3.87231  0
C  C136  1  0.93150152  0.50323283  0.89501714  1  0.50114  0  0.018524  0.002562  0  3.823845  0
C  C137  1  0.43150221  0.89501724  0.50323333  1  0.50116  0  0.018549  0.002621  0  3.823784  0
C  C138  1  0.97227781  0.43051726  0.97459249  1  0.539358  0  0.023785  0.012996  0  3.862908  0
C  C139  1  0.47227747  0.97459242  0.43051743  1  0.539367  0  0.023778  0.012982  0  3.862854  0
C  C140  1  0.04676212  0.55035463  0.00078402  1  0.554336  0  0.023685  0.012162  0  3.865226  0
C  C141  1  0.54676144  0.00078385  0.55035448  1  0.554341  0  0.023724  0.012213  0  3.865182  0
C  C142  1  0.05011291  0.41220326  0.86725314  1  0.504779  0  0.019898  0.012939  0  3.88457  0
C  C143  1  0.55011321  0.86725286  0.41220312  1  0.504737  0  0.019885  0.012916  0  3.884588  0
C  C144  1  0.16212063  0.45994095  0.97161942  1  0.558049  0  0.020595  0.009863  0  3.917924  0
C  C145  1  0.66212029  0.97161937  0.45994105  1  0.557971  0  0.020606  0.009913  0  3.917983  0
C  C146  1  0.12422739  0.53151734  0.89287036  1  0.562425  0  0.022306  0.006279  0  3.882678  0
C  C147  1  0.62422688  0.89287136  0.53151800  1  0.562421  0  0.022305  0.006306  0  3.882652  0
C  C148  1  0.60108097  0.43925643  0.96018296  1  1.585099  0  0.214483  0.592123  0  4.166498  0
C  C149  1  0.10108041  0.96018336  0.43925676  1  1.585008  0  0.214468  0.59212  0  4.166469  0
C  C150  1  0.53372802  0.38267878  0.90888186  1  0.005988  0  -0.018723  -0.028794  0  3.981144  0
C  C151  1  0.03372805  0.90888204  0.38267925  1  0.005978  0  -0.018736  -0.028831  0  3.981162  0
C  C152  1  0.58174752  0.33918613  0.85813265  1  -0.070149  0  -0.07615  -0.129547  0  3.933878  0
C  C153  1  0.08174767  0.85813326  0.33918627  1  -0.070142  0  -0.076136  -0.129508  0  3.933856  0
C  C154  1  0.51782033  0.28761223  0.80798127  1  0.041429  0  -0.002338  0.080989  0  3.990536  0
C  C155  1  0.01781955  0.80798111  0.28761322  1  0.041443  0  -0.002366  0.080951  0  3.99048  0
C  C156  1  0.40124762  0.28144519  0.80912714  1  -0.049908  0  -0.00265  0.081181  0  3.989752  0
C  C157  1  0.90124728  0.80912693  0.28144471  1  -0.050022  0  -0.002647  0.081118  0  3.989787  0
C  C158  1  0.35414432  0.32610855  0.86246811  1  -0.038686  0  -0.090427  -0.1336  0  3.99863  0
C  C159  1  0.85414544  0.86246867  0.32610801  1  -0.038567  0  -0.090448  -0.133508  0  3.998636  0
C  C160  1  0.41881372  0.37494937  0.91122692  1  -0.025508  0  -0.091405  -0.103019  0  4.00972  0
C  C161  1  0.91881406  0.91122726  0.37494948  1  -0.025497  0  -0.091373  -0.102983  0  4.009726  0
C  C162  1  0.56544197  0.24199254  0.75577310  1  -0.006323  0  -0.090908  -0.129827  0  4.008976  0
C  C163  1  0.06544346  0.75577350  0.24199307  1  -0.00616  0  -0.090872  -0.129707  0  4.008816  0
C  C164  1  0.50131132  0.19338241  0.70667645  1  -0.024621  0  -0.094011  -0.10923  0  4.019059  0
C  C165  1  0.00131230  0.70667565  0.19338328  1  -0.024525  0  -0.094021  -0.109278  0  4.019083  0
C  C166  1  0.38591214  0.18777223  0.70680279  1  -0.010102  0  -0.018144  -0.025557  0  3.976992  0
C  C167  1  0.88591279  0.70680143  0.18777325  1  -0.010166  0  -0.018133  -0.025476  0  3.976892  0
C  C168  1  0.33740398  0.23121269  0.75740066  1  -0.030488  0  -0.076736  -0.13123  0  3.927349  0
C  C169  1  0.83740453  0.75740027  0.23121322  1  -0.030452  0  -0.076745  -0.131257  0  3.927347  0
C  C170  1  0.31887442  0.13526753  0.65105171  1  1.546275  0  0.214277  0.591244  0  4.167402  0
C  C171  1  0.81887607  0.65105087  0.13526784  1  1.546058  0  0.214288  0.591254  0  4.167338  0
C  C172  1  0.75532355  0.47299317  0.13774434  1  1.581583  0  0.215128  0.591078  0  4.171103  0
C  C173  1  0.25532245  0.13774466  0.47299314  1  1.581568  0  0.215176  0.591138  0  4.171167  0
C  C174  1  0.78356287  0.43786275  0.19479881  1  -0.02036  0  -0.020932  -0.036918  0  3.987524  0
C  C175  1  0.28355997  0.19479861  0.43786209  1  -0.020266  0  -0.020953  -0.036986  0  3.98765  0
C  C176  1  0.88096105  0.40405961  0.19575607  1  -0.091582  0  -0.092314  -0.10546  0  4.018163  0
C  C177  1  0.38096077  0.19575558  0.40405910  1  -0.091241  0  -0.092301  -0.105496  0  4.018145  0
C  C178  1  0.91031044  0.37432048  0.24967051  1  0.010237  0  -0.090788  -0.137016  0  4.003885  0
C  C179  1  0.41031063  0.24966982  0.37431927  1  0.009744  0  -0.090772  -0.13697  0  4.003786  0
C  C180  1  0.84428883  0.37747231  0.30552439  1  -0.033151  0  -0.005753  0.080969  0  4.007103  0
C  C181  1  0.34428868  0.30552502  0.37747229  1  -0.033127  0  -0.005812  0.080882  0  4.007004  0
C  C182  1  0.74598852  0.41172764  0.30474887  1  -0.013102  0  -0.00496  0.076902  0  3.996685  0
C  C183  1  0.24598854  0.30474923  0.41172697  1  -0.013201  0  -0.004945  0.076981  0  3.996579  0
C  C184  1  0.71690908  0.44063844  0.24805468  1  -0.094574  0  -0.074346  -0.131484  0  3.916846  0
C  C185  1  0.21690887  0.24805480  0.44063738  1  -0.094493  0  -0.074328  -0.131448  0  3.916868  0
C  C186  1  0.87322243  0.34899666  0.36254163  1  -0.040182  0  -0.081403  -0.149364  0  3.942216  0
C  C187  1  0.37322416  0.36254134  0.34899547  1  -0.040229  0  -0.081364  -0.149251  0  3.942001  0
C  C188  1  0.81100140  0.35653620  0.41818659  1  -0.035828  0  -0.022211  -0.02693  0  4.000048  0
C  C189  1  0.31100283  0.41818699  0.35653555  1  -0.035799  0  -0.022255  -0.027078  0  4.000105  0
C  C190  1  0.71454004  0.39141137  0.41776885  1  -0.049377  0  -0.093338  -0.110294  0  4.006868  0
C  C191  1  0.21454270  0.41776986  0.39141151  1  -0.049932  0  -0.093379  -0.110325  0  4.006911  0
C  C192  1  0.68193189  0.41737453  0.36177462  1  -0.007665  0  -0.088069  -0.131586  0  3.983747  0
C  C193  1  0.18193501  0.36177601  0.41737492  1  -0.007109  0  -0.088027  -0.131526  0  3.98367  0
C  C194  1  0.85119163  0.33117743  0.47987553  1  1.528325  0  0.191139  0.551329  0  4.242001  0
C  C195  1  0.35119317  0.47987589  0.33117673  1  1.528341  0  0.191181  0.551482  0  4.241966  0
C  C196  1  0.27618652  0.71785415  0.41847205  1  1.578909  0  0.220567  0.600393  0  4.169283  0
C  C197  1  0.77618591  0.41847236  0.71785418  1  1.578928  0  0.220561  0.600424  0  4.169216  0
C  C198  1  0.15572687  0.71678404  0.42108833  1  -0.034732  0  -0.02174  -0.042057  0  4.002214  0
C  C199  1  0.65572722  0.42108824  0.71678318  1  -0.034752  0  -0.021734  -0.04212  0  4.002232  0
C  C200  1  0.08781603  0.66728154  0.37414322  1  -0.102564  0  -0.08005  -0.137886  0  3.949851  0
C  C201  1  0.58781573  0.37414322  0.66728136  1  -0.102564  0  -0.080064  -0.137892  0  3.949829  0
C  C202  1  0.97328829  0.66527908  0.37530898  1  -0.035024  0  -0.006241  0.067072  0  4.019464  0
C  C203  1  0.47328796  0.37530870  0.66527957  1  -0.03503  0  -0.006244  0.067117  0  4.01943  0
C  C204  1  0.92841719  0.71652363  0.42529678  1  0.019638  0  -0.004119  0.072276  0  4.002373  0
C  C205  1  0.42841691  0.42529597  0.71652361  1  0.019659  0  -0.004151  0.072237  0  4.002419  0
C  C206  1  0.00031727  0.76579846  0.47375538  1  -0.030304  0  -0.08445  -0.120131  0  3.968699  0
C  C207  1  0.50031652  0.47375503  0.76579808  1  -0.030294  0  -0.084443  -0.120147  0  3.968643  0
C  C208  1  0.11152769  0.76578833  0.47206594  1  -0.052195  0  -0.086807  -0.094153  0  3.983913  0
C  C209  1  0.61152805  0.47206663  0.76578778  1  -0.052171  0  -0.086796  -0.094128  0  3.983876  0
C  C210  1  0.90147837  0.61489477  0.32799041  1  0.023231  0  -0.08829  -0.130554  0  3.990887  0
C  C211  1  0.40147792  0.32799027  0.61489490  1  0.023893  0  -0.088285  -0.13058  0  3.990911  0
C  C212  1  0.79022894  0.61562841  0.32901080  1  -0.055567  0  -0.087028  -0.097591  0  3.984846  0
C  C213  1  0.29022963  0.32900940  0.61562816  1  -0.055615  0  -0.087085  -0.097638  0  3.984816  0
C  C214  1  0.74589835  0.66749368  0.37707462  1  -0.024628  0  -0.019366  -0.037192  0  3.986478  0
C  C215  1  0.24590031  0.37707387  0.66749299  1  -0.024985  0  -0.019381  -0.037229  0  3.986245  0
C  C216  1  0.81380107  0.71666301  0.42440832  1  -0.074683  0  -0.073949  -0.129801  0  3.918371  0
C  C217  1  0.31380130  0.42440770  0.71666315  1  -0.074766  0  -0.073963  -0.129827  0  3.91833  0
C  C218  1  0.62544597  0.66902782  0.37698344  1  1.579483  0  0.221877  0.603361  0  4.152731  0
C  C219  1  0.12544192  0.37698250  0.66902804  1  1.580249  0  0.222038  0.603596  0  4.152719  0
C  C220  1  0.66372392  0.61630021  0.95468334  1  1.570908  0  0.215879  0.592903  0  4.172481  0
C  C221  1  0.16372374  0.95468304  0.61630166  1  1.570866  0  0.215874  0.592893  0  4.172507  0
C  C222  1  0.63567644  0.64781513  0.89496636  1  -0.054413  0  -0.020902  -0.037321  0  3.993421  0
C  C223  1  0.13567729  0.89496728  0.64781518  1  -0.054031  0  -0.020929  -0.037341  0  3.993345  0
C  C224  1  0.70810477  0.64726367  0.84511809  1  -0.016029  0  -0.074929  -0.130699  0  3.926516  0
C  C225  1  0.20810723  0.84511708  0.64726459  1  -0.016022  0  -0.074861  -0.130635  0  3.9265  0
C  C226  1  0.68235811  0.67385097  0.78648709  1  -0.020082  0  -0.004389  0.081672  0  3.993982  0
C  C227  1  0.18235568  0.78648705  0.67385047  1  -0.020049  0  -0.004404  0.08167  0  3.993917  0
C  C228  1  0.58006455  0.70271916  0.77958495  1  0.016192  0  -0.005877  0.076946  0  4.004756  0
C  C229  1  0.08006293  0.77958610  0.70272025  1  0.016161  0  -0.00585  0.076882  0  4.004835  0
C  C230  1  0.50698283  0.70283149  0.83149842  1  -0.100848  0  -0.088873  -0.131533  0  3.99367  0
C  C231  1  0.00698266  0.83150085  0.70283335  1  -0.101106  0  -0.088825  -0.131315  0  3.993749  0
C  C232  1  0.53384932  0.67576250  0.88768141  1  -0.007795  0  -0.091375  -0.105299  0  4.012341  0
C  C233  1  0.03385112  0.88768234  0.67576391  1  -0.007968  0  -0.091378  -0.10539  0  4.012369  0
C  C234  1  0.75512090  0.67221987  0.73425402  1  -0.012388  0  -0.091348  -0.138351  0  3.978164  0
C  C235  1  0.25512164  0.73425286  0.67222021  1  -0.012362  0  -0.0914  -0.138373  0  3.978095  0
C  C236  1  0.72810696  0.69866252  0.67770520  1  -0.082768  0  -0.094017  -0.112661  0  4.015688  0
C  C237  1  0.22810768  0.67770466  0.69866164  1  -0.082695  0  -0.093901  -0.112622  0  4.015573  0
C  C238  1  0.62638480  0.72657270  0.67009634  1  -0.045752  0  -0.022349  -0.025433  0  4.000203  0
C  C239  1  0.12638443  0.67009653  0.72657292  1  -0.045809  0  -0.022369  -0.025416  0  4.000045  0
C  C240  1  0.55449810  0.72882560  0.72049922  1  -0.037724  0  -0.08087  -0.139312  0  3.928136  0
C  C241  1  0.05449973  0.72050104  0.72882489  1  -0.037734  0  -0.080847  -0.139195  0  3.927999  0
C  C242  1  0.59395968  0.74764218  0.60472440  1  1.533249  0  0.185251  0.546432  0  4.237074  0
C  C243  1  0.09395961  0.60472397  0.74764191  1  1.533254  0  0.185226  0.546389  0  4.237141  0
N  N244  1  0.42266138  0.54958840  0.53552489  1  -1.190252  0  -0.275357  0.032591  0  3.680745  0
N  N245  1  0.92266150  0.53552446  0.54958819  1  -1.190261  0  -0.275324  0.032623  0  3.680797  0
N  N246  1  0.47424727  0.59443002  0.12249982  1  -1.013503  0  -0.345133  -0.176378  0  3.416862  0
N  N247  1  0.97424728  0.12249928  0.59443038  1  -1.013478  0  -0.345115  -0.176356  0  3.416781  0
N  N248  1  0.39060047  0.61707588  0.23167956  1  -1.01153  0  -0.34462  -0.198714  0  3.456926  0
N  N249  1  0.89060015  0.23167976  0.61707623  1  -1.011522  0  -0.344624  -0.198752  0  3.456924  0
N  N250  1  0.36541388  0.69246262  0.15127216  1  -1.010718  0  -0.352738  -0.210587  0  3.421863  0
N  N251  1  0.86541238  0.15127234  0.69246234  1  -1.010796  0  -0.352735  -0.210584  0  3.421973  0
N  N252  1  0.27637097  0.57500271  0.12290729  1  -0.991196  0  -0.344689  -0.207759  0  3.420569  0
N  N253  1  0.77636980  0.12290763  0.57500310  1  -0.991088  0  -0.344721  -0.207813  0  3.420611  0
N  N254  1  0.94820830  0.50209338  0.96943514  1  -0.998828  0  -0.344718  -0.180918  0  3.407707  0
N  N255  1  0.44820799  0.96943512  0.50209385  1  -0.998839  0  -0.344762  -0.180927  0  3.40766  0
N  N256  1  0.02826479  0.48274598  0.85852657  1  -0.981214  0  -0.336942  -0.194883  0  3.427939  0
N  N257  1  0.52826513  0.85852640  0.48274571  1  -0.981213  0  -0.336963  -0.194941  0  3.427939  0
N  N258  1  0.06856453  0.41018225  0.93992976  1  -1.009703  0  -0.353206  -0.215699  0  3.421416  0
N  N259  1  0.56856482  0.93992962  0.41018266  1  -1.009688  0  -0.353212  -0.215667  0  3.421433  0
N  N260  1  0.14356474  0.53079847  0.96593008  1  -1.015613  0  -0.345986  -0.212074  0  3.422785  0
N  N261  1  0.64356454  0.96592967  0.53079880  1  -1.015633  0  -0.345979  -0.212094  0  3.422756  0
O  O262  1  0.47467297  0.63619678  0.48362098  1  -1.165366  0  -0.296402  -0.473427  0  2.391447  0
O  O263  1  0.97467283  0.48362098  0.63619623  1  -1.165385  0  -0.296397  -0.473436  0  2.391494  0
O  O264  1  0.55163186  0.47353187  0.00839330  1  -1.175406  0  -0.317612  -0.547881  0  2.326245  0
O  O265  1  0.05163120  0.00839351  0.47353264  1  -1.175354  0  -0.317589  -0.547849  0  2.326185  0
O  O266  1  0.70178955  0.44987507  0.95137547  1  -1.178207  0  -0.318602  -0.553471  0  2.319226  0
O  O267  1  0.20179064  0.95137646  0.44987535  1  -1.178166  0  -0.318609  -0.553501  0  2.319243  0
O  O268  1  0.37179484  0.09614054  0.60836687  1  -1.180123  0  -0.31768  -0.550111  0  2.337642  0
O  O269  1  0.87179733  0.60836769  0.09613996  1  -1.180169  0  -0.317698  -0.550147  0  2.337606  0
O  O270  1  0.21520345  0.13367486  0.64951282  1  -1.147758  0  -0.318394  -0.553882  0  2.318498  0
O  O271  1  0.71520530  0.64951095  0.13367638  1  -1.14769  0  -0.318402  -0.553877  0  2.318433  0
O  O272  1  0.67384891  0.50903625  0.14385525  1  -1.182493  0  -0.314659  -0.544468  0  2.354641  0
O  O273  1  0.17384830  0.14385608  0.50903704  1  -1.182519  0  -0.314657  -0.544452  0  2.354619  0
O  O274  1  0.81585737  0.46581235  0.08798193  1  -1.176449  0  -0.317697  -0.546866  0  2.333595  0
O  O275  1  0.31585568  0.08798232  0.46581139  1  -1.176414  0  -0.317739  -0.546919  0  2.333634  0
O  O276  1  0.91865062  0.28672408  0.47540412  1  -1.187147  0  -0.330536  -0.558995  0  2.121219  0
O  O277  1  0.41865241  0.47540416  0.28672415  1  -1.1872  0  -0.330559  -0.559051  0  2.121238  0
O  O278  1  0.81456191  0.36050212  0.53785861  1  -1.147782  0  -0.34493  -0.569246  0  2.276213  0
O  O279  1  0.31456137  0.53785943  0.36050215  1  -1.147776  0  -0.34494  -0.569325  0  2.276183  0
O  O280  1  0.59071531  0.61233282  0.99609849  1  -1.174619  0  -0.317052  -0.546263  0  2.337816  0
O  O281  1  0.09071450  0.99609825  0.61233314  1  -1.174597  0  -0.317066  -0.546246  0  2.337748  0
O  O282  1  0.33568968  0.74997589  0.47221847  1  -1.176257  0  -0.304688  -0.530453  0  2.362229  0
O  O283  1  0.83568952  0.47221818  0.74997570  1  -1.176267  0  -0.304677  -0.530445  0  2.362218  0
O  O284  1  0.31181156  0.68748298  0.36221844  1  -1.204318  0  -0.333619  -0.590804  0  2.424404  0
O  O285  1  0.81181105  0.36221807  0.68748271  1  -1.204316  0  -0.333624  -0.590827  0  2.424381  0
O  O286  1  0.56728344  0.61335634  0.34685443  1  -1.154288  0  -0.308507  -0.525099  0  2.367677  0
O  O287  1  0.06728423  0.34685433  0.61335653  1  -1.154256  0  -0.308551  -0.525182  0  2.367706  0
O  O288  1  0.58688571  0.72493506  0.40429294  1  -1.207222  0  -0.325076  -0.584922  0  2.416489  0
O  O289  1  0.08688671  0.40429087  0.72493383  1  -1.207572  0  -0.325152  -0.585016  0  2.416712  0
O  O290  1  0.75790761  0.59436295  0.95934934  1  -1.175669  0  -0.318377  -0.552655  0  2.35022  0
O  O291  1  0.25790725  0.95934985  0.59436313  1  -1.175641  0  -0.318391  -0.552692  0  2.350206  0
O  O292  1  0.65879980  0.74286017  0.55774453  1  -1.177734  0  -0.328167  -0.557961  0  2.160049  0
O  O293  1  0.15879942  0.55774368  0.74286020  1  -1.177822  0  -0.328196  -0.557984  0  2.160069  0
O  O294  1  0.49671660  0.76610296  0.59560120  1  -1.17298  0  -0.337867  -0.572355  0  2.222722  0
O  O295  1  0.99671648  0.59560147  0.76610273  1  -1.172967  0  -0.337841  -0.572344  0  2.222744  0
