# generated using pymatgen
data_Zn4H32C58N14O13
_symmetry_space_group_name_H-M   'P 1'
_cell_length_a   19.19827794
_cell_length_b   19.18853228
_cell_length_c   19.25852724
_cell_angle_alpha   85.54359995
_cell_angle_beta   89.49596263
_cell_angle_gamma   85.33626562
_symmetry_Int_Tables_number   1
_chemical_formula_structural   Zn4H32C58N14O13
_chemical_formula_sum   'Zn4 H32 C58 N14 O13'
_cell_volume   7049.69729986
_cell_formula_units_Z   1
loop_
 _symmetry_equiv_pos_site_id
 _symmetry_equiv_pos_as_xyz
  1  'x, y, z'
loop_
 _atom_site_type_symbol
 _atom_site_label
 _atom_site_symmetry_multiplicity
 _atom_site_fract_x
 _atom_site_fract_y
 _atom_site_fract_z
 _atom_site_occupancy
 _atom_site_pbe_bader_charge
 _atom_site_pbe_bader_spin_density
 _atom_site_pbe_cm5_charge
 _atom_site_pbe_ddec_charge
 _atom_site_pbe_ddec_spin_density
 _atom_site_pbe_ddec_sum_bond_order
 _atom_site_pbe_magmom
Zn  Zn0  1  0.44260389  0.44093487  0.56052500  1  1.317223  0  0.67993  0.969268  0  2.364484  0
Zn  Zn1  1  0.56337903  0.44197054  0.44399116  1  1.307303  0  0.672373  0.957231  0  2.383616  0
Zn  Zn2  1  0.55390475  0.55247121  0.55997107  1  1.317711  0  0.67746  0.966835  0  2.379228  0
Zn  Zn3  1  0.44018343  0.56590342  0.43448032  1  1.328668  0  0.694583  0.991106  0  2.297474  0
H  H4  1  0.40765693  0.52657297  0.08757089  1  0.130276  0  0.124188  0.135337  0  0.985269  0
H  H5  1  0.49388242  0.75348801  0.61249747  1  0.119061  0  0.112647  0.122317  0  0.99026  0
H  H6  1  0.92215129  0.40586540  0.50238576  1  0.117771  0  0.114033  0.117519  0  1.034933  0
H  H7  1  0.24159875  0.40159206  0.54785534  1  0.141805  0  0.130114  0.147129  0  0.96553  0
H  H8  1  0.72000818  0.51586700  0.17332029  1  0.025371  0  0.090252  0.117259  0  0.995706  0
H  H9  1  0.71088759  0.42415423  0.18102585  1  0.046214  0  0.08934  0.114908  0  0.998662  0
H  H10  1  0.76271718  0.46110340  0.11342308  1  0.050442  0  0.094495  0.124443  0  0.990686  0
H  H11  1  0.64954225  0.43500157  0.06408951  1  0.071711  0  0.102338  0.101371  0  0.962578  0
H  H12  1  0.65872632  0.52471137  0.05540105  1  0.052843  0  0.101345  0.097873  0  0.969533  0
H  H13  1  0.84436643  0.68371019  0.57348698  1  0.05726  0  0.086838  0.113763  0  1.005989  0
H  H14  1  0.93260921  0.64701190  0.57745605  1  0.026349  0  0.085513  0.110639  0  1.006908  0
H  H15  1  0.39906768  0.42916207  0.77553705  1  0.130707  0  0.12516  0.140674  0  0.967899  0
H  H16  1  0.91246695  0.73345566  0.53851029  1  0.031739  0  0.095299  0.127722  0  0.983556  0
H  H17  1  0.93660525  0.64967409  0.44612006  1  0.086073  0  0.098454  0.105442  0  1.018231  0
H  H18  1  0.84882830  0.68615310  0.44211531  1  0.060655  0  0.102337  0.108533  0  0.966926  0
H  H19  1  0.59924833  0.86560509  0.65969550  1  0.033442  0  0.088727  0.11686  0  0.996497  0
H  H20  1  0.57336430  0.95358205  0.62887039  1  0.016024  0  0.086036  0.112664  0  1.014859  0
H  H21  1  0.56101636  0.92546195  0.71811304  1  0.050474  0  0.092212  0.121583  0  0.991567  0
H  H22  1  0.44809424  0.93371668  0.65216645  1  0.066709  0  0.09876  0.093873  0  0.98408  0
H  H23  1  0.47172352  0.84645463  0.68608426  1  0.038784  0  0.097031  0.093695  0  0.967759  0
H  H24  1  0.87909292  0.30170715  0.48890847  1  0.036412  0  0.091713  0.12036  0  0.995349  0
H  H25  1  0.87533430  0.31753369  0.57852639  1  0.030272  0  0.092238  0.123039  0  0.992618  0
H  H26  1  0.61997462  0.48441750  0.23477402  1  0.118622  0  0.111455  0.119862  0  1.013901  0
H  H27  1  0.81949745  0.25915107  0.54482947  1  0.038889  0  0.094267  0.123527  0  0.992052  0
H  H28  1  0.74933149  0.36970519  0.56107676  1  0.045752  0  0.098114  0.09601  0  0.961663  0
H  H29  1  0.75587560  0.35714205  0.47233412  1  0.070375  0  0.100977  0.107723  0  0.968179  0
H  H30  1  0.56914542  0.55539874  0.90288524  1  0.111016  0  0.114688  0.118188  0  0.997842  0
H  H31  1  0.57501848  0.55463970  0.77237920  1  0.108119  0  0.11559  0.122887  0  0.980518  0
H  H32  1  0.44949487  0.08705342  0.58809169  1  0.143284  0  0.121461  0.12989  0  0.99486  0
H  H33  1  0.46813358  0.92183230  0.40367200  1  0.123943  0  0.120466  0.128315  0  0.99447  0
H  H34  1  0.54906459  0.23852541  0.39694045  1  0.105202  0  0.116641  0.124736  0  0.978503  0
H  H35  1  0.53959489  0.11015797  0.38324494  1  0.093457  0  0.119615  0.124286  0  0.972948  0
C  C36  1  0.50724878  0.50648492  0.31107966  1  1.598955  0  0.233531  0.606686  0  4.168466  0
C  C37  1  0.88317627  0.45044796  0.49747053  1  0.039223  0  -0.069457  -0.173914  0  3.901754  0
C  C38  1  0.48757935  0.49174214  0.76671907  1  0.040023  0  -0.008663  -0.029086  0  3.967267  0
C  C39  1  0.49169502  0.49177291  0.68925485  1  1.530818  0  0.229682  0.600249  0  4.176369  0
C  C40  1  0.53559101  0.52753538  0.80237833  1  -0.068416  0  -0.068385  -0.066335  0  3.949193  0
C  C41  1  0.53246630  0.52806528  0.87426022  1  0.005512  0  -0.07394  -0.137145  0  3.954889  0
C  C42  1  0.48078227  0.49331200  0.91177852  1  0.373712  0  0.109308  0.146496  0  4.005784  0
C  C43  1  0.43141606  0.45841513  0.87598077  1  0.091016  0  0.02287  0.020838  0  4.017869  0
C  C44  1  0.43580117  0.45705763  0.80343281  1  0.046526  0  -0.055333  -0.101214  0  3.87962  0
C  C45  1  0.45398388  0.51847853  0.12036498  1  0.06482  0  -0.056262  -0.151989  0  3.879226  0
C  C46  1  0.44819621  0.52036291  0.19258644  1  0.074659  0  0.019932  0.062199  0  4.049401  0
C  C47  1  0.09057860  0.48459297  0.47871906  1  0.391921  0  0.129229  0.128633  0  3.996997  0
C  C48  1  0.51954635  0.50580922  0.08910521  1  0.311682  0  0.09615  0.11518  0  4.021156  0
C  C49  1  0.50949654  0.50752759  0.23349725  1  -0.02035  0  0.006887  -0.039288  0  3.91595  0
C  C50  1  0.57431722  0.49464823  0.20132742  1  -0.042835  0  -0.078095  -0.144797  0  3.937746  0
C  C51  1  0.50702671  0.31207181  0.50288351  1  1.575579  0  0.2302  0.604121  0  4.179653  0
C  C52  1  0.58160813  0.49466282  0.12920113  1  0.041179  0  0.018265  0.087429  0  3.877961  0
C  C53  1  0.48371133  0.76505138  0.50167427  1  -0.034454  0  0.00816  -0.036957  0  3.909342  0
C  C54  1  0.48714833  0.79109405  0.56715981  1  0.031375  0  -0.074829  -0.144583  0  3.940087  0
C  C55  1  0.48215286  0.86279129  0.57617500  1  -0.022625  0  0.019363  0.091961  0  3.887425  0
C  C56  1  0.47712273  0.90939151  0.51544656  1  0.41921  0  0.098711  0.119848  0  4.007275  0
C  C57  1  0.47296706  0.88439182  0.44914932  1  -0.045965  0  -0.058913  -0.155822  0  3.883761  0
C  C58  1  0.11920392  0.54157659  0.44059777  1  0.142308  0  0.034245  -0.018287  0  3.969105  0
C  C59  1  0.47514510  0.81240280  0.44151017  1  0.144181  0  0.021525  0.064627  0  4.041566  0
C  C60  1  0.47051216  0.12064619  0.54618923  1  -0.000493  0  -0.058955  -0.162115  0  3.86611  0
C  C61  1  0.47444232  0.19218913  0.55345496  1  0.097844  0  0.02123  0.069716  0  4.034107  0
C  C62  1  0.49403519  0.09160483  0.48468615  1  0.34932  0  0.096139  0.175913  0  4.053071  0
C  C63  1  0.48899754  0.68727647  0.49838885  1  1.576678  0  0.235803  0.611661  0  4.159702  0
C  C64  1  0.50314677  0.23505144  0.49876792  1  -0.033194  0  0.001942  -0.05833  0  3.904305  0
C  C65  1  0.52689530  0.20490382  0.43813634  1  -0.015347  0  -0.071563  -0.074902  0  3.966256  0
C  C66  1  0.52178322  0.13406543  0.43047787  1  0.034947  0  -0.063505  -0.119499  0  3.923136  0
C  C67  1  0.68775790  0.49543757  0.50318068  1  1.59614  0  0.235609  0.615059  0  4.173147  0
C  C68  1  0.31338068  0.50159676  0.48863665  1  1.596782  0  0.234672  0.606263  0  4.174987  0
C  C69  1  0.19248788  0.54772574  0.44186756  1  0.131329  0  0.047601  0.061067  0  3.961573  0
C  C70  1  0.23603047  0.49705183  0.48184590  1  0.004595  0  0.006208  -0.054386  0  3.906621  0
C  C71  1  0.20711529  0.44005691  0.51755940  1  0.040052  0  -0.048538  -0.088387  0  3.889612  0
C  C72  1  0.13550833  0.43268545  0.51541096  1  0.119937  0  0.025953  0.017698  0  4.040403  0
C  C73  1  0.74034475  0.62955685  0.48261016  1  0.8062  0  0.175343  0.241504  0  4.046932  0
C  C74  1  0.37801593  0.42369873  0.91349779  1  0.844366  0  0.170774  0.222263  0  4.047082  0
C  C75  1  0.65176992  0.48092536  0.09471040  1  -0.039623  0  -0.154284  -0.145253  0  3.997939  0
C  C76  1  0.71448920  0.46999287  0.14359469  1  -0.087463  0  -0.240281  -0.35103  0  3.977458  0
C  C77  1  0.45099477  0.21801398  0.61816818  1  0.844907  0  0.171561  0.235675  0  4.027799  0
C  C78  1  0.88645648  0.65120046  0.47377515  1  -0.012449  0  -0.159038  -0.162175  0  3.971606  0
C  C79  1  0.89435772  0.68051405  0.54518681  1  -0.079731  0  -0.23597  -0.339928  0  3.939646  0
C  C80  1  0.86113427  0.57895816  0.48179510  1  0.090016  0  0.033132  0.07223  0  3.845634  0
C  C81  1  0.47211519  0.78995371  0.37258188  1  0.832005  0  0.174675  0.239564  0  4.01843  0
C  C82  1  0.48628128  0.88838606  0.64778912  1  -0.017274  0  -0.155579  -0.147591  0  3.991056  0
C  C83  1  0.55942172  0.90943338  0.66464904  1  -0.06495  0  -0.238476  -0.345804  0  3.952217  0
C  C84  1  0.07568718  0.59205744  0.39914069  1  0.870688  0  0.180144  0.22598  0  4.048024  0
C  C85  1  0.21806181  0.60736606  0.40394592  1  0.845388  0  0.179037  0.228553  0  4.006146  0
C  C86  1  0.78687529  0.36820341  0.51743855  1  -0.038364  0  -0.157225  -0.1443  0  3.978071  0
C  C87  1  0.84356325  0.30874251  0.53330359  1  -0.067042  0  -0.24014  -0.354859  0  3.973686  0
C  C88  1  0.10644485  0.37446878  0.55252965  1  0.871663  0  0.179224  0.234477  0  4.022745  0
C  C89  1  0.38006504  0.53070080  0.22248142  1  0.851779  0  0.174461  0.238431  0  4.019977  0
C  C90  1  0.78919987  0.56894818  0.48813153  1  0.023782  0  0.012753  -0.010503  0  4.026324  0
C  C91  1  0.90729929  0.51774368  0.48641896  1  0.286991  0  0.095302  0.111306  0  4.017886  0
C  C92  1  0.76513506  0.50126875  0.49833979  1  0.027797  0  0.01221  -0.083749  0  3.863687  0
C  C93  1  0.81242914  0.44062364  0.50357764  1  0.024758  0  0.006045  0.113107  0  3.924759  0
N  N94  1  0.01960175  0.47332431  0.48185972  1  -0.459209  0  -0.13704  -0.121694  0  3.294588  0
N  N95  1  0.47102721  0.77619357  0.31459518  1  -1.093072  0  -0.313393  -0.350696  0  2.658703  0
N  N96  1  0.04287325  0.63352434  0.36255607  1  -1.083112  0  -0.282787  -0.313533  0  2.67224  0
N  N97  1  0.23234584  0.65903140  0.37291929  1  -1.029645  0  -0.271573  -0.289436  0  2.6287  0
N  N98  1  0.08433104  0.32626318  0.58346712  1  -1.085976  0  -0.300094  -0.336857  0  2.65858  0
N  N99  1  0.32285373  0.53652743  0.24364604  1  -1.102081  0  -0.309444  -0.349604  0  2.678451  0
N  N100  1  0.97886577  0.52858444  0.48268570  1  -0.425159  0  -0.113386  -0.067809  0  3.267458  0
N  N101  1  0.47308506  0.49170226  0.98455028  1  -0.485315  0  -0.133322  -0.11502  0  3.270393  0
N  N102  1  0.52766987  0.50396288  0.01651876  1  -0.452178  0  -0.132055  -0.107483  0  3.277645  0
N  N103  1  0.47691631  0.98122005  0.52589460  1  -0.503381  0  -0.131511  -0.098965  0  3.287825  0
N  N104  1  0.49348819  0.01976210  0.47294235  1  -0.45263  0  -0.141671  -0.137049  0  3.250114  0
N  N105  1  0.70173849  0.67995934  0.47697491  1  -1.090226  0  -0.313631  -0.359797  0  2.677896  0
N  N106  1  0.33314467  0.39475475  0.94149867  1  -1.097119  0  -0.307246  -0.341418  0  2.67034  0
N  N107  1  0.43211692  0.23314523  0.67325056  1  -1.104841  0  -0.315648  -0.353702  0  2.664871  0
O  O108  1  0.49909540  0.50049046  0.49883736  1  -1.235988  0  -0.57066  -1.037242  0  2.522387  0
O  O109  1  0.66215656  0.45599957  0.46157547  1  -1.16304  0  -0.301772  -0.532863  0  2.337584  0
O  O110  1  0.34090766  0.54952936  0.45143864  1  -1.161076  0  -0.288255  -0.515868  0  2.363752  0
O  O111  1  0.65497682  0.53108211  0.54782012  1  -1.158502  0  -0.30127  -0.53085  0  2.342651  0
O  O112  1  0.34402444  0.45615829  0.53228343  1  -1.171987  0  -0.309002  -0.538774  0  2.343724  0
O  O113  1  0.46706866  0.34149339  0.54687297  1  -1.170683  0  -0.299761  -0.530198  0  2.377063  0
O  O114  1  0.45702862  0.66295751  0.44913655  1  -1.153163  0  -0.294833  -0.523137  0  2.342575  0
O  O115  1  0.55388843  0.46540360  0.34354330  1  -1.163596  0  -0.313813  -0.541035  0  2.331165  0
O  O116  1  0.53873539  0.52666128  0.65930585  1  -1.169916  0  -0.31202  -0.542759  0  2.346544  0
O  O117  1  0.45976024  0.54614032  0.33778874  1  -1.151818  0  -0.293142  -0.519204  0  2.358296  0
O  O118  1  0.44804021  0.45723083  0.65933974  1  -1.163568  0  -0.307522  -0.535499  0  2.331284  0
O  O119  1  0.54954706  0.34172846  0.46107798  1  -1.159455  0  -0.312618  -0.542782  0  2.333627  0
O  O120  1  0.52472301  0.65227662  0.54675127  1  -1.163308  0  -0.309662  -0.540097  0  2.353538  0
