# generated using pymatgen
data_SmH17C22N(O5F)2
_symmetry_space_group_name_H-M   'P 1'
_cell_length_a   9.63989990
_cell_length_b   10.72423840
_cell_length_c   13.08732652
_cell_angle_alpha   68.30547821
_cell_angle_beta   76.47876801
_cell_angle_gamma   63.95547964
_symmetry_Int_Tables_number   1
_chemical_formula_structural   SmH17C22N(O5F)2
_chemical_formula_sum   'Sm2 H34 C44 N2 O20 F4'
_cell_volume   1125.33231375
_cell_formula_units_Z   2
loop_
 _symmetry_equiv_pos_site_id
 _symmetry_equiv_pos_as_xyz
  1  'x, y, z'
loop_
 _atom_site_type_symbol
 _atom_site_label
 _atom_site_symmetry_multiplicity
 _atom_site_fract_x
 _atom_site_fract_y
 _atom_site_fract_z
 _atom_site_occupancy
 _atom_site_hle17_bader_spin_density
 _atom_site_hle17_ddec_charge
 _atom_site_hle17_ddec_spin_density
 _atom_site_hle17_ddec_sum_bond_order
 _atom_site_hle17_magmom
 _atom_site_hse06_10hf_bader_spin_density
 _atom_site_hse06_10hf_ddec_charge
 _atom_site_hse06_10hf_ddec_spin_density
 _atom_site_hse06_10hf_ddec_sum_bond_order
 _atom_site_hse06_10hf_magmom
 _atom_site_hse06_bader_spin_density
 _atom_site_hse06_ddec_charge
 _atom_site_hse06_ddec_spin_density
 _atom_site_hse06_ddec_sum_bond_order
 _atom_site_hse06_magmom
 _atom_site_pbe_bader_spin_density
 _atom_site_pbe_cm5_charge
 _atom_site_pbe_ddec_charge
 _atom_site_pbe_ddec_spin_density
 _atom_site_pbe_ddec_sum_bond_order
 _atom_site_pbe_magmom
Sm  Sm0  1  0.26882900  0.46632775  0.48790290  1  0  2.303652  0  1.628881  0  0  2.211409  0  1.983303  0  0  2.255297  0  1.939408  0  0  1.500644  2.113339  0  2.135911  0
Sm  Sm1  1  0.73117105  0.53367353  0.51209720  1  0  2.303614  0  1.628896  0  0  2.211369  0  1.983317  0  0  2.255252  0  1.939425  0  0  1.500605  2.113311  0  2.13588  0
H  H2  1  0.30142798  0.62046601  0.05263178  1  0  0.344423  0  0.949802  0  0  0.304296  0  1.041227  0  0  0.317956  0  1.028837  0  0  0.290159  0.294582  0  1.050197  0
H  H3  1  0.69857342  0.37953201  0.94736829  1  0  0.344409  0  0.949811  0  0  0.304285  0  1.041233  0  0  0.317945  0  1.028842  0  0  0.290149  0.294571  0  1.050197  0
H  H4  1  0.17231924  0.54144649  0.26191451  1  0  0.432828  0  0.866049  0  0  0.403766  0  0.927162  0  0  0.41476  0  0.911123  0  0  0.29835  0.395923  0  0.93841  0
H  H5  1  0.82768125  0.45855371  0.73808507  1  0  0.432821  0  0.866062  0  0  0.40376  0  0.927173  0  0  0.414752  0  0.911136  0  0  0.29835  0.395914  0  0.938422  0
H  H6  1  0.02388544  0.63271754  0.32231488  1  0  0.439795  0  0.856307  0  0  0.411457  0  0.916078  0  0  0.422014  0  0.900557  0  0  0.303059  0.403534  0  0.927442  0
H  H7  1  0.97611505  0.36728267  0.67768393  1  0  0.439749  0  0.856346  0  0  0.411417  0  0.91611  0  0  0.421972  0  0.900591  0  0  0.303043  0.403494  0  0.927475  0
H  H8  1  0.55317915  0.48150229  0.32762977  1  0  0.396734  0  0.880922  0  0  0.373797  0  0.950221  0  0  0.383653  0  0.938743  0  0  0.314143  0.366503  0  0.957866  0
H  H9  1  0.44682073  0.51849683  0.67236947  1  0  0.396716  0  0.880948  0  0  0.373783  0  0.950243  0  0  0.38364  0  0.938762  0  0  0.314146  0.366487  0  0.957898  0
H  H10  1  0.11144219  0.24651464  0.16829109  1  0  0.12822  0  0.962828  0  0  0.13328  0  1.032041  0  0  0.136297  0  1.030898  0  0  0.108632  0.13114  0  1.032847  0
H  H11  1  0.88855770  0.75348446  0.83170968  1  0  0.128186  0  0.962893  0  0  0.133241  0  1.032119  0  0  0.136258  0  1.030977  0  0  0.108621  0.131101  0  1.032923  0
H  H12  1  0.09608319  0.18999043  0.86167657  1  0  0.144478  0  0.914716  0  0  0.153309  0  0.972108  0  0  0.1579  0  0.968349  0  0  0.12116  0.150005  0  0.974803  0
H  H13  1  0.90391775  0.81000868  0.13832325  1  0  0.144498  0  0.914727  0  0  0.153327  0  0.97212  0  0  0.157917  0  0.96836  0  0  0.121165  0.150027  0  0.974816  0
H  H14  1  0.26914317  0.49939862  0.86055153  1  0  0.113892  0  0.956081  0  0  0.12002  0  1.023906  0  0  0.123799  0  1.020789  0  0  0.108635  0.117184  0  1.026531  0
H  H15  1  0.73085716  0.50059940  0.13944872  1  0  0.11388  0  0.956073  0  0  0.120011  0  1.023896  0  0  0.123791  0  1.02078  0  0  0.108625  0.117177  0  1.026521  0
H  H16  1  0.34958787  0.01699613  0.45309567  1  0  0.129503  0  0.921412  0  0  0.138897  0  0.980267  0  0  0.14351  0  0.976272  0  0  0.117021  0.135056  0  0.984489  0
H  H17  1  0.65041430  0.98300515  0.54690406  1  0  0.129507  0  0.921416  0  0  0.138888  0  0.980296  0  0  0.143502  0  0.9763  0  0  0.116995  0.135042  0  0.984518  0
H  H18  1  0.12063862  0.82943973  0.34039171  1  0  0.136216  0  0.948553  0  0  0.141599  0  1.016319  0  0  0.14613  0  1.01231  0  0  0.117971  0.138534  0  1.018745  0
H  H19  1  0.87936461  0.17056158  0.65960630  1  0  0.136197  0  0.948554  0  0  0.141562  0  1.01634  0  0  0.146096  0  1.012332  0  0  0.117947  0.138498  0  1.018769  0
H  H20  1  0.88240090  0.26960174  0.35642992  1  0  0.138959  0  0.942485  0  0  0.145378  0  1.006681  0  0  0.149509  0  1.004127  0  0  0.117398  0.142481  0  1.008305  0
H  H21  1  0.11759854  0.73039843  0.64357214  1  0  0.13896  0  0.942516  0  0  0.145417  0  1.006659  0  0  0.149548  0  1.004106  0  0  0.117397  0.142519  0  1.008281  0
H  H22  1  0.63175843  0.23581900  0.32929461  1  0  0.078548  0  0.96199  0  0  0.093061  0  1.030325  0  0  0.094057  0  1.029619  0  0  0.091483  0.09186  0  1.031522  0
H  H23  1  0.36824145  0.76418010  0.67070616  1  0  0.078565  0  0.962001  0  0  0.093076  0  1.030336  0  0  0.09407  0  1.029636  0  0  0.091487  0.091871  0  1.031538  0
H  H24  1  0.58237630  0.36843281  0.19656527  1  0  0.070224  0  0.95576  0  0  0.086044  0  1.026715  0  0  0.087288  0  1.024908  0  0  0.089432  0.084775  0  1.028644  0
H  H25  1  0.41762448  0.63156413  0.80343445  1  0  0.070183  0  0.955849  0  0  0.086033  0  1.026768  0  0  0.087275  0  1.024965  0  0  0.089415  0.08476  0  1.028694  0
H  H26  1  0.44508306  0.29582482  0.28463197  1  0  0.096745  0  0.947479  0  0  0.113868  0  1.011832  0  0  0.114961  0  1.011488  0  0  0.106576  0.11316  0  1.011687  0
H  H27  1  0.55491728  0.70417320  0.71536828  1  0  0.096709  0  0.947508  0  0  0.113834  0  1.011874  0  0  0.114928  0  1.011529  0  0  0.106551  0.113123  0  1.011726  0
H  H28  1  0.34121206  0.70318957  0.22161359  1  0  0.094181  0  0.965259  0  0  0.099202  0  1.033885  0  0  0.10207  0  1.031183  0  0  0.124763  0.097061  0  1.035787  0
H  H29  1  0.65878737  0.29681063  0.77838617  1  0  0.094152  0  0.965314  0  0  0.099199  0  1.033919  0  0  0.102066  0  1.031221  0  0  0.124748  0.097057  0  1.035824  0
H  H30  1  0.45072282  0.88564740  0.19095771  1  0  0.108991  0  0.957735  0  0  0.120386  0  1.015305  0  0  0.122772  0  1.015532  0  0  0.111943  0.118621  0  1.015437  0
H  H31  1  0.54927858  0.11435063  0.80904159  1  0  0.108978  0  0.957719  0  0  0.120359  0  1.015311  0  0  0.12275  0  1.015525  0  0  0.111935  0.118596  0  1.015445  0
H  H32  1  0.45400101  0.97353783  0.83926178  1  0  0.116706  0  0.936849  0  0  0.131929  0  0.985456  0  0  0.134945  0  0.984929  0  0  0.117398  0.129778  0  0.986054  0
H  H33  1  0.54600252  0.02646019  0.16073792  1  0  0.116704  0  0.936862  0  0  0.131931  0  0.985459  0  0  0.134946  0  0.984933  0  0  0.117404  0.129781  0  0.986054  0
H  H34  1  0.33991472  0.79115492  0.88652261  1  0  0.081316  0  0.943211  0  0  0.091598  0  1.004579  0  0  0.093912  0  1.002515  0  0  0.121406  0.089851  0  1.006222  0
H  H35  1  0.66008774  0.20884312  0.11347650  1  0  0.081321  0  0.943226  0  0  0.091614  0  1.00458  0  0  0.093913  0  1.002537  0  0  0.121406  0.089868  0  1.006223  0
C  C36  1  0.22584748  0.45841268  0.08104192  1  0  0.65315  0  3.841776  0  0  0.603292  0  4.137562  0  0  0.636605  0  4.130113  0  0  0.230768  0.580458  0  4.142592  0
C  C37  1  0.77415195  0.54158749  0.91895938  1  0  0.653146  0  3.841805  0  0  0.603305  0  4.137572  0  0  0.636618  0  4.13012  0  0  0.23076  0.580463  0  4.142606  0
C  C38  1  0.19459215  0.38082369  0.02030985  1  0  -0.056448  0  3.779694  0  0  -0.0314  0  4.018057  0  0  -0.040529  0  4.042975  0  0  -0.014928  -0.025674  0  4.001485  0
C  C39  1  0.80540880  0.61917541  0.97969073  1  0  -0.056531  0  3.779731  0  0  -0.031495  0  4.018108  0  0  -0.040622  0  4.043021  0  0  -0.014984  -0.025766  0  4.001536  0
C  C40  1  0.13299244  0.27496272  0.07878437  1  0  -0.164019  0  3.688264  0  0  -0.201522  0  3.941141  0  0  -0.201833  0  3.958967  0  0  -0.085381  -0.201222  0  3.929553  0
C  C41  1  0.86700850  0.72503639  0.92121545  1  0  -0.163812  0  3.688197  0  0  -0.201296  0  3.941065  0  0  -0.20161  0  3.958889  0  0  -0.085294  -0.200993  0  3.929477  0
C  C42  1  0.09916847  0.20935781  0.01940171  1  0  0.301208  0  3.792594  0  0  0.292781  0  4.078226  0  0  0.300757  0  4.089079  0  0  0.096532  0.286636  0  4.071591  0
C  C43  1  0.90083141  0.79064130  0.98059829  1  0  0.301142  0  3.792658  0  0  0.292687  0  4.078332  0  0  0.300665  0  4.089185  0  0  0.096497  0.286536  0  4.07171  0
C  C44  1  0.12437976  0.24376623  0.90524148  1  0  -0.163763  0  3.684637  0  0  -0.207231  0  3.945407  0  0  -0.206793  0  3.961024  0  0  -0.08402  -0.206628  0  3.934806  0
C  C45  1  0.87562012  0.75623288  0.09475853  1  0  -0.163814  0  3.684769  0  0  -0.20728  0  3.945542  0  0  -0.20684  0  3.961155  0  0  -0.084042  -0.206676  0  3.934949  0
C  C46  1  0.18776141  0.34852293  0.84799816  1  0  -0.039448  0  3.757087  0  0  -0.011708  0  3.99419  0  0  -0.020116  0  4.017186  0  0  -0.011131  -0.006895  0  3.979397  0
C  C47  1  0.81223954  0.65147618  0.15200166  1  0  -0.039498  0  3.757167  0  0  -0.011739  0  3.994245  0  0  -0.02015  0  4.017241  0  0  -0.011164  -0.006929  0  3.979457  0
C  C48  1  0.22216309  0.41677845  0.90552031  1  0  -0.07348  0  3.690027  0  0  -0.118568  0  3.947352  0  0  -0.116063  0  3.966621  0  0  -0.080161  -0.119734  0  3.934666  0
C  C49  1  0.77783634  0.58322174  0.09448022  1  0  -0.073431  0  3.689999  0  0  -0.118529  0  3.947326  0  0  -0.116023  0  3.966594  0  0  -0.080116  -0.119696  0  3.934643  0
C  C50  1  0.21853832  0.38738309  0.72554167  1  0  0.661746  0  3.893264  0  0  0.61149  0  4.188118  0  0  0.645602  0  4.17995  0  0  0.207857  0.589286  0  4.186813  0
C  C51  1  0.78146217  0.61261712  0.27445714  1  0  0.661706  0  3.893372  0  0  0.611457  0  4.188211  0  0  0.645571  0  4.180041  0  0  0.207822  0.589252  0  4.18691  0
C  C52  1  0.10893526  0.27807177  0.44182260  1  0  0.734056  0  3.841805  0  0  0.688639  0  4.13215  0  0  0.72429  0  4.119529  0  0  0.241015  0.664137  0  4.135206  0
C  C53  1  0.89106417  0.72192841  0.55817869  1  0  0.734182  0  3.841656  0  0  0.688792  0  4.131959  0  0  0.724443  0  4.119337  0  0  0.241036  0.664302  0  4.135  0
C  C54  1  0.11610938  0.15615693  0.40753559  1  0  -0.039571  0  3.732939  0  0  -0.014356  0  3.967989  0  0  -0.021889  0  3.99007  0  0  -0.009726  -0.010298  0  3.954923  0
C  C55  1  0.88389067  0.84384434  0.59246527  1  0  -0.039625  0  3.732875  0  0  -0.014417  0  3.967942  0  0  -0.021945  0  3.990017  0  0  -0.009748  -0.010362  0  3.954873  0
C  C56  1  0.24933203  0.02715240  0.42095678  1  0  -0.077524  0  3.670046  0  0  -0.122633  0  3.924351  0  0  -0.120098  0  3.941642  0  0  -0.076843  -0.124789  0  3.914844  0
C  C57  1  0.75066801  0.97284888  0.57904332  1  0  -0.077504  0  3.669944  0  0  -0.122602  0  3.924291  0  0  -0.120067  0  3.941582  0  0  -0.076833  -0.124751  0  3.914776  0
C  C58  1  0.25053286  0.90831465  0.39903871  1  0  -0.061166  0  3.763281  0  0  -0.033732  0  3.999927  0  0  -0.042258  0  4.023941  0  0  -0.018729  -0.028979  0  3.985518  0
C  C59  1  0.74946825  0.09168663  0.60096121  1  0  -0.061144  0  3.76322  0  0  -0.033772  0  3.99994  0  0  -0.042301  0  4.023957  0  0  -0.018746  -0.029022  0  3.985535  0
C  C60  1  0.12222233  0.92095747  0.35719800  1  0  -0.169367  0  3.710275  0  0  -0.210136  0  3.96854  0  0  -0.21075  0  3.985927  0  0  -0.0831  -0.209445  0  3.95774  0
C  C61  1  0.87777771  0.07904381  0.64280210  1  0  -0.169306  0  3.710275  0  0  -0.210027  0  3.968558  0  0  -0.210644  0  3.98595  0  0  -0.083043  -0.209348  0  3.957768  0
C  C62  1  0.99484631  0.05227217  0.34011707  1  0  0.30078  0  3.798102  0  0  0.289232  0  4.085789  0  0  0.297618  0  4.096849  0  0  0.093515  0.282628  0  4.079215  0
C  C63  1  0.00515419  0.94772800  0.65988481  1  0  0.300836  0  3.798074  0  0  0.289243  0  4.085826  0  0  0.297628  0  4.096886  0  0  0.093475  0.282655  0  4.07924  0
C  C64  1  0.98643184  0.16946641  0.36670285  1  0  -0.176381  0  3.695743  0  0  -0.211736  0  3.949281  0  0  -0.212734  0  3.966325  0  0  -0.082812  -0.210711  0  3.938509  0
C  C65  1  0.01356653  0.83053374  0.63330016  1  0  -0.176423  0  3.695729  0  0  -0.211788  0  3.949285  0  0  -0.212788  0  3.966327  0  0  -0.08277  -0.21077  0  3.938513  0
C  C66  1  0.38393313  0.76328974  0.42735298  1  0  0.705816  0  3.882067  0  0  0.660477  0  4.17642  0  0  0.694964  0  4.165445  0  0  0.229581  0.636935  0  4.177879  0
C  C67  1  0.61606691  0.23671155  0.57264635  1  0  0.705676  0  3.882174  0  0  0.660368  0  4.176509  0  0  0.69486  0  4.165531  0  0  0.229548  0.636828  0  4.177965  0
C  C68  1  0.53814453  0.32925000  0.28264427  1  0  -0.018569  0  3.637732  0  0  -0.113239  0  3.910369  0  0  -0.106977  0  3.913515  0  0  -0.149289  -0.117385  0  3.906361  0
C  C69  1  0.46185428  0.67074912  0.71735515  1  0  -0.018548  0  3.637825  0  0  -0.113238  0  3.910449  0  0  -0.106977  0  3.913597  0  0  -0.149284  -0.117379  0  3.906435  0
C  C70  1  0.36770245  0.76645697  0.13850233  1  0  0.143913  0  3.666475  0  0  0.110115  0  3.921941  0  0  0.117139  0  3.938238  0  0  0.057514  0.105919  0  3.911056  0
C  C71  1  0.63229849  0.23354215  0.86149672  1  0  0.143886  0  3.666484  0  0  0.110073  0  3.921936  0  0  0.117091  0  3.938235  0  0  0.057529  0.105879  0  3.91105  0
C  C72  1  0.42989220  0.86874371  0.11986823  1  0  -0.149326  0  3.684508  0  0  -0.169755  0  3.936689  0  0  -0.17773  0  3.959509  0  0  -0.076984  -0.164692  0  3.921689  0
C  C73  1  0.57010874  0.13125541  0.88013083  1  0  -0.149247  0  3.684419  0  0  -0.169664  0  3.936604  0  0  -0.177636  0  3.959429  0  0  -0.076958  -0.1646  0  3.921608  0
C  C74  1  0.46545030  0.94624092  0.01154201  1  0  0.087599  0  3.764565  0  0  0.099483  0  3.995721  0  0  0.102652  0  4.019452  0  0  0.014683  0.097416  0  3.980192  0
C  C75  1  0.53455171  0.05375819  0.98845763  1  0  0.087613  0  3.76453  0  0  0.099488  0  3.995701  0  0  0.102655  0  4.019432  0  0  0.014686  0.097419  0  3.980175  0
C  C76  1  0.43179685  0.91760253  0.92571794  1  0  -0.153026  0  3.703597  0  0  -0.171594  0  3.952568  0  0  -0.179476  0  3.974671  0  0  -0.076735  -0.166828  0  3.938341  0
C  C77  1  0.56820516  0.08239659  0.07428093  1  0  -0.153012  0  3.703587  0  0  -0.171579  0  3.952574  0  0  -0.179458  0  3.974672  0  0  -0.076736  -0.166814  0  3.93835  0
C  C78  1  0.36834555  0.81507741  0.95116832  1  0  0.136008  0  3.69773  0  0  0.101053  0  3.952871  0  0  0.107954  0  3.969995  0  0  0.055117  0.096015  0  3.941621  0
C  C79  1  0.63165539  0.18492170  0.04883150  1  0  0.136003  0  3.69775  0  0  0.101036  0  3.9529  0  0  0.107944  0  3.970023  0  0  0.055128  0.095993  0  3.941653  0
N  N80  1  0.33855064  0.73919444  0.05539781  1  0  -0.27999  0  3.207922  0  0  -0.214301  0  3.450254  0  0  -0.228647  0  3.465551  0  0  -0.304104  -0.204529  0  3.439979  0
N  N81  1  0.66145031  0.26080467  0.94460201  1  0  -0.280004  0  3.207926  0  0  -0.214316  0  3.45026  0  0  -0.228649  0  3.465542  0  0  -0.304127  -0.204537  0  3.439978  0
O  O82  1  0.19339305  0.43571205  0.18219086  1  0  -0.573138  0  1.970893  0  0  -0.520734  0  2.182376  0  0  -0.543795  0  2.175713  0  0  -0.283849  -0.504947  0  2.187037  0
O  O83  1  0.80660576  0.56428705  0.81780933  1  0  -0.573159  0  1.970903  0  0  -0.52076  0  2.182376  0  0  -0.543821  0  2.175713  0  0  -0.283846  -0.504969  0  2.187035  0
O  O84  1  0.28800470  0.55100779  0.01624699  1  0  -0.553453  0  2.15716  0  0  -0.504461  0  2.395148  0  0  -0.527987  0  2.382844  0  0  -0.326332  -0.487988  0  2.403645  0
O  O85  1  0.71199777  0.44899022  0.98375366  1  0  -0.553406  0  2.157139  0  0  -0.504412  0  2.395109  0  0  -0.527938  0  2.382804  0  0  -0.326303  -0.487941  0  2.403606  0
O  O86  1  0.17080824  0.33709779  0.67235734  1  0  -0.688853  0  2.013446  0  0  -0.638398  0  2.240163  0  0  -0.662545  0  2.229315  0  0  -0.357528  -0.614739  0  2.247362  0
O  O87  1  0.82919164  0.66290132  0.32764267  1  0  -0.68882  0  2.013465  0  0  -0.638376  0  2.240185  0  0  -0.662523  0  2.229337  0  0  -0.35752  -0.61472  0  2.247386  0
O  O88  1  0.29243990  0.47054888  0.67465526  1  0  -0.706687  0  2.031449  0  0  -0.65856  0  2.27174  0  0  -0.683492  0  2.262284  0  0  -0.358599  -0.634576  0  2.277678  0
O  O89  1  0.70756043  0.52944912  0.32534575  1  0  -0.706663  0  2.031489  0  0  -0.658536  0  2.271781  0  0  -0.683467  0  2.262323  0  0  -0.358565  -0.634551  0  2.277714  0
O  O90  1  0.13851340  0.59985723  0.31403277  1  0  -0.917771  0  1.849726  0  0  -0.881541  0  2.037855  0  0  -0.899527  0  2.004706  0  0  -0.640363  -0.860651  0  2.065746  0
O  O91  1  0.86148602  0.40014296  0.68596776  1  0  -0.917719  0  1.849755  0  0  -0.881497  0  2.037888  0  0  -0.899481  0  2.004742  0  0  -0.640354  -0.860609  0  2.065778  0
O  O92  1  0.47269748  0.44564648  0.33111203  1  0  -0.617425  0  2.20312  0  0  -0.556843  0  2.451809  0  0  -0.574892  0  2.441267  0  0  -0.465776  -0.536704  0  2.460172  0
O  O93  1  0.52730087  0.55435374  0.66888638  1  0  -0.617359  0  2.203129  0  0  -0.556792  0  2.451847  0  0  -0.574837  0  2.441296  0  0  -0.465759  -0.536656  0  2.460214  0
O  O94  1  0.23619874  0.28450758  0.44471366  1  0  -0.709028  0  2.001665  0  0  -0.666977  0  2.246711  0  0  -0.690893  0  2.233888  0  0  -0.3912  -0.641843  0  2.257753  0
O  O95  1  0.76379978  0.71549480  0.55528561  1  0  -0.709086  0  2.001658  0  0  -0.667022  0  2.246655  0  0  -0.69094  0  2.233835  0  0  -0.391194  -0.641898  0  2.257696  0
O  O96  1  0.97643330  0.36688394  0.46795219  1  0  -0.784949  0  2.068899  0  0  -0.744887  0  2.336997  0  0  -0.769001  0  2.3225  0  0  -0.408916  -0.715556  0  2.346646  0
O  O97  1  0.02356781  0.63311735  0.53204773  1  0  -0.785001  0  2.06885  0  0  -0.744947  0  2.336926  0  0  -0.769062  0  2.322428  0  0  -0.408927  -0.715623  0  2.346578  0
O  O98  1  0.35985946  0.65088866  0.43799764  1  0  -0.7851  0  2.092031  0  0  -0.7486  0  2.373243  0  0  -0.771375  0  2.35708  0  0  -0.418788  -0.719869  0  2.382758  0
O  O99  1  0.64013846  0.34911258  0.56200512  1  0  -0.785039  0  2.09215  0  0  -0.748522  0  2.373305  0  0  -0.771299  0  2.357147  0  0  -0.418722  -0.719793  0  2.382817  0
O  O100  1  0.51219042  0.75859985  0.44071612  1  0  -0.696698  0  1.996642  0  0  -0.657335  0  2.23674  0  0  -0.680278  0  2.225562  0  0  -0.378212  -0.633472  0  2.246451  0
O  O101  1  0.48781174  0.24140148  0.55927978  1  0  -0.696632  0  1.996688  0  0  -0.657272  0  2.236771  0  0  -0.680215  0  2.225588  0  0  -0.378222  -0.633409  0  2.246483  0
F  F102  1  0.87073581  0.06421601  0.29799820  1  0  -0.219748  0  1.193791  0  0  -0.162296  0  1.344866  0  0  -0.172272  0  1.33623  0  0  -0.099576  -0.154046  0  1.349465  0
F  F103  1  0.12926485  0.93578636  0.70200147  1  0  -0.21979  0  1.193819  0  0  -0.162318  0  1.344898  0  0  -0.172293  0  1.336261  0  0  -0.099574  -0.154071  0  1.349496  0
F  F104  1  0.03930772  0.10593210  0.07512260  1  0  -0.204762  0  1.181073  0  0  -0.157337  0  1.336907  0  0  -0.166488  0  1.328675  0  0  -0.103664  -0.150631  0  1.342559  0
F  F105  1  0.96069110  0.89406699  0.92487835  1  0  -0.204766  0  1.181141  0  0  -0.157336  0  1.336991  0  0  -0.166486  0  1.328759  0  0  -0.103649  -0.150623  0  1.342646  0
