# generated using pymatgen
data_AlH3C8O5F2
_symmetry_space_group_name_H-M   'P 1'
_cell_length_a   6.68230369
_cell_length_b   12.00146375
_cell_length_c   17.52073871
_cell_angle_alpha   89.93160841
_cell_angle_beta   89.49366856
_cell_angle_gamma   90.87604941
_symmetry_Int_Tables_number   1
_chemical_formula_structural   AlH3C8O5F2
_chemical_formula_sum   'Al4 H12 C32 O20 F8'
_cell_volume   1404.89779487
_cell_formula_units_Z   4
loop_
 _symmetry_equiv_pos_site_id
 _symmetry_equiv_pos_as_xyz
  1  'x, y, z'
loop_
 _atom_site_type_symbol
 _atom_site_label
 _atom_site_symmetry_multiplicity
 _atom_site_fract_x
 _atom_site_fract_y
 _atom_site_fract_z
 _atom_site_occupancy
 _atom_site_pbe_bader_charge
 _atom_site_pbe_bader_spin_density
 _atom_site_pbe_cm5_charge
 _atom_site_pbe_ddec_charge
 _atom_site_pbe_ddec_spin_density
 _atom_site_pbe_ddec_sum_bond_order
 _atom_site_pbe_magmom
Al  Al0  1  0.00060861  0.99787028  0.50206937  1  2.501002  0  0.401799  1.643997  0  2.577194  0
Al  Al1  1  0.50082087  0.00181671  0.50087112  1  2.505444  0  0.400903  1.645582  0  2.57442  0
Al  Al2  1  0.99918169  0.49819352  0.99913459  1  2.505187  0  0.401024  1.6458  0  2.574037  0
Al  Al3  1  0.49938266  0.50214860  0.99793582  1  2.500993  0  0.401951  1.644434  0  2.576439  0
H  H4  1  0.25274860  0.85867466  0.47506383  1  0.622876  0  0.355897  0.4385  0  0.84292  0
H  H5  1  0.76197788  0.13824954  0.47045627  1  0.628383  0  0.352402  0.433602  0  0.85198  0
H  H6  1  0.24725766  0.64132303  0.02494915  1  0.62444  0  0.35588  0.438501  0  0.842836  0
H  H7  1  0.73801892  0.36173860  0.02953843  1  0.628904  0  0.352429  0.43356  0  0.852065  0
H  H8  1  0.44398177  0.65971345  0.80459780  1  0.126585  0  0.120938  0.152394  0  0.990043  0
H  H9  1  0.05600035  0.84028124  0.69539087  1  0.126559  0  0.120936  0.152395  0  0.989988  0
H  H10  1  0.93755602  0.33285671  0.20204460  1  0.153602  0  0.116241  0.146039  0  1.004638  0
H  H11  1  0.56250642  0.16711585  0.29794714  1  0.153514  0  0.11616  0.145866  0  1.004571  0
H  H12  1  0.56422096  0.28315139  0.82154824  1  0.193517  0  0.117734  0.150146  0  1.0075  0
H  H13  1  0.93575258  0.21690291  0.67843638  1  0.192721  0  0.117668  0.150084  0  1.007425  0
H  H14  1  0.43883369  0.66310754  0.20011995  1  0.159448  0  0.116813  0.146897  0  1.000584  0
H  H15  1  0.06109456  0.83687152  0.29988518  1  0.159259  0  0.116977  0.147152  0  1.000598  0
C  C16  1  0.75208979  0.87178113  0.39427068  1  1.615582  0  0.26982  0.660459  0  4.091069  0
C  C17  1  0.73763280  0.87407890  0.60731921  1  1.607373  0  0.274948  0.665263  0  4.082189  0
C  C18  1  0.24800824  0.12305692  0.60835610  1  1.578478  0  0.274974  0.663789  0  4.082364  0
C  C19  1  0.25704476  0.12843429  0.39448790  1  1.616271  0  0.270175  0.66168  0  4.090383  0
C  C20  1  0.74788059  0.62822654  0.10574692  1  1.615449  0  0.270059  0.660962  0  4.091724  0
C  C21  1  0.76236279  0.62593346  0.89268655  1  1.607575  0  0.274908  0.665181  0  4.082367  0
C  C22  1  0.25198698  0.37695066  0.89163991  1  1.578489  0  0.274845  0.663866  0  4.082333  0
C  C23  1  0.24297459  0.37155713  0.10550790  1  1.616951  0  0.270419  0.66202  0  4.09006  0
C  C24  1  0.74060074  0.80831476  0.67966876  1  -0.003762  0  -0.011268  -0.118676  0  3.962884  0
C  C25  1  0.75939471  0.69168676  0.82033472  1  -0.003147  0  -0.011124  -0.118343  0  3.962885  0
C  C26  1  0.57085162  0.75586134  0.71210541  1  0.456455  0  0.106697  0.266541  0  4.041194  0
C  C27  1  0.92916908  0.74412362  0.78789175  1  0.456789  0  0.106832  0.266558  0  4.041159  0
C  C28  1  0.57851359  0.69910308  0.78089329  1  0.100237  0  -0.084291  -0.197535  0  3.964645  0
C  C29  1  0.92149654  0.80087601  0.71910503  1  0.100706  0  -0.084347  -0.197617  0  3.964564  0
C  C30  1  0.24953841  0.19256696  0.32124101  1  0.00753  0  -0.011326  -0.115436  0  3.949451  0
C  C31  1  0.25048369  0.30741198  0.17875993  1  0.008086  0  -0.011376  -0.115544  0  3.949494  0
C  C32  1  0.07574093  0.24100589  0.29217578  1  0.427441  0  0.106101  0.268817  0  4.027678  0
C  C33  1  0.42429008  0.25897640  0.20783541  1  0.427552  0  0.106153  0.268798  0  4.028361  0
C  C34  1  0.07517900  0.29672426  0.22289063  1  0.066343  0  -0.087149  -0.201475  0  3.974143  0
C  C35  1  0.42486399  0.20325059  0.27711027  1  0.066186  0  -0.087104  -0.201291  0  3.973884  0
C  C36  1  0.25295617  0.18787548  0.68106308  1  0.028179  0  -0.01128  -0.116748  0  3.962098  0
C  C37  1  0.24704091  0.31214795  0.81892151  1  0.028781  0  -0.011339  -0.117221  0  3.962385  0
C  C38  1  0.42747649  0.20751020  0.72338224  1  0.483681  0  0.107233  0.267679  0  4.036407  0
C  C39  1  0.07253623  0.29254580  0.77658747  1  0.460855  0  0.107007  0.267616  0  4.036787  0
C  C40  1  0.42606874  0.26847185  0.79048895  1  0.001684  0  -0.086243  -0.203611  0  3.973794  0
C  C41  1  0.07393189  0.23157827  0.70948250  1  0.023968  0  -0.085968  -0.203383  0  3.973376  0
C  C42  1  0.74667696  0.80743780  0.32110311  1  0.033013  0  -0.012365  -0.115856  0  3.949949  0
C  C43  1  0.75327681  0.69255565  0.17890825  1  0.056805  0  -0.012492  -0.115794  0  3.950214  0
C  C44  1  0.57370250  0.75667677  0.29098883  1  0.411342  0  0.105496  0.267992  0  4.031786  0
C  C45  1  0.92626554  0.74327589  0.20902938  1  0.388897  0  0.105596  0.26774  0  4.032155  0
C  C46  1  0.57596331  0.70095877  0.22181096  1  0.049135  0  -0.086603  -0.200844  0  3.973429  0
C  C47  1  0.92397934  0.79899879  0.27820899  1  0.04933  0  -0.086733  -0.201035  0  3.974015  0
O  O48  1  0.92475086  0.90295458  0.41687083  1  -1.253981  0  -0.235356  -0.590077  0  2.334369  0
O  O49  1  0.57063679  0.91036592  0.58516223  1  -1.24827  0  -0.226217  -0.57863  0  2.363213  0
O  O50  1  0.41185282  0.10938622  0.57255892  1  -1.245218  0  -0.232002  -0.589914  0  2.36064  0
O  O51  1  0.09237947  0.10935055  0.42922747  1  -1.253315  0  -0.235582  -0.602907  0  2.375598  0
O  O52  1  0.07678353  0.08773481  0.58721201  1  -1.253644  0  -0.22772  -0.573367  0  2.327905  0
O  O53  1  0.42928924  0.09709024  0.41560119  1  -1.2493  0  -0.234642  -0.586791  0  2.325403  0
O  O54  1  0.58633063  0.89142874  0.42731901  1  -1.244848  0  -0.235804  -0.600942  0  2.368255  0
O  O55  1  0.90556882  0.89007277  0.57377411  1  -1.255804  0  -0.232621  -0.587584  0  2.332552  0
O  O56  1  0.25012913  0.93168677  0.49862219  1  -1.422256  0  -0.446993  -0.9907  0  2.180604  0
O  O57  1  0.75406074  0.06865081  0.49861059  1  -1.427961  0  -0.447006  -0.987466  0  2.172694  0
O  O58  1  0.91366632  0.60857068  0.07271967  1  -1.244717  0  -0.235926  -0.601284  0  2.368306  0
O  O59  1  0.59441446  0.60990539  0.92621570  1  -1.256024  0  -0.232633  -0.587818  0  2.332827  0
O  O60  1  0.42320984  0.41225942  0.91279600  1  -1.2534  0  -0.227637  -0.573319  0  2.327798  0
O  O61  1  0.07073158  0.40289204  0.08438491  1  -1.249602  0  -0.234775  -0.587132  0  2.325589  0
O  O62  1  0.08813231  0.39063884  0.92742569  1  -1.245304  0  -0.231988  -0.589924  0  2.360706  0
O  O63  1  0.40762840  0.39067500  0.07077118  1  -1.253522  0  -0.235735  -0.603041  0  2.375673  0
O  O64  1  0.57523567  0.59703233  0.08314561  1  -1.253949  0  -0.23545  -0.590409  0  2.334628  0
O  O65  1  0.92936654  0.58967562  0.91485891  1  -1.248293  0  -0.226255  -0.578667  0  2.363203  0
O  O66  1  0.24986559  0.56832505  0.00137312  1  -1.42398  0  -0.446999  -0.99073  0  2.180381  0
O  O67  1  0.74593912  0.43135732  0.00140407  1  -1.428393  0  -0.447141  -0.987433  0  2.172562  0
F  F68  1  0.39271819  0.75679563  0.67543849  1  -0.626137  0  -0.089468  -0.130134  0  1.372506  0
F  F69  1  0.10730694  0.74317839  0.82455696  1  -0.626437  0  -0.089503  -0.130082  0  1.372561  0
F  F70  1  0.89944217  0.23613945  0.33164753  1  -0.631446  0  -0.090098  -0.133589  0  1.370446  0
F  F71  1  0.60059197  0.26386215  0.16837165  1  -0.631588  0  -0.090057  -0.133566  0  1.370651  0
F  F72  1  0.60470086  0.16441441  0.70039863  1  -0.628642  0  -0.082709  -0.123092  0  1.38419  0
F  F73  1  0.89532228  0.33564592  0.79957505  1  -0.628542  0  -0.082498  -0.12297  0  1.384242  0
F  F74  1  0.39595947  0.75908659  0.32939176  1  -0.629976  0  -0.091593  -0.13403  0  1.368704  0
F  F75  1  0.10403720  0.74088355  0.17063837  1  -0.630145  0  -0.091594  -0.133901  0  1.368841  0
