# generated using pymatgen
data_Zn4H16C40O29F4
_symmetry_space_group_name_H-M   'P 1'
_cell_length_a   23.83271432
_cell_length_b   23.83422007
_cell_length_c   23.83254575
_cell_angle_alpha   66.42370605
_cell_angle_beta   72.54703150
_cell_angle_gamma   107.46174128
_symmetry_Int_Tables_number   1
_chemical_formula_structural   Zn4H16C40O29F4
_chemical_formula_sum   'Zn8 H32 C80 O58 F8'
_cell_volume   10381.18719024
_cell_formula_units_Z   2
loop_
 _symmetry_equiv_pos_site_id
 _symmetry_equiv_pos_as_xyz
  1  'x, y, z'
loop_
 _atom_site_type_symbol
 _atom_site_label
 _atom_site_symmetry_multiplicity
 _atom_site_fract_x
 _atom_site_fract_y
 _atom_site_fract_z
 _atom_site_occupancy
 _atom_site_pbe_bader_charge
 _atom_site_pbe_bader_spin_density
 _atom_site_pbe_cm5_charge
 _atom_site_pbe_ddec_charge
 _atom_site_pbe_ddec_spin_density
 _atom_site_pbe_ddec_sum_bond_order
 _atom_site_pbe_magmom
Zn  Zn0  1  0.05688843  0.95733757  0.48578632  1  1.322764  0  0.685579  0.970591  0  2.367523  0
Zn  Zn1  1  0.05688739  0.09955327  0.45733728  1  1.322129  0  0.685553  0.970679  0  2.367278  0
Zn  Zn2  1  0.94310670  0.98578208  0.45733057  1  1.322306  0  0.685629  0.970715  0  2.367128  0
Zn  Zn3  1  0.94312331  0.95733354  0.59955634  1  1.322396  0  0.685527  0.970596  0  2.367467  0
Zn  Zn4  1  0.94311189  0.54266295  0.01421413  1  1.322766  0  0.685567  0.970545  0  2.367536  0
Zn  Zn5  1  0.05689510  0.51422147  0.04266780  1  1.322337  0  0.685681  0.970856  0  2.367163  0
Zn  Zn6  1  0.94311239  0.40044619  0.04266670  1  1.322094  0  0.685625  0.970895  0  2.367177  0
Zn  Zn7  1  0.05687466  0.54266124  0.90044575  1  1.322396  0  0.685579  0.970628  0  2.367565  0
H  H8  1  0.91905463  0.62837769  0.08601687  1  0.635743  0  0.310373  0.354732  0  0.963835  0
H  H9  1  0.08094011  0.58600588  0.12841876  1  0.635642  0  0.310294  0.35461  0  0.964119  0
H  H10  1  0.08050345  0.70103424  0.24269481  1  0.594842  0  0.317951  0.334859  0  0.929289  0
H  H11  1  0.91948083  0.74265487  0.20104607  1  0.595589  0  0.318077  0.335161  0  0.928949  0
H  H12  1  0.91951491  0.79898907  0.25728358  1  0.594917  0  0.317986  0.334846  0  0.929259  0
H  H13  1  0.08044925  0.75725792  0.29904608  1  0.595326  0  0.317864  0.334922  0  0.929205  0
H  H14  1  0.08089020  0.87155409  0.41405866  1  0.63638  0  0.310383  0.354852  0  0.963954  0
H  H15  1  0.91905634  0.91398866  0.37158859  1  0.635679  0  0.310308  0.35466  0  0.964087  0
H  H16  1  0.08095023  0.49489650  0.79069384  1  0.641291  0  0.310352  0.355002  0  0.964082  0
H  H17  1  0.91906792  0.29064042  0.99494670  1  0.640685  0  0.310208  0.354972  0  0.96429  0
H  H18  1  0.91949026  0.17680593  0.87947381  1  0.581248  0  0.317984  0.334924  0  0.929207  0
H  H19  1  0.08051231  0.37944434  0.67683956  1  0.581042  0  0.318113  0.335285  0  0.928857  0
H  H20  1  0.08045328  0.32318767  0.62052963  1  0.581846  0  0.317893  0.334664  0  0.929372  0
H  H21  1  0.91951693  0.12052478  0.82319104  1  0.58148  0  0.318047  0.335023  0  0.928947  0
H  H22  1  0.91905666  0.00507480  0.70933549  1  0.64106  0  0.310258  0.354946  0  0.964202  0
H  H23  1  0.08089077  0.20934222  0.50506578  1  0.640404  0  0.310333  0.354704  0  0.964207  0
H  H24  1  0.78559380  0.49492118  0.08598551  1  0.642347  0  0.310233  0.357803  0  0.958834  0
H  H25  1  0.78558914  0.29065036  0.12842235  1  0.642775  0  0.310275  0.357879  0  0.958928  0
H  H26  1  0.55628205  0.17680618  0.24271487  1  0.572232  0  0.318027  0.334891  0  0.929462  0
H  H27  1  0.55628756  0.37947019  0.20098691  1  0.600386  0  0.317843  0.334567  0  0.92968  0
H  H28  1  0.44372058  0.32319088  0.25730474  1  0.572355  0  0.318023  0.334973  0  0.929425  0
H  H29  1  0.44371618  0.12055437  0.29892199  1  0.601354  0  0.318125  0.335307  0  0.929077  0
H  H30  1  0.21440927  0.00509745  0.41394231  1  0.642628  0  0.310353  0.35789  0  0.958699  0
H  H31  1  0.21441407  0.20935466  0.37156916  1  0.642893  0  0.310223  0.357769  0  0.959104  0
H  H32  1  0.21441171  0.58596639  0.99491716  1  0.642251  0  0.310343  0.357909  0  0.958901  0
H  H33  1  0.21440353  0.62841514  0.79063227  1  0.641761  0  0.310208  0.357807  0  0.958929  0
H  H34  1  0.44371079  0.74271436  0.67679608  1  0.572773  0  0.318066  0.335019  0  0.929321  0
H  H35  1  0.44371806  0.70097146  0.87947292  1  0.601121  0  0.317932  0.334784  0  0.929571  0
H  H36  1  0.55629144  0.75730871  0.82319893  1  0.5726  0  0.31813  0.33513  0  0.92931  0
H  H37  1  0.55628134  0.79893808  0.62054796  1  0.600883  0  0.318001  0.335065  0  0.929326  0
H  H38  1  0.78558638  0.91396273  0.50509884  1  0.642535  0  0.31028  0.35785  0  0.958854  0
H  H39  1  0.78559845  0.87157688  0.70936720  1  0.64179  0  0.310228  0.357939  0  0.958824  0
C  C40  1  0.18439663  0.09221289  0.40778389  1  1.411803  0  0.222699  0.627303  0  4.126069  0
C  C41  1  0.99999608  0.13731443  0.36268608  1  1.620385  0  0.235129  0.649768  0  4.146434  0
C  C42  1  0.99998297  0.90779425  0.40781703  1  1.421388  0  0.222726  0.626954  0  4.125755  0
C  C43  1  0.81560742  0.90778392  0.59222275  1  1.411069  0  0.222849  0.627522  0  4.126366  0
C  C44  1  0.00000867  0.86268727  0.63731589  1  1.620479  0  0.235099  0.649784  0  4.146281  0
C  C45  1  0.99998799  0.09219797  0.59219801  1  1.425044  0  0.222654  0.627013  0  4.125688  0
C  C46  1  0.99999900  0.59218454  0.09220846  1  1.421976  0  0.222704  0.62708  0  4.12583  0
C  C47  1  0.00000785  0.36268972  0.13731563  1  1.620222  0  0.235004  0.649656  0  4.146349  0
C  C48  1  0.81560528  0.40779557  0.09219112  1  1.41111  0  0.222698  0.627218  0  4.125983  0
C  C49  1  0.99999821  0.40777910  0.90782306  1  1.424937  0  0.222767  0.6274  0  4.125752  0
C  C50  1  0.99999413  0.63731236  0.86268283  1  1.620491  0  0.235088  0.649833  0  4.146125  0
C  C51  1  0.18439055  0.59218998  0.90778135  1  1.410928  0  0.222848  0.627439  0  4.126508  0
C  C52  1  0.00000292  0.80528590  0.69471501  1  0.056062  0  -0.019068  -0.210712  0  3.957554  0
C  C53  1  0.00000011  0.69471464  0.80528455  1  0.056001  0  -0.019024  -0.210809  0  3.957726  0
C  C54  1  0.95759429  0.77673809  0.76566481  1  0.58523  0  0.10456  0.173618  0  4.054923  0
C  C55  1  0.04240891  0.72326298  0.73433447  1  0.586213  0  0.104528  0.173598  0  4.055042  0
C  C56  1  0.95759336  0.72325767  0.81914493  1  0.58115  0  0.104509  0.173557  0  4.055047  0
C  C57  1  0.04240964  0.77674267  0.68085470  1  0.580973  0  0.104505  0.173463  0  4.055001  0
C  C58  1  0.00000030  0.19471496  0.30528652  1  0.056707  0  -0.019001  -0.210741  0  3.957631  0
C  C59  1  0.00000410  0.30528983  0.19471440  1  0.056614  0  -0.019117  -0.210823  0  3.957702  0
C  C60  1  0.95759633  0.18085982  0.27673137  1  0.57932  0  0.104409  0.173616  0  4.054661  0
C  C61  1  0.04240804  0.31914477  0.22326919  1  0.579805  0  0.104478  0.173724  0  4.054932  0
C  C62  1  0.95759766  0.23434167  0.22325140  1  0.586945  0  0.10466  0.173572  0  4.055095  0
C  C63  1  0.04240715  0.26566336  0.27674886  1  0.58746  0  0.104569  0.173407  0  4.055373  0
C  C64  1  0.99999680  0.62866383  0.12868957  1  0.024808  0  -0.05328  -0.313244  0  4.028726  0
C  C65  1  0.95590228  0.65812449  0.13516223  1  0.563841  0  0.077129  0.209168  0  4.07403  0
C  C66  1  0.95625355  0.69303201  0.17034058  1  0.583413  0  0.065844  0.151289  0  4.065254  0
C  C67  1  0.99999457  0.69922066  0.19924161  1  0.216573  0  -0.028381  -0.086409  0  4.210322  0
C  C68  1  0.04373176  0.67031995  0.19306883  1  0.581241  0  0.065763  0.151378  0  4.064747  0
C  C69  1  0.04409093  0.63514683  0.15815651  1  0.564694  0  0.077091  0.209112  0  4.074035  0
C  C70  1  0.99999193  0.73457798  0.23459098  1  -0.368868  0  -0.041138  -0.102689  0  4.195936  0
C  C71  1  0.99998528  0.76540443  0.26543073  1  -0.161961  0  -0.040881  -0.102371  0  4.195745  0
C  C72  1  0.99997533  0.80074551  0.30079841  1  0.214753  0  -0.028426  -0.086321  0  4.209724  0
C  C73  1  0.95624536  0.82965519  0.30696128  1  0.583665  0  0.065704  0.151205  0  4.06507  0
C  C74  1  0.95588919  0.86482768  0.34187168  1  0.564591  0  0.077165  0.209085  0  4.074041  0
C  C75  1  0.99997020  0.87129525  0.37135541  1  0.024483  0  -0.05323  -0.313013  0  4.028704  0
C  C76  1  0.04405126  0.84181812  0.36490009  1  0.564454  0  0.077054  0.209045  0  4.074252  0
C  C77  1  0.04369480  0.80690330  0.32972956  1  0.583211  0  0.065864  0.151217  0  4.06459  0
C  C78  1  0.00001203  0.37129698  0.87134547  1  0.036506  0  -0.053176  -0.313122  0  4.028464  0
C  C79  1  0.04410986  0.40890943  0.79779334  1  0.546736  0  0.077212  0.209519  0  4.073693  0
C  C80  1  0.04375434  0.37338542  0.76323365  1  0.61452  0  0.065614  0.150954  0  4.065547  0
C  C81  1  0.00000567  0.30075298  0.80078546  1  0.143568  0  -0.028207  -0.086113  0  4.210153  0
C  C82  1  0.95626824  0.26319274  0.87342324  1  0.612425  0  0.065692  0.151254  0  4.064704  0
C  C83  1  0.95591285  0.29774385  0.90895608  1  0.560336  0  0.07707  0.209099  0  4.074277  0
C  C84  1  0.99999672  0.26540795  0.76542418  1  -0.367078  0  -0.041117  -0.102653  0  4.196052  0
C  C85  1  0.99998679  0.23457795  0.73458915  1  -0.15827  0  -0.040865  -0.102411  0  4.195847  0
C  C86  1  0.99997668  0.19922878  0.69923073  1  0.143544  0  -0.028303  -0.086234  0  4.209705  0
C  C87  1  0.04369698  0.23679277  0.62658907  1  0.613455  0  0.065949  0.151451  0  4.064428  0
C  C88  1  0.04405507  0.20223758  0.59105787  1  0.559431  0  0.077065  0.209073  0  4.073815  0
C  C89  1  0.99997435  0.12868202  0.62867228  1  0.036661  0  -0.053318  -0.313276  0  4.028496  0
C  C90  1  0.95589000  0.09106529  0.70223044  1  0.559511  0  0.077241  0.209331  0  4.073885  0
C  C91  1  0.95624777  0.12659051  0.73678815  1  0.613912  0  0.065614  0.15105  0  4.065283  0
C  C92  1  0.74264566  0.37131399  0.12867582  1  0.043188  0  -0.053357  -0.313366  0  4.028843  0
C  C93  1  0.70670589  0.40892950  0.13514530  1  0.547193  0  0.077051  0.209109  0  4.074488  0
C  C94  1  0.63662216  0.37340334  0.17031246  1  0.597383  0  0.066047  0.151659  0  4.06434  0
C  C95  1  0.60153898  0.30076374  0.19922664  1  0.186462  0  -0.028389  -0.086322  0  4.209556  0
C  C96  1  0.63661758  0.26320364  0.19306026  1  0.619546  0  0.065788  0.151375  0  4.064248  0
C  C97  1  0.70670377  0.29775726  0.15815076  1  0.556422  0  0.077061  0.20907  0  4.074847  0
C  C98  1  0.53083207  0.26541025  0.23457484  1  -0.097242  0  -0.041072  -0.102794  0  4.196057  0
C  C99  1  0.46916892  0.23458790  0.26539867  1  -0.414556  0  -0.041026  -0.102396  0  4.195981  0
C  C100  1  0.39846278  0.19924303  0.30073859  1  0.187638  0  -0.028316  -0.086327  0  4.209868  0
C  C101  1  0.36338462  0.23680354  0.30691349  1  0.619917  0  0.065797  0.151331  0  4.064429  0
C  C102  1  0.29329872  0.20224863  0.34182510  1  0.556417  0  0.077004  0.209098  0  4.07459  0
C  C103  1  0.25735524  0.12869664  0.37128100  1  0.042578  0  -0.05322  -0.313366  0  4.028493  0
C  C104  1  0.29329683  0.09108666  0.36479241  1  0.547266  0  0.077214  0.209477  0  4.073835  0
C  C105  1  0.36338041  0.12661110  0.32962262  1  0.597638  0  0.065733  0.15126  0  4.065078  0
C  C106  1  0.25735114  0.62865998  0.87130642  1  0.043553  0  -0.053261  -0.313201  0  4.028788  0
C  C107  1  0.29329569  0.63512239  0.90892598  1  0.546903  0  0.077148  0.209213  0  4.074595  0
C  C108  1  0.36338141  0.67029038  0.87340094  1  0.59764  0  0.065915  0.151452  0  4.064082  0
C  C109  1  0.39846074  0.69921158  0.80075796  1  0.187187  0  -0.028272  -0.086052  0  4.209517  0
C  C110  1  0.36337660  0.69304478  0.76319566  1  0.619616  0  0.065631  0.151134  0  4.064761  0
C  C111  1  0.29329110  0.65813640  0.79774799  1  0.556461  0  0.076972  0.208779  0  4.075076  0
C  C112  1  0.46916798  0.73457323  0.76540810  1  -0.414546  0  -0.041087  -0.102782  0  4.195938  0
C  C113  1  0.53083385  0.76540664  0.73458995  1  -0.096803  0  -0.040879  -0.102351  0  4.195996  0
C  C114  1  0.60154091  0.80075140  0.69924602  1  0.187247  0  -0.028252  -0.086233  0  4.210211  0
C  C115  1  0.63662355  0.80692659  0.73680922  1  0.619754  0  0.065667  0.151386  0  4.064616  0
C  C116  1  0.70670836  0.84183482  0.70225800  1  0.556619  0  0.07683  0.208691  0  4.075229  0
C  C117  1  0.74264669  0.87129604  0.62870190  1  0.043086  0  -0.05317  -0.313224  0  4.028617  0
C  C118  1  0.70670200  0.86481573  0.59108614  1  0.547807  0  0.077167  0.20936  0  4.074442  0
C  C119  1  0.63661879  0.82964294  0.62661024  1  0.596908  0  0.065593  0.150971  0  4.065368  0
O  O120  1  0.99999986  0.00000139  0.50000131  1  -1.235447  0  -0.573731  -1.028976  0  2.565593  0
O  O121  1  0.15285789  0.02578294  0.43358301  1  -1.187379  0  -0.312365  -0.557856  0  2.372068  0
O  O122  1  0.04027751  0.15565068  0.38462355  1  -1.154924  0  -0.310257  -0.539818  0  2.36198  0
O  O123  1  0.95935447  0.93359816  0.41354417  1  -1.183688  0  -0.312449  -0.55652  0  2.37196  0
O  O124  1  0.15286189  0.12710220  0.41354949  1  -1.18632  0  -0.312403  -0.557942  0  2.37172  0
O  O125  1  0.04062844  0.91354796  0.43360439  1  -1.184541  0  -0.312396  -0.556543  0  2.372272  0
O  O126  1  0.95971260  0.07510347  0.38462588  1  -1.158868  0  -0.310275  -0.539835  0  2.361827  0
O  O127  1  0.84714242  0.93357602  0.52579355  1  -1.187242  0  -0.31248  -0.558018  0  2.372197  0
O  O128  1  0.95973591  0.88462633  0.65565398  1  -1.15499  0  -0.31023  -0.539772  0  2.361741  0
O  O129  1  0.84714704  0.91353770  0.62711586  1  -1.185956  0  -0.312474  -0.558038  0  2.371994  0
O  O130  1  0.04028355  0.88462663  0.57510364  1  -1.159021  0  -0.310283  -0.539838  0  2.362067  0
O  O131  1  0.04062987  0.12709097  0.52576991  1  -1.185731  0  -0.312412  -0.556484  0  2.372069  0
O  O132  1  0.95936528  0.02576669  0.62709268  1  -1.185801  0  -0.312373  -0.556632  0  2.372323  0
O  O133  1  0.00000051  0.49999843  0.99999975  1  -1.235418  0  -0.573864  -1.029121  0  2.565739  0
O  O134  1  0.95935700  0.58643083  0.06641798  1  -1.184538  0  -0.312443  -0.556539  0  2.372217  0
O  O135  1  0.04028944  0.42490192  0.11537506  1  -1.159087  0  -0.310167  -0.539746  0  2.361996  0
O  O136  1  0.84714151  0.37290352  0.08644756  1  -1.185541  0  -0.312448  -0.558001  0  2.371767  0
O  O137  1  0.04064580  0.56640335  0.08645925  1  -1.184241  0  -0.312408  -0.55653  0  2.371873  0
O  O138  1  0.84714173  0.47422532  0.06639402  1  -1.18758  0  -0.312359  -0.557795  0  2.371817  0
O  O139  1  0.95972535  0.34435186  0.11537996  1  -1.154609  0  -0.310207  -0.539807  0  2.361734  0
O  O140  1  0.95934844  0.37288884  0.97424912  1  -1.185587  0  -0.31248  -0.55691  0  2.372046  0
O  O141  1  0.04026210  0.61536746  0.84434472  1  -1.155061  0  -0.310282  -0.539824  0  2.36174  0
O  O142  1  0.04062885  0.47420804  0.87293199  1  -1.186434  0  -0.312445  -0.556733  0  2.372543  0
O  O143  1  0.95972365  0.61537739  0.92489494  1  -1.158921  0  -0.31022  -0.53977  0  2.361868  0
O  O144  1  0.15285918  0.56640411  0.97420992  1  -1.187336  0  -0.312485  -0.558129  0  2.372257  0
O  O145  1  0.15285111  0.58645309  0.87288441  1  -1.186001  0  -0.312453  -0.558012  0  2.372149  0
O  O146  1  0.91292411  0.65449672  0.10886702  1  -1.122859  0  -0.34834  -0.40486  0  2.266684  0
O  O147  1  0.08706350  0.60885287  0.15454315  1  -1.123097  0  -0.348191  -0.404815  0  2.267186  0
O  O148  1  0.08652691  0.67523731  0.22034547  1  -1.10789  0  -0.344393  -0.390824  0  2.274978  0
O  O149  1  0.91346054  0.72030621  0.17524547  1  -1.108385  0  -0.344636  -0.391167  0  2.27492  0
O  O150  1  0.91347121  0.82476100  0.27965778  1  -1.108041  0  -0.344423  -0.390731  0  2.274849  0
O  O151  1  0.08647412  0.77961172  0.32483948  1  -1.108333  0  -0.344328  -0.390834  0  2.27486  0
O  O152  1  0.08700348  0.84541514  0.39122876  1  -1.123978  0  -0.348391  -0.405014  0  2.26692  0
O  O153  1  0.91292811  0.89113682  0.34546925  1  -1.123071  0  -0.348251  -0.40484  0  2.266961  0
O  O154  1  0.08708688  0.47817469  0.75844493  1  -1.114506  0  -0.348403  -0.405401  0  2.26675  0
O  O155  1  0.91294661  0.25839240  0.97822347  1  -1.127892  0  -0.348162  -0.405276  0  2.267209  0
O  O156  1  0.91347052  0.19312760  0.91129868  1  -1.091611  0  -0.344569  -0.390974  0  2.274732  0
O  O157  1  0.08654658  0.41126195  0.69317022  1  -1.092202  0  -0.344457  -0.391089  0  2.275286  0
O  O158  1  0.08647965  0.30686114  0.58870932  1  -1.092538  0  -0.344462  -0.390677  0  2.275084  0
O  O159  1  0.91347178  0.08870934  0.80685902  1  -1.092313  0  -0.344509  -0.390888  0  2.274751  0
O  O160  1  0.91292367  0.02179714  0.74158351  1  -1.127921  0  -0.34827  -0.405271  0  2.266833  0
O  O161  1  0.08700855  0.24159245  0.52178541  1  -1.126911  0  -0.348297  -0.404913  0  2.267095  0
O  O162  1  0.73662411  0.47820057  0.10883332  1  -1.133491  0  -0.348155  -0.406898  0  2.263423  0
O  O163  1  0.73661816  0.25840233  0.15455083  1  -1.131348  0  -0.348196  -0.406926  0  2.26391  0
O  O164  1  0.60442898  0.19313480  0.22034912  1  -1.087479  0  -0.344523  -0.390835  0  2.274966  0
O  O165  1  0.60443567  0.41128682  0.17520890  1  -1.116435  0  -0.34445  -0.390662  0  2.275096  0
O  O166  1  0.39557388  0.30686777  0.27964557  1  -1.087759  0  -0.344524  -0.390924  0  2.27517  0
O  O167  1  0.39556791  0.08873601  0.32470366  1  -1.11787  0  -0.344538  -0.39125  0  2.275182  0
O  O168  1  0.26338000  0.02182070  0.39108097  1  -1.133653  0  -0.348426  -0.407098  0  2.263161  0
O  O169  1  0.26338481  0.24160297  0.34543854  1  -1.131685  0  -0.348168  -0.406888  0  2.263854  0
O  O170  1  0.26338176  0.60880356  0.97819928  1  -1.133181  0  -0.348372  -0.407005  0  2.26385  0
O  O171  1  0.26337383  0.65453841  0.75838770  1  -1.130704  0  -0.34806  -0.406629  0  2.263869  0
O  O172  1  0.39556324  0.72034328  0.69312210  1  -1.088583  0  -0.344522  -0.390907  0  2.274779  0
O  O173  1  0.39557075  0.67518285  0.91128879  1  -1.117289  0  -0.344528  -0.390878  0  2.275039  0
O  O174  1  0.60443848  0.77965475  0.80687590  1  -1.088237  0  -0.344631  -0.391145  0  2.274802  0
O  O175  1  0.60442804  0.82473026  0.58873001  1  -1.117  0  -0.344393  -0.39089  0  2.275423  0
O  O176  1  0.73661548  0.89110852  0.52181747  1  -1.133513  0  -0.348254  -0.406954  0  2.263392  0
O  O177  1  0.73662765  0.84544945  0.74161315  1  -1.130968  0  -0.348013  -0.40678  0  2.263909  0
F  F178  1  0.91479037  0.79928510  0.78591747  1  -0.601271  0  -0.076533  -0.086917  0  1.397151  0
F  F179  1  0.08521239  0.70071552  0.71408254  1  -0.601307  0  -0.07659  -0.086963  0  1.397209  0
F  F180  1  0.91479016  0.70070553  0.88449737  1  -0.598903  0  -0.076561  -0.086955  0  1.397207  0
F  F181  1  0.08521172  0.79929421  0.61550325  1  -0.598958  0  -0.076547  -0.086908  0  1.397213  0
F  F182  1  0.91479373  0.11551073  0.29927159  1  -0.599443  0  -0.076591  -0.087061  0  1.396953  0
F  F183  1  0.08521084  0.38449458  0.20072863  1  -0.59964  0  -0.076555  -0.087037  0  1.397264  0
F  F184  1  0.91479505  0.21409088  0.20069531  1  -0.60133  0  -0.076586  -0.086887  0  1.397218  0
F  F185  1  0.08520868  0.28591255  0.29930675  1  -0.600924  0  -0.076605  -0.086861  0  1.397508  0
