# generated using pymatgen
data_ZnH18C26N4O5
_symmetry_space_group_name_H-M   'P 1'
_cell_length_a   10.23462504
_cell_length_b   10.97195896
_cell_length_c   11.68036297
_cell_angle_alpha   84.37145661
_cell_angle_beta   77.86695933
_cell_angle_gamma   62.17738853
_symmetry_Int_Tables_number   1
_chemical_formula_structural   ZnH18C26N4O5
_chemical_formula_sum   'Zn2 H36 C52 N8 O10'
_cell_volume   1134.09244543
_cell_formula_units_Z   2
loop_
 _symmetry_equiv_pos_site_id
 _symmetry_equiv_pos_as_xyz
  1  'x, y, z'
loop_
 _atom_site_type_symbol
 _atom_site_label
 _atom_site_symmetry_multiplicity
 _atom_site_fract_x
 _atom_site_fract_y
 _atom_site_fract_z
 _atom_site_occupancy
 _atom_site_hle17_bader_spin_density
 _atom_site_hle17_ddec_charge
 _atom_site_hle17_ddec_spin_density
 _atom_site_hle17_ddec_sum_bond_order
 _atom_site_hle17_magmom
 _atom_site_hse06_10hf_bader_spin_density
 _atom_site_hse06_10hf_ddec_charge
 _atom_site_hse06_10hf_ddec_spin_density
 _atom_site_hse06_10hf_ddec_sum_bond_order
 _atom_site_hse06_10hf_magmom
 _atom_site_hse06_bader_spin_density
 _atom_site_hse06_ddec_charge
 _atom_site_hse06_ddec_spin_density
 _atom_site_hse06_ddec_sum_bond_order
 _atom_site_hse06_magmom
 _atom_site_pbe_bader_spin_density
 _atom_site_pbe_cm5_charge
 _atom_site_pbe_ddec_charge
 _atom_site_pbe_ddec_spin_density
 _atom_site_pbe_ddec_sum_bond_order
 _atom_site_pbe_magmom
Zn  Zn0  1  0.20412327  0.59156743  0.25003442  1  0  0.979028  0  1.873948  0  0  0.786358  0  2.350059  0  0  0.836033  0  2.293961  0  0  0.683091  0.751626  0  2.388914  0
Zn  Zn1  1  0.79587652  0.40843263  0.74996592  1  0  0.978988  0  1.873979  0  0  0.786356  0  2.350095  0  0  0.836007  0  2.293992  0  0  0.683088  0.751611  0  2.388948  0
H  H2  1  0.19795747  0.08377117  0.77337726  1  0  0.122458  0  0.939344  0  0  0.132983  0  0.998087  0  0  0.136572  0  0.996307  0  0  0.10887  0.130394  0  0.999464  0
H  H3  1  0.71789026  0.08366546  0.72663589  1  0  0.122804  0  0.939555  0  0  0.13345  0  0.997966  0  0  0.137018  0  0.996225  0  0  0.109075  0.130872  0  0.999326  0
H  H4  1  0.80204332  0.91622889  0.22662290  1  0  0.122443  0  0.939342  0  0  0.132969  0  0.998084  0  0  0.136558  0  0.996305  0  0  0.108866  0.13038  0  0.999461  0
H  H5  1  0.28210952  0.91633460  0.27336274  1  0  0.1228  0  0.939577  0  0  0.133445  0  0.997988  0  0  0.137012  0  0.996248  0  0  0.10907  0.130867  0  0.999349  0
H  H6  1  0.08964924  0.95734027  0.91849278  1  0  0.102231  0  0.956012  0  0  0.111201  0  1.017616  0  0  0.114575  0  1.014971  0  0  0.10448  0.108755  0  1.019523  0
H  H7  1  0.95249926  0.95729780  0.58142864  1  0  0.102935  0  0.955627  0  0  0.111422  0  1.017745  0  0  0.114716  0  1.015198  0  0  0.104693  0.109034  0  1.019588  0
H  H8  1  0.91035107  0.04265876  0.08150756  1  0  0.102225  0  0.956031  0  0  0.111191  0  1.017636  0  0  0.114567  0  1.014989  0  0  0.104477  0.108745  0  1.019542  0
H  H9  1  0.04750053  0.04270226  0.41857170  1  0  0.102952  0  0.955623  0  0  0.111439  0  1.017741  0  0  0.114732  0  1.015196  0  0  0.104702  0.10905  0  1.019584  0
H  H10  1  0.54216426  0.29506233  0.67892871  1  0  0.094563  0  0.921714  0  0  0.104814  0  0.986542  0  0  0.107139  0  0.98339  0  0  0.122797  0.103043  0  0.989016  0
H  H11  1  0.16279240  0.29530631  0.82096874  1  0  0.095637  0  0.922963  0  0  0.10541  0  0.987922  0  0  0.107722  0  0.984776  0  0  0.122999  0.103637  0  0.990393  0
H  H12  1  0.45783652  0.70493773  0.32107059  1  0  0.094564  0  0.921717  0  0  0.104814  0  0.986547  0  0  0.10714  0  0.983394  0  0  0.122799  0.103044  0  0.989019  0
H  H13  1  0.83720790  0.70469272  0.17903074  1  0  0.095628  0  0.922981  0  0  0.105401  0  0.987945  0  0  0.107713  0  0.984799  0  0  0.123001  0.103629  0  0.990416  0
H  H14  1  0.61605352  0.87082543  0.89839632  1  0  0.105048  0  0.968878  0  0  0.115342  0  1.030473  0  0  0.117572  0  1.031726  0  0  0.099781  0.113664  0  1.029857  0
H  H15  1  0.51266495  0.87075152  0.60179318  1  0  0.105356  0  0.969206  0  0  0.114915  0  1.03161  0  0  0.117127  0  1.032889  0  0  0.099772  0.113303  0  1.030925  0
H  H16  1  0.38394726  0.12917463  0.10160384  1  0  0.105085  0  0.968824  0  0  0.115354  0  1.030443  0  0  0.117584  0  1.031696  0  0  0.099788  0.113677  0  1.029828  0
H  H17  1  0.48733587  0.12924648  0.39820630  1  0  0.10532  0  0.969212  0  0  0.114883  0  1.031602  0  0  0.117096  0  1.032881  0  0  0.099753  0.113272  0  1.030917  0
H  H18  1  0.71518383  0.22646307  0.48504735  1  0  0.125181  0  0.965058  0  0  0.133909  0  1.027045  0  0  0.137027  0  1.024808  0  0  0.112318  0.131536  0  1.028776  0
H  H19  1  0.05852331  0.22659478  0.01468312  1  0  0.124667  0  0.964769  0  0  0.13333  0  1.026962  0  0  0.136399  0  1.024855  0  0  0.112155  0.130961  0  1.02867  0
H  H20  1  0.28481695  0.77353699  0.51495195  1  0  0.125174  0  0.965109  0  0  0.133913  0  1.027084  0  0  0.137027  0  1.024847  0  0  0.112318  0.131542  0  1.028815  0
H  H21  1  0.94147647  0.77340528  0.98531636  1  0  0.124666  0  0.964785  0  0  0.133331  0  1.026976  0  0  0.1364  0  1.024867  0  0  0.112155  0.130961  0  1.028684  0
H  H22  1  0.50580411  0.74390796  0.04478053  1  0  0.097286  0  0.972425  0  0  0.10053  0  1.046008  0  0  0.10425  0  1.043235  0  0  0.098589  0.097836  0  1.048024  0
H  H23  1  0.74993241  0.74388143  0.45525723  1  0  0.097363  0  0.971612  0  0  0.10052  0  1.045449  0  0  0.104224  0  1.042729  0  0  0.098318  0.097827  0  1.047482  0
H  H24  1  0.49419668  0.25609210  0.95521962  1  0  0.097271  0  0.972457  0  0  0.100514  0  1.046037  0  0  0.104236  0  1.043257  0  0  0.098598  0.097822  0  1.048055  0
H  H25  1  0.25006790  0.25611760  0.54474396  1  0  0.097353  0  0.97159  0  0  0.100509  0  1.045431  0  0  0.104212  0  1.042711  0  0  0.098312  0.097815  0  1.047463  0
H  H26  1  0.53098904  0.40064911  0.17221868  1  0  0.088033  0  0.925725  0  0  0.09669  0  0.988517  0  0  0.099137  0  0.98644  0  0  0.120236  0.094779  0  0.99021  0
H  H27  1  0.06856345  0.40033342  0.32771768  1  0  0.088082  0  0.926078  0  0  0.096996  0  0.988543  0  0  0.099453  0  0.986442  0  0  0.120577  0.095089  0  0.99024  0
H  H28  1  0.46901075  0.59935095  0.82778080  1  0  0.088059  0  0.925702  0  0  0.096718  0  0.988494  0  0  0.099166  0  0.986417  0  0  0.120247  0.094807  0  0.990188  0
H  H29  1  0.93143633  0.59966664  0.67228180  1  0  0.088066  0  0.926093  0  0  0.096982  0  0.988557  0  0  0.099438  0  0.986457  0  0  0.120569  0.095074  0  0.990255  0
H  H30  1  0.24350513  0.50121602  0.49499635  1  0  0.089557  0  0.937643  0  0  0.094148  0  1.005982  0  0  0.097419  0  1.003006  0  0  0.122372  0.091758  0  1.008188  0
H  H31  1  0.25508715  0.50143672  0.00506228  1  0  0.089171  0  0.937743  0  0  0.093904  0  1.006265  0  0  0.097098  0  1.003361  0  0  0.122399  0.091559  0  1.008423  0
H  H32  1  0.75649517  0.49878301  0.50500399  1  0  0.089549  0  0.937636  0  0  0.094147  0  1.005972  0  0  0.097416  0  1.002998  0  0  0.12238  0.091756  0  1.008177  0
H  H33  1  0.74491363  0.49856334  0.99493702  1  0  0.089161  0  0.937771  0  0  0.093897  0  1.006286  0  0  0.097091  0  1.003382  0  0  0.1224  0.091552  0  1.008443  0
H  H34  1  0.75240731  0.24807569  0.26499518  1  0  0.104919  0  0.946224  0  0  0.118009  0  0.999373  0  0  0.120552  0  0.999256  0  0  0.110482  0.116183  0  0.9996  0
H  H35  1  0.99969112  0.24798134  0.23475136  1  0  0.105374  0  0.945883  0  0  0.118377  0  0.999109  0  0  0.120966  0  0.998931  0  0  0.110735  0.116508  0  0.999398  0
H  H36  1  0.24759348  0.75192436  0.73500497  1  0  0.104925  0  0.946216  0  0  0.118013  0  0.999362  0  0  0.120556  0  0.999246  0  0  0.110487  0.116188  0  0.999589  0
H  H37  1  0.00030767  0.75201872  0.76524916  1  0  0.10537  0  0.945892  0  0  0.118376  0  0.999114  0  0  0.120965  0  0.998935  0  0  0.11074  0.116506  0  0.999403  0
C  C38  1  0.29216248  0.84030221  0.98920943  1  0  -0.097693  0  3.787937  0  0  -0.075135  0  4.018495  0  0  -0.085653  0  4.04359  0  0  -0.031705  -0.068284  0  4.001512  0
C  C39  1  0.86701654  0.84030439  0.51080546  1  0  -0.096129  0  3.788692  0  0  -0.072641  0  4.017679  0  0  -0.083191  0  4.042835  0  0  -0.03152  -0.06577  0  4.000665  0
C  C40  1  0.70783778  0.15969888  0.01078987  1  0  -0.09769  0  3.78778  0  0  -0.075193  0  4.01842  0  0  -0.085711  0  4.043513  0  0  -0.031734  -0.068342  0  4.001437  0
C  C41  1  0.13298376  0.15969464  0.48919488  1  0  -0.096108  0  3.788713  0  0  -0.072621  0  4.0177  0  0  -0.083169  0  4.042856  0  0  -0.031508  -0.065758  0  4.000697  0
C  C42  1  0.26513451  0.00880613  0.83259716  1  0  -0.182162  0  3.739821  0  0  -0.204849  0  3.996716  0  0  -0.210783  0  4.015753  0  0  -0.099462  -0.20076  0  3.983838  0
C  C43  1  0.72556309  0.00874335  0.66745414  1  0  -0.183338  0  3.739941  0  0  -0.205876  0  3.997356  0  0  -0.21181  0  4.016371  0  0  -0.099998  -0.201793  0  3.984491  0
C  C44  1  0.73486627  0.99119393  0.16740300  1  0  -0.182133  0  3.739867  0  0  -0.204806  0  3.996743  0  0  -0.210742  0  4.015782  0  0  -0.099464  -0.200719  0  3.983866  0
C  C45  1  0.27443617  0.99125774  0.33254363  1  0  -0.183319  0  3.740005  0  0  -0.205857  0  3.997394  0  0  -0.211792  0  4.016409  0  0  -0.09998  -0.201776  0  3.984529  0
C  C46  1  0.20533659  0.93727899  0.91359445  1  0  -0.047123  0  3.748103  0  0  -0.069082  0  3.996552  0  0  -0.066981  0  4.016206  0  0  -0.082146  -0.070281  0  3.983188  0
C  C47  1  0.85685947  0.93724909  0.58640292  1  0  -0.047507  0  3.7488  0  0  -0.069292  0  3.997151  0  0  -0.067092  0  4.016843  0  0  -0.081851  -0.070547  0  3.983734  0
C  C48  1  0.79466420  0.06272106  0.08640656  1  0  -0.047158  0  3.748094  0  0  -0.0691  0  3.996564  0  0  -0.067  0  4.016217  0  0  -0.082142  -0.070297  0  3.983199  0
C  C49  1  0.14313980  0.06275200  0.41359571  1  0  -0.047506  0  3.748812  0  0  -0.069292  0  3.997172  0  0  -0.067091  0  4.016863  0  0  -0.081841  -0.070545  0  3.983756  0
C  C50  1  0.22754451  0.76253807  0.07447437  1  0  0.623873  0  3.944971  0  0  0.580899  0  4.22782  0  0  0.615003  0  4.221161  0  0  0.193434  0.557632  0  4.231704  0
C  C51  1  0.00948967  0.76251133  0.42557680  1  0  0.622123  0  3.947261  0  0  0.57879  0  4.230171  0  0  0.612889  0  4.223576  0  0  0.192557  0.555528  0  4.234002  0
C  C52  1  0.77245628  0.23746199  0.92552578  1  0  0.62398  0  3.944882  0  0  0.58103  0  4.227718  0  0  0.615133  0  4.221058  0  0  0.193476  0.557763  0  4.231603  0
C  C53  1  0.99051064  0.23748770  0.57442439  1  0  0.622109  0  3.947264  0  0  0.578771  0  4.230177  0  0  0.61287  0  4.223585  0  0  0.19256  0.55551  0  4.23401  0
C  C54  1  0.44606620  0.34991638  0.63434046  1  0  0.080099  0  3.661072  0  0  0.0377  0  3.92858  0  0  0.047152  0  3.94267  0  0  0.072267  0.031233  0  3.919199  0
C  C55  1  0.20393102  0.35022532  0.86555436  1  0  0.078487  0  3.665721  0  0  0.036318  0  3.932656  0  0  0.045801  0  3.946738  0  0  0.07197  0.029838  0  3.923276  0
C  C56  1  0.55393459  0.65008368  0.36565969  1  0  0.080076  0  3.661115  0  0  0.037701  0  3.928639  0  0  0.047152  0  3.942729  0  0  0.072245  0.031234  0  3.919256  0
C  C57  1  0.79606877  0.64977474  0.13444598  1  0  0.07854  0  3.665745  0  0  0.036358  0  3.932701  0  0  0.045845  0  3.946779  0  0  0.071985  0.029875  0  3.923323  0
C  C58  1  0.47478786  0.35892621  0.50696437  1  0  -0.000101  0  3.80167  0  0  0.022816  0  4.038702  0  0  0.016481  0  4.061954  0  0  -0.00217  0.026747  0  4.023247  0
C  C59  1  0.16621430  0.35917899  0.99292053  1  0  -0.000782  0  3.804259  0  0  0.023275  0  4.039776  0  0  0.016952  0  4.06299  0  0  -0.001572  0.027211  0  4.024336  0
C  C60  1  0.52521193  0.64107385  0.49303597  1  0  -8.3e-05  0  3.801564  0  0  0.022747  0  4.038714  0  0  0.016413  0  4.061964  0  0  -0.002178  0.02668  0  4.023259  0
C  C61  1  0.83378548  0.64082107  0.00707981  1  0  -0.000791  0  3.80428  0  0  0.02325  0  4.039827  0  0  0.016926  0  4.06304  0  0  -0.001585  0.027188  0  4.024386  0
C  C62  1  0.41345997  0.98235991  0.82747651  1  0  0.274407  0  3.792348  0  0  0.267359  0  4.052219  0  0  0.278285  0  4.067131  0  0  0.083378  0.259797  0  4.04201  0
C  C63  1  0.60366624  0.98231027  0.67266408  1  0  0.275339  0  3.790215  0  0  0.267175  0  4.051644  0  0  0.278101  0  4.066568  0  0  0.083628  0.259613  0  4.041434  0
C  C64  1  0.58654082  0.01764014  0.17252450  1  0  0.274352  0  3.792308  0  0  0.267336  0  4.052168  0  0  0.278265  0  4.067076  0  0  0.083366  0.259775  0  4.041959  0
C  C65  1  0.39633302  0.01769081  0.32733455  1  0  0.275287  0  3.790357  0  0  0.267183  0  4.051734  0  0  0.278113  0  4.066656  0  0  0.083629  0.259623  0  4.041523  0
C  C66  1  0.50156942  0.88719748  0.90304395  1  0  -0.185631  0  3.757803  0  0  -0.206108  0  4.008649  0  0  -0.212431  0  4.030081  0  0  -0.106238  -0.201995  0  3.994265  0
C  C67  1  0.61077931  0.88708703  0.59713835  1  0  -0.185713  0  3.758493  0  0  -0.205104  0  4.009711  0  0  -0.211415  0  4.031139  0  0  -0.106207  -0.201039  0  3.995297  0
C  C68  1  0.49843037  0.11280258  0.09695639  1  0  -0.185687  0  3.757776  0  0  -0.206147  0  4.008624  0  0  -0.212471  0  4.030056  0  0  -0.106251  -0.202034  0  3.994241  0
C  C69  1  0.38922100  0.11291200  0.40286199  1  0  -0.185689  0  3.758503  0  0  -0.205072  0  4.009685  0  0  -0.211384  0  4.03111  0  0  -0.106191  -0.201009  0  3.99527  0
C  C70  1  0.62036240  0.28796836  0.44096394  1  0  -0.044125  0  3.642107  0  0  -0.070885  0  3.886251  0  0  -0.067091  0  3.903075  0  0  -0.058243  -0.073132  0  3.874901  0
C  C71  1  0.09175529  0.28808242  0.05885124  1  0  -0.043306  0  3.641589  0  0  -0.070318  0  3.885871  0  0  -0.066533  0  3.902706  0  0  -0.058176  -0.072552  0  3.8745  0
C  C72  1  0.37963688  0.71203273  0.55903640  1  0  -0.044143  0  3.642094  0  0  -0.070891  0  3.886268  0  0  -0.067092  0  3.903086  0  0  -0.058245  -0.073143  0  3.874922  0
C  C73  1  0.90824450  0.71191764  0.94114910  1  0  -0.043363  0  3.641618  0  0  -0.070372  0  3.885908  0  0  -0.066588  0  3.902743  0  0  -0.058211  -0.072605  0  3.874536  0
C  C74  1  0.44038944  0.81707398  0.98381035  1  0  -0.050128  0  3.744464  0  0  -0.072424  0  3.994193  0  0  -0.070004  0  4.012961  0  0  -0.08757  -0.073541  0  3.981364  0
C  C75  1  0.74207035  0.81701259  0.51628821  1  0  -0.051317  0  3.747085  0  0  -0.074041  0  3.996711  0  0  -0.071599  0  4.015465  0  0  -0.087692  -0.075193  0  3.983916  0
C  C76  1  0.55960983  0.18292711  0.01619084  1  0  -0.050098  0  3.744414  0  0  -0.072367  0  3.994149  0  0  -0.069946  0  4.012917  0  0  -0.087563  -0.073487  0  3.981321  0
C  C77  1  0.25792995  0.18298644  0.48371213  1  0  -0.051311  0  3.74703  0  0  -0.074038  0  3.99666  0  0  -0.071596  0  4.015414  0  0  -0.087695  -0.075186  0  3.983867  0
C  C78  1  0.51926142  0.38537394  0.26672471  1  0  0.138798  0  3.663427  0  0  0.099575  0  3.925035  0  0  0.107943  0  3.94236  0  0  0.051589  0.094157  0  3.913233  0
C  C79  1  0.09552853  0.38521461  0.23319795  1  0  0.139411  0  3.663013  0  0  0.100332  0  3.924585  0  0  0.108704  0  3.941913  0  0  0.051825  0.094908  0  3.912777  0
C  C80  1  0.48073885  0.61462715  0.73327459  1  0  0.138795  0  3.663398  0  0  0.09956  0  3.925006  0  0  0.107926  0  3.94233  0  0  0.051601  0.094141  0  3.913204  0
C  C81  1  0.90447126  0.61478545  0.76680154  1  0  0.139414  0  3.663073  0  0  0.100336  0  3.924645  0  0  0.108707  0  3.941972  0  0  0.051842  0.094911  0  3.912837  0
C  C82  1  0.35764545  0.44203159  0.44708054  1  0  0.104305  0  3.661633  0  0  0.065006  0  3.91046  0  0  0.072476  0  3.927619  0  0  0.060775  0.059986  0  3.899048  0
C  C83  1  0.20025275  0.44216777  0.05291125  1  0  0.10589  0  3.66138  0  0  0.065925  0  3.910565  0  0  0.073441  0  3.927779  0  0  0.060431  0.060882  0  3.899139  0
C  C84  1  0.64235486  0.55796744  0.55291980  1  0  0.10432  0  3.661644  0  0  0.06503  0  3.910506  0  0  0.0725  0  3.927664  0  0  0.06076  0.060014  0  3.89909  0
C  C85  1  0.79974704  0.55783228  0.94708909  1  0  0.1059  0  3.661354  0  0  0.065941  0  3.910547  0  0  0.073457  0  3.927761  0  0  0.060444  0.060898  0  3.89912  0
C  C86  1  0.64160934  0.30122391  0.31944451  1  0  -0.104064  0  3.736279  0  0  -0.118293  0  3.99459  0  0  -0.125066  0  4.015378  0  0  -0.077296  -0.114013  0  3.980527  0
C  C87  1  0.05729235  0.30118936  0.18037827  1  0  -0.105133  0  3.735671  0  0  -0.119474  0  3.994558  0  0  -0.126276  0  4.015252  0  0  -0.077938  -0.115169  0  3.980553  0
C  C88  1  0.35839093  0.69877718  0.68055479  1  0  -0.104053  0  3.736263  0  0  -0.11827  0  3.994565  0  0  -0.125042  0  4.015351  0  0  -0.077295  -0.113991  0  3.980503  0
C  C89  1  0.94270743  0.69881070  0.81962122  1  0  -0.105072  0  3.735657  0  0  -0.119412  0  3.994533  0  0  -0.126214  0  4.01523  0  0  -0.077913  -0.115108  0  3.980529  0
N  N90  1  0.30933212  0.40660005  0.69138681  1  0  -0.170606  0  3.180921  0  0  -0.133342  0  3.471671  0  0  -0.147439  0  3.494324  0  0  -0.183748  -0.123369  0  3.455291  0
N  N91  1  0.28409217  0.40674228  0.80848483  1  0  -0.169781  0  3.18151  0  0  -0.132648  0  3.472183  0  0  -0.146763  0  3.494832  0  0  -0.183516  -0.122663  0  3.45581  0
N  N92  1  0.69066767  0.59340001  0.30861353  1  0  -0.170576  0  3.180952  0  0  -0.133299  0  3.471692  0  0  -0.147394  0  3.494344  0  0  -0.183717  -0.123324  0  3.455309  0
N  N93  1  0.71590762  0.59325778  0.19151466  1  0  -0.169827  0  3.181489  0  0  -0.132678  0  3.472171  0  0  -0.146796  0  3.494819  0  0  -0.18353  -0.122694  0  3.455799  0
N  N94  1  0.37970033  0.45537336  0.33049688  1  0  -0.328667  0  3.324158  0  0  -0.243172  0  3.603115  0  0  -0.263175  0  3.618508  0  0  -0.328137  -0.22964  0  3.592703  0
N  N95  1  0.16496552  0.45531318  0.16950589  1  0  -0.329459  0  3.324209  0  0  -0.244532  0  3.604207  0  0  -0.264535  0  3.61956  0  0  -0.328509  -0.231  0  3.593828  0
N  N96  1  0.62029946  0.54462670  0.66950346  1  0  -0.328686  0  3.324179  0  0  -0.243184  0  3.603136  0  0  -0.26318  0  3.61852  0  0  -0.32814  -0.229649  0  3.592719  0
N  N97  1  0.83503526  0.54468688  0.83049426  1  0  -0.329448  0  3.324201  0  0  -0.244534  0  3.604215  0  0  -0.26453  0  3.619559  0  0  -0.328527  -0.230998  0  3.593831  0
O  O98  1  0.47077594  0.05797520  0.75009857  1  0  -0.318612  0  2.333576  0  0  -0.254606  0  2.563475  0  0  -0.271058  0  2.56503  0  0  -0.166175  -0.24243  0  2.561789  0
O  O99  1  0.52922437  0.94202383  0.24990177  1  0  -0.318533  0  2.333498  0  0  -0.254617  0  2.563441  0  0  -0.271071  0  2.564995  0  0  -0.166178  -0.242442  0  2.561755  0
O  O100  1  0.09447877  0.78419483  0.08132920  1  0  -0.621063  0  1.944378  0  0  -0.574091  0  2.173131  0  0  -0.597794  0  2.164604  0  0  -0.321008  -0.557277  0  2.178336  0
O  O101  1  0.12090998  0.78410876  0.41885881  1  0  -0.620968  0  1.94382  0  0  -0.573838  0  2.172197  0  0  -0.597587  0  2.163755  0  0  -0.321019  -0.557035  0  2.177406  0
O  O102  1  0.90552050  0.21580626  0.91867114  1  0  -0.621089  0  1.944396  0  0  -0.574117  0  2.173131  0  0  -0.597817  0  2.164601  0  0  -0.320985  -0.557305  0  2.178339  0
O  O103  1  0.87909032  0.21589027  0.58114068  1  0  -0.620966  0  1.943794  0  0  -0.57384  0  2.172173  0  0  -0.597589  0  2.163735  0  0  -0.32103  -0.557033  0  2.17738  0
O  O104  1  0.31750071  0.67203736  0.13936954  1  0  -0.64985  0  2.024237  0  0  -0.579311  0  2.295506  0  0  -0.6074  0  2.279183  0  0  -0.342128  -0.559675  0  2.306385  0
O  O105  1  0.01010694  0.67211976  0.36055847  1  0  -0.649168  0  2.025191  0  0  -0.578425  0  2.296206  0  0  -0.606564  0  2.280063  0  0  -0.341572  -0.558746  0  2.306952  0
O  O106  1  0.68250108  0.32796270  0.86062957  1  0  -0.649883  0  2.024195  0  0  -0.579362  0  2.295462  0  0  -0.607445  0  2.279133  0  0  -0.342172  -0.559722  0  2.306341  0
O  O107  1  0.98989285  0.32788030  0.63944187  1  0  -0.649159  0  2.025195  0  0  -0.578417  0  2.296216  0  0  -0.606551  0  2.280068  0  0  -0.341572  -0.558735  0  2.306959  0
