# generated using pymatgen
data_ZnH11C14(BrN2)2
_symmetry_space_group_name_H-M   'P 1'
_cell_length_a   14.67828536
_cell_length_b   14.68065754
_cell_length_c   15.02221506
_cell_angle_alpha   101.27372412
_cell_angle_beta   118.11515207
_cell_angle_gamma   108.51683185
_symmetry_Int_Tables_number   1
_chemical_formula_structural   ZnH11C14(BrN2)2
_chemical_formula_sum   'Zn4 H44 C56 Br8 N16'
_cell_volume   2466.00474279
_cell_formula_units_Z   4
loop_
 _symmetry_equiv_pos_site_id
 _symmetry_equiv_pos_as_xyz
  1  'x, y, z'
loop_
 _atom_site_type_symbol
 _atom_site_label
 _atom_site_symmetry_multiplicity
 _atom_site_fract_x
 _atom_site_fract_y
 _atom_site_fract_z
 _atom_site_occupancy
 _atom_site_pbe_bader_charge
 _atom_site_pbe_bader_spin_density
 _atom_site_pbe_cm5_charge
 _atom_site_pbe_ddec_charge
 _atom_site_pbe_ddec_spin_density
 _atom_site_pbe_ddec_sum_bond_order
 _atom_site_pbe_magmom
Zn  Zn0  1  0.98196016  0.63579447  0.59356297  1  1.196822  0  0.737341  0.628232  0  2.457164  0
Zn  Zn1  1  0.04217504  0.38850523  0.40639847  1  1.197191  0  0.737774  0.628871  0  2.456855  0
Zn  Zn2  1  0.84893523  0.47904857  0.33886008  1  1.188449  0  0.744081  0.610397  0  2.463004  0
Zn  Zn3  1  0.14008349  0.51005443  0.66109536  1  1.187233  0  0.744022  0.61013  0  2.463926  0
H  H4  1  0.83572577  0.49717169  0.66306102  1  0.116001  0  0.103657  0.086938  0  1.058756  0
H  H5  1  0.37505504  0.67712470  0.71960798  1  0.115319  0  0.114893  0.101972  0  1.027892  0
H  H6  1  0.20984942  0.55144494  0.91277978  1  0.086556  0  0.117491  0.104861  0  1.011314  0
H  H7  1  0.95749732  0.65537905  0.28025476  1  0.105858  0  0.114924  0.102069  0  1.028259  0
H  H8  1  0.63846612  0.29692200  0.08747962  1  0.089576  0  0.117452  0.104908  0  1.01092  0
H  H9  1  0.96903362  0.31532975  0.68372625  1  0.083699  0  0.113192  0.098315  0  1.013946  0
H  H10  1  0.71943475  0.61442044  0.21375984  1  0.089625  0  0.111885  0.097514  0  1.011797  0
H  H11  1  0.63164978  0.28523473  0.31621189  1  0.090735  0  0.113268  0.09838  0  1.014584  0
H  H12  1  0.25430573  0.33317230  0.44198933  1  0.100064  0  0.110023  0.094448  0  1.025056  0
H  H13  1  0.40063206  0.50570534  0.78627637  1  0.047975  0  0.111796  0.09733  0  1.011348  0
H  H14  1  0.09354981  0.47137392  0.11260027  1  0.08079  0  0.094867  0.104814  0  1.003272  0
H  H15  1  0.13093758  0.81266000  0.10338803  1  0.062569  0  0.098439  0.108028  0  0.987882  0
H  H16  1  0.35858718  0.98056442  0.88753586  1  0.078946  0  0.095177  0.105311  0  1.003097  0
H  H17  1  0.70930168  0.02770046  0.89682027  1  0.067062  0  0.098282  0.107918  0  0.987375  0
H  H18  1  0.83408300  0.17267046  0.33685806  1  0.086987  0  0.103737  0.087173  0  1.058806  0
H  H19  1  0.78183539  0.89564671  0.49261649  1  0.038573  0  0.093156  0.092881  0  1.027299  0
H  H20  1  0.78668432  0.02009762  0.34936940  1  0.04137  0  0.087774  0.090826  0  1.048408  0
H  H21  1  0.40281220  0.28915339  0.50713730  1  0.050822  0  0.093316  0.0933  0  1.026699  0
H  H22  1  0.67053886  0.43708441  0.65050647  1  0.04855  0  0.087839  0.090927  0  1.048129  0
H  H23  1  0.89114399  0.81241833  0.55796155  1  0.068254  0  0.110117  0.094495  0  1.025327  0
H  H24  1  0.29172252  0.55132256  0.08123501  1  0.023289  0  0.087713  0.121374  0  1.004215  0
H  H25  1  0.37097051  0.69172718  0.13479044  1  0.04869  0  0.092383  0.133336  0  0.993306  0
H  H26  1  0.36763008  0.62986171  0.22454151  1  0.075685  0  0.087708  0.126809  0  1.014259  0
H  H27  1  0.93575192  0.73021021  0.14235131  1  0.038507  0  0.092249  0.130076  0  0.993069  0
H  H28  1  0.86658463  0.66876198  0.99696910  1  0.048544  0  0.088913  0.127588  0  1.010282  0
H  H29  1  0.84809318  0.59009481  0.06944609  1  0.056943  0  0.088595  0.123903  0  1.006407  0
H  H30  1  0.46966711  0.21008428  0.91904738  1  0.01767  0  0.088071  0.121395  0  1.004063  0
H  H31  1  0.55658637  0.23597395  0.86553604  1  0.047428  0  0.092123  0.132856  0  0.994332  0
H  H32  1  0.40492455  0.14278737  0.77575002  1  0.058384  0  0.087601  0.126785  0  1.014506  0
H  H33  1  0.58793131  0.79353318  0.85750861  1  0.046825  0  0.092385  0.130163  0  0.993194  0
H  H34  1  0.67193822  0.86958377  0.00293141  1  0.061838  0  0.088947  0.127547  0  1.010373  0
H  H35  1  0.52080783  0.77850601  0.93049017  1  0.014502  0  0.088773  0.124232  0  1.006563  0
H  H36  1  0.65621939  0.74597266  0.16445145  1  0.016479  0  0.086015  0.117566  0  0.997373  0
H  H37  1  0.70577856  0.88347505  0.21205264  1  0.031423  0  0.078214  0.110171  0  1.068825  0
H  H38  1  0.80532723  0.83288330  0.22632183  1  0.035496  0  0.08463  0.11567  0  0.999606  0
H  H39  1  0.78263842  0.13521697  0.62360451  1  0.044855  0  0.092393  0.129658  0  0.991719  0
H  H40  1  0.77482398  0.00887476  0.59213982  1  0.038636  0  0.090396  0.126657  0  1.011668  0
H  H41  1  0.91338106  0.12481929  0.67776204  1  0.068369  0  0.087224  0.117481  0  0.997823  0
H  H42  1  0.58132232  0.49138468  0.83552191  1  0.01262  0  0.085841  0.117479  0  0.996388  0
H  H43  1  0.67125131  0.49323690  0.78787768  1  0.030214  0  0.078203  0.109984  0  1.068098  0
H  H44  1  0.60664161  0.57866221  0.77369614  1  0.033117  0  0.084504  0.115136  0  1.000402  0
H  H45  1  0.51140917  0.15900284  0.37616569  1  0.046664  0  0.092171  0.129328  0  0.992226  0
H  H46  1  0.41654802  0.18262720  0.40765235  1  0.038364  0  0.090275  0.126359  0  1.011914  0
H  H47  1  0.44690219  0.23563016  0.32202960  1  0.038799  0  0.086999  0.117233  0  0.997281  0
C  C48  1  0.79940303  0.45556363  0.57644978  1  0.380149  0  0.004943  -0.040117  0  3.956529  0
C  C49  1  0.01546834  0.56407060  0.01413399  1  -0.023291  0  -0.01124  0.053705  0  3.610443  0
C  C50  1  0.58513670  0.83568109  0.92455274  1  -0.057855  0  -0.240566  -0.407627  0  3.988163  0
C  C51  1  0.31521361  0.62610066  0.14085395  1  -0.091376  0  -0.241192  -0.406187  0  3.983657  0
C  C52  1  0.91113255  0.66045143  0.07540791  1  -0.079204  0  -0.240271  -0.407006  0  3.986636  0
C  C53  1  0.48489017  0.17408129  0.85940764  1  -0.06767  0  -0.241668  -0.406444  0  3.985135  0
C  C54  1  0.73022890  0.82311564  0.23099984  1  -0.062252  0  -0.242142  -0.395608  0  3.995932  0
C  C55  1  0.82259483  0.08964085  0.60405929  1  -0.108166  0  -0.238365  -0.400111  0  3.989074  0
C  C56  1  0.59198663  0.49884752  0.76897819  1  -0.053992  0  -0.241865  -0.39494  0  3.99543  0
C  C57  1  0.48539675  0.21849899  0.39572040  1  -0.079477  0  -0.238073  -0.399575  0  3.988198  0
C  C58  1  0.51711520  0.00681883  0.79761489  1  -0.005448  0  -0.00966  0.056952  0  3.604915  0
C  C59  1  0.54981542  0.00112211  0.98597786  1  -0.01054  0  -0.011157  0.053637  0  3.611773  0
C  C60  1  0.20945088  0.71975085  0.20249054  1  -0.00807  0  -0.009352  0.057439  0  3.605321  0
C  C61  1  0.82034296  0.09385619  0.50389178  1  -0.038134  0  -0.016174  0.127375  0  3.984311  0
C  C62  1  0.75749334  0.82622169  0.34173614  1  -0.011843  0  -0.022074  0.118073  0  3.987865  0
C  C63  1  0.58982779  0.31631734  0.49594763  1  0.010934  0  -0.016293  0.127196  0  3.984263  0
C  C64  1  0.27209953  0.37405265  0.52137836  1  0.378746  0  0.00348  -0.054951  0  4.01342  0
C  C65  1  0.48435938  0.41557967  0.65819336  1  -0.007279  0  -0.021801  0.118842  0  3.987867  0
C  C66  1  0.78503319  0.00687014  0.41775403  1  0.014364  0  -0.11697  -0.172341  0  4.047268  0
C  C67  1  0.76881923  0.90560708  0.41799235  1  -0.049027  0  -0.112145  -0.158991  0  4.045209  0
C  C68  1  0.58892313  0.36710794  0.58204100  1  -0.066453  0  -0.116876  -0.17165  0  4.047555  0
C  C69  1  0.48742010  0.35070629  0.58181817  1  -0.049565  0  -0.112576  -0.160461  0  4.045059  0
C  C70  1  0.87912157  0.22296774  0.42347292  1  0.403276  0  0.004726  -0.040728  0  3.95733  0
C  C71  1  0.71317473  0.28212699  0.12174730  1  0.434948  0  0.007183  -0.043825  0  4.001583  0
C  C72  1  0.31197665  0.70669171  0.69485547  1  0.375012  0  0.008462  -0.03479  0  3.959221  0
C  C73  1  0.16056499  0.59167626  0.87836874  1  0.432133  0  0.007577  -0.043324  0  4.001741  0
C  C74  1  0.01186971  0.61712116  0.30506382  1  0.376429  0  0.008392  -0.035056  0  3.959632  0
C  C75  1  0.85255678  0.75074936  0.47859090  1  0.455827  0  0.003522  -0.055084  0  4.014353  0
C  C76  1  0.83844681  0.22063358  0.15931563  1  0.383046  0  0.072525  0.121884  0  4.045812  0
C  C77  1  0.21601577  0.79768636  0.66331274  1  0.45228  0  0.076938  0.129316  0  4.007307  0
C  C78  1  0.06139878  0.67927192  0.84067840  1  0.403819  0  0.072514  0.121598  0  4.04687  0
C  C79  1  0.13455644  0.55284027  0.33680544  1  0.402515  0  0.077008  0.129756  0  4.007089  0
C  C80  1  0.94766092  0.29600422  0.60040402  1  0.423787  0  0.005768  -0.046924  0  3.946762  0
C  C81  1  0.76695252  0.65086737  0.30331131  1  0.38292  0  -0.003054  -0.066199  0  4.004171  0
C  C82  1  0.69558327  0.34721236  0.39949984  1  0.430562  0  0.00557  -0.046996  0  3.94725  0
C  C83  1  0.34754177  0.46363655  0.69669630  1  0.412625  0  -0.002947  -0.065804  0  4.003533  0
C  C84  1  0.69080262  0.36579030  0.49268854  1  -0.013095  0  -0.037196  -0.045811  0  4.063643  0
C  C85  1  0.37395692  0.41382668  0.62883763  1  0.02684  0  -0.041262  -0.046326  0  4.095702  0
C  C86  1  0.87306097  0.19809419  0.50719307  1  0.007359  0  -0.037411  -0.045885  0  4.064291  0
C  C87  1  0.78503727  0.74518297  0.37112670  1  -0.0414  0  -0.041529  -0.046298  0  4.095729  0
C  C88  1  0.72357521  0.19583760  0.07666952  1  0.041506  0  -0.046496  -0.088604  0  4.096888  0
C  C89  1  0.33108523  0.81114807  0.72080989  1  0.029078  0  -0.042009  -0.077609  0  4.055115  0
C  C90  1  0.11928975  0.64713326  0.92337490  1  0.029431  0  -0.046585  -0.088431  0  4.098439  0
C  C91  1  0.09059218  0.61043919  0.27932534  1  0.077019  0  -0.041941  -0.077658  0  4.054138  0
C  C92  1  0.20823692  0.63316630  0.12104432  1  0.029575  0  -0.006489  0.116032  0  3.65846  0
C  C93  1  0.01673069  0.65074592  0.09492622  1  0.02419  0  -0.003349  0.121407  0  3.658068  0
C  C94  1  0.51186188  0.08694467  0.87910244  1  0.035852  0  -0.005556  0.117846  0  3.659021  0
C  C95  1  0.55579830  0.92169926  0.90516169  1  0.031205  0  -0.00302  0.122356  0  3.658064  0
C  C96  1  0.10293700  0.54768358  0.11065994  1  -0.041243  0  -0.089964  -0.160397  0  3.678478  0
C  C97  1  0.12211233  0.73614462  0.10450659  1  -0.024326  0  -0.084646  -0.151378  0  3.649872  0
C  C98  1  0.43685515  0.99196781  0.88946358  1  -0.045062  0  -0.090702  -0.161931  0  3.681265  0
C  C99  1  0.63155135  0.01755469  0.89559994  1  -0.027417  0  -0.084727  -0.151315  0  3.649268  0
C  C100  1  0.10512791  0.63332846  0.19476949  1  0.023709  0  -0.003737  0.039184  0  3.685063  0
C  C101  1  0.11943552  0.64986884  0.02106214  1  0.040803  0  -0.004965  0.041295  0  3.708584  0
C  C102  1  0.43849681  0.91019262  0.80534928  1  0.007324  0  -0.003672  0.039503  0  3.686721  0
C  C103  1  0.62860626  0.09823158  0.97905926  1  0.03581  0  -0.004813  0.040986  0  3.708947  0
Br  Br104  1  0.91819440  0.14150966  0.16458102  1  -0.050898  0  0.039851  -0.057118  0  1.389519  0
Br  Br105  1  0.87662933  0.45033404  0.87704709  1  -0.124762  0  0.000739  -0.105758  0  1.363175  0
Br  Br106  1  0.49425080  0.01155272  0.66197316  1  -0.114597  0  -0.029171  -0.124952  0  1.312036  0
Br  Br107  1  0.57319335  0.99942319  0.12306557  1  -0.126807  0  0.000712  -0.105658  0  1.363966  0
Br  Br108  1  0.34985064  0.83259810  0.33800633  1  -0.116182  0  -0.028821  -0.124589  0  1.312529  0
Br  Br109  1  0.16860307  0.90219401  0.65291751  1  -0.041371  0  0.063925  -0.03455  0  1.47308  0
Br  Br110  1  0.97685407  0.75362054  0.83528790  1  -0.049086  0  0.03985  -0.057028  0  1.389409  0
Br  Br111  1  0.24954794  0.51588822  0.34730218  1  -0.041426  0  0.063762  -0.0348  0  1.472488  0
N  N112  1  0.86104901  0.48784448  0.53503512  1  -0.815694  0  -0.288988  -0.192006  0  3.652708  0
N  N113  1  0.19574074  0.63858869  0.63099179  1  -0.769265  0  -0.279861  -0.179732  0  3.572524  0
N  N114  1  0.13035696  0.59206147  0.77895141  1  -0.787945  0  -0.270323  -0.158676  0  3.553438  0
N  N115  1  0.00753676  0.56471929  0.36887767  1  -0.76267  0  -0.279631  -0.178976  0  3.57287  0
N  N116  1  0.81310812  0.35144150  0.22101754  1  -0.796119  0  -0.269986  -0.158534  0  3.55283  0
N  N117  1  0.89208246  0.31332774  0.24483375  1  -0.76452  0  -0.268012  -0.221364  0  3.511165  0
N  N118  1  0.13606122  0.69520813  0.61120265  1  -0.763444  0  -0.281067  -0.221932  0  3.589841  0
N  N119  1  0.06843756  0.64721641  0.75509852  1  -0.77118  0  -0.268027  -0.221398  0  3.51215  0
N  N120  1  0.19291876  0.39803208  0.52543831  1  -0.798626  0  -0.276466  -0.175941  0  3.582042  0
N  N121  1  0.08397457  0.52485857  0.38871878  1  -0.760823  0  -0.28134  -0.222546  0  3.590805  0
N  N122  1  0.99587780  0.37110652  0.57373161  1  -0.796008  0  -0.284696  -0.177463  0  3.630339  0
N  N123  1  0.81860902  0.60449623  0.36547838  1  -0.794506  0  -0.275699  -0.179248  0  3.553137  0
N  N124  1  0.79734016  0.42217517  0.42619757  1  -0.784803  0  -0.284807  -0.177713  0  3.631129  0
N  N125  1  0.23902875  0.45324162  0.63458269  1  -0.7935  0  -0.275598  -0.179373  0  3.553187  0
N  N126  1  0.95272621  0.32603702  0.46488419  1  -0.809721  0  -0.289078  -0.191909  0  3.652281  0
N  N127  1  0.87244606  0.66750701  0.47458617  1  -0.789301  0  -0.27617  -0.175559  0  3.582648  0
