# generated using pymatgen
data_CoH7C8NO5
_symmetry_space_group_name_H-M   'P 1'
_cell_length_a   7.80917058
_cell_length_b   8.81048942
_cell_length_c   12.50647347
_cell_angle_alpha   89.99270901
_cell_angle_beta   89.92212004
_cell_angle_gamma   96.71091458
_symmetry_Int_Tables_number   1
_chemical_formula_structural   CoH7C8NO5
_chemical_formula_sum   'Co4 H28 C32 N4 O20'
_cell_volume   854.58160540
_cell_formula_units_Z   4
loop_
 _symmetry_equiv_pos_site_id
 _symmetry_equiv_pos_as_xyz
  1  'x, y, z'
loop_
 _atom_site_type_symbol
 _atom_site_label
 _atom_site_symmetry_multiplicity
 _atom_site_fract_x
 _atom_site_fract_y
 _atom_site_fract_z
 _atom_site_occupancy
 _atom_site_hle17_ddec_charge
 _atom_site_hle17_ddec_spin_density
 _atom_site_hle17_ddec_sum_bond_order
 _atom_site_hle17_magmom
 _atom_site_hse06_10hf_ddec_charge
 _atom_site_hse06_10hf_ddec_spin_density
 _atom_site_hse06_10hf_ddec_sum_bond_order
 _atom_site_hse06_10hf_magmom
 _atom_site_hse06_ddec_charge
 _atom_site_hse06_ddec_spin_density
 _atom_site_hse06_ddec_sum_bond_order
 _atom_site_hse06_magmom
 _atom_site_pbe_cm5_charge
 _atom_site_pbe_ddec_charge
 _atom_site_pbe_ddec_spin_density
 _atom_site_pbe_ddec_sum_bond_order
 _atom_site_pbe_magmom
Co  Co0  1  0.07783193  0.72277131  0.43298572  1  1.069335  -2.86738  1.898221  -2.58  1.047217  -2.852338  2.304073  -2.65  1.124716  -2.895432  2.231559  -2.725  0.645821  0.980413  -2.812416  2.36746  -2.576
Co  Co1  1  0.42378709  0.27682396  0.93365493  1  1.071198  -2.867615  1.886534  -2.579  1.047009  -2.849651  2.2934  -2.648  1.125198  -2.89432  2.22105  -2.725  0.643689  0.979137  -2.803074  2.356004  -2.569
Co  Co2  1  0.92229986  0.27724050  0.56701739  1  1.069207  -2.867184  1.898768  -2.58  1.046796  -2.851841  2.304827  -2.649  1.124281  -2.894978  2.232257  -2.725  0.645669  0.979958  -2.812169  2.368246  -2.576
Co  Co3  1  0.57669807  0.72316975  0.06644958  1  1.07128  3.011621  1.886567  2.579  1.047043  2.910169  2.29351  2.649  1.125146  2.960604  2.221187  2.726  0.644224  0.979535  2.863704  2.35588  2.569
H  H4  1  0.82872599  0.84261223  0.31290920  1  0.431272  -0.000396  0.861047  -0.001  0.405821  -0.000611  0.916126  -0.001  0.417422  -0.000495  0.899205  -0.001  0.292576  0.3974  -0.00067  0.928295  -0.001
H  H5  1  0.67072342  0.15790003  0.81301147  1  0.432837  -0.000543  0.859189  -0.001  0.407057  -0.000666  0.914738  -0.001  0.418695  -0.00037  0.897797  -0.001  0.293204  0.39848  -0.000933  0.927109  -0.001
H  H6  1  0.17144342  0.15738450  0.68707391  1  0.43151  -0.00056  0.860632  -0.001  0.405944  -0.000739  0.915941  -0.001  0.417564  -0.000455  0.899002  -0.001  0.292631  0.397501  -0.001004  0.92813  -0.002
H  H7  1  0.32929564  0.84211131  0.18697010  1  0.432703  0.000394  0.859369  0.001  0.406912  0.000525  0.914912  0.001  0.418597  0.000404  0.897914  0.001  0.293184  0.39833  0.000584  0.927293  0.001
H  H8  1  0.83802765  0.90731850  0.43260686  1  0.42332  -0.000106  0.881061  0.001  0.395779  -0.000185  0.940253  0.0  0.407079  2.9e-05  0.924006  0.0  0.290966  0.387392  -0.000452  0.952232  0.0
H  H9  1  0.66397388  0.09271448  0.93265044  1  0.423784  0.00034  0.880309  0.001  0.39624  8.9e-05  0.939682  0.0  0.407582  5.9e-05  0.923365  0.0  0.291206  0.387923  0.000162  0.951585  0.0
H  H10  1  0.16202224  0.09277615  0.56735230  1  0.423004  -0.000103  0.881542  0.001  0.39555  -0.000187  0.940639  0.0  0.406876  2.5e-05  0.924347  0.0  0.290854  0.387158  -0.000447  0.952628  0.0
H  H11  1  0.33615692  0.90745630  0.06741823  1  0.423651  -0.000305  0.88039  -0.001  0.396216  -9.6e-05  0.939628  0.0  0.407556  -6.5e-05  0.923308  0.0  0.291235  0.387918  -0.000173  0.951515  0.0
H  H12  1  0.22548807  0.49613432  0.96930286  1  0.3179  0.00068  0.88503  0.002  0.308514  0.000215  0.941531  0.0  0.314009  0.000213  0.938459  0.0  0.307491  0.304731  0.000263  0.943118  0.001
H  H13  1  0.27632915  0.50411245  0.46850563  1  0.318774  0.000914  0.883425  0.002  0.309317  0.000423  0.940028  0.001  0.314735  0.000446  0.937101  0.001  0.308008  0.305806  0.000409  0.941162  0.001
H  H14  1  0.77461515  0.50385705  0.03081061  1  0.318204  -0.000643  0.884764  -0.002  0.308685  -0.000207  0.941301  0.0  0.314195  -0.000204  0.938231  0.0  0.307764  0.304914  -0.000256  0.942847  -0.001
H  H15  1  0.72376228  0.49587559  0.53142554  1  0.318579  0.000917  0.883428  0.002  0.30925  0.000423  0.939908  0.001  0.314671  0.000446  0.936979  0.001  0.308027  0.305741  0.000407  0.941028  0.001
H  H16  1  0.12547320  0.36400152  0.88821887  1  0.324517  0.000903  0.862423  0.002  0.317795  0.000351  0.912899  0.001  0.323449  0.000367  0.909288  0.001  0.31341  0.31332  0.000314  0.916112  0.001
H  H17  1  0.37645010  0.63666946  0.38754784  1  0.324926  0.000844  0.863603  0.002  0.318374  0.000276  0.913625  0.001  0.324074  0.000269  0.909995  0.001  0.313637  0.313877  0.000301  0.91674  0.001
H  H18  1  0.87468107  0.63598841  0.11186819  1  0.324333  -0.000865  0.862659  -0.002  0.317741  -0.000342  0.912917  -0.001  0.323384  -0.000318  0.909316  -0.001  0.313345  0.313305  -0.000376  0.916066  -0.001
H  H19  1  0.62365410  0.36331850  0.61240731  1  0.324586  0.000885  0.863742  0.002  0.318207  0.000329  0.913478  0.001  0.323893  0.000335  0.909863  0.001  0.313532  0.313728  0.000353  0.916576  0.001
H  H20  1  0.83770344  0.13232152  0.29496143  1  0.115651  0.000404  0.940748  0.001  0.125212  8.9e-05  1.00373  0.0  0.12899  9.8e-05  1.001522  0.0  0.110062  0.122096  6e-05  1.005857  0.0
H  H21  1  0.66119898  0.86685205  0.79496776  1  0.116505  0.000178  0.939961  0.001  0.125531  -0.000179  1.003316  0.0  0.129121  -0.000133  1.001394  0.0  0.110158  0.122792  -0.000254  1.004949  0.0
H  H22  1  0.16224334  0.86761245  0.70506096  1  0.115635  -0.000266  0.941037  -0.001  0.125081  7e-05  1.004134  0.0  0.128779  9e-05  1.002069  0.0  0.110094  0.122051  1.4e-05  1.006146  0.0
H  H23  1  0.33883967  0.13309741  0.20498982  1  0.116601  0.000308  0.939894  0.001  0.125661  -2e-05  1.003164  0.0  0.129242  2.4e-05  1.001236  0.0  0.110213  0.122932  -7.2e-05  1.004804  0.0
H  H24  1  0.94982234  0.13490966  0.95706190  1  0.112513  0.00033  0.953494  0.001  0.123091  -4.4e-05  1.013387  0.0  0.12652  -2.4e-05  1.011053  0.0  0.110832  0.120397  -4.4e-05  1.015592  0.0
H  H25  1  0.55138595  0.86585637  0.45692649  1  0.112917  0.000163  0.953627  0.001  0.12341  -0.000166  1.013672  0.0  0.126826  -7.8e-05  1.011446  0.0  0.111103  0.120734  -0.000237  1.015794  0.0
H  H26  1  0.05023326  0.86514377  0.04296603  1  0.112329  -0.000292  0.953544  -0.001  0.122904  6.8e-05  1.013488  0.0  0.126335  4.5e-05  1.011156  0.0  0.11065  0.120209  9.7e-05  1.015689  0.0
H  H27  1  0.44863200  0.13415611  0.54304309  1  0.113209  0.000221  0.953585  0.001  0.12366  -0.000152  1.013605  0.0  0.127079  -6.7e-05  1.011367  0.0  0.11119  0.120971  -0.000214  1.015764  0.0
H  H28  1  0.17090796  0.50542902  0.15625703  1  0.125546  0.000225  0.936117  0.001  0.135158  -8.9e-05  0.995729  0.0  0.139087  -5.2e-05  0.993108  0.0  0.111098  0.132018  -0.000159  0.998472  0.0
H  H29  1  0.32861961  0.49464888  0.65536938  1  0.125637  0.000396  0.936683  0.001  0.135368  0.000125  0.996264  0.0  0.139231  0.000156  0.993717  0.0  0.111292  0.132409  8.3e-05  0.998745  0.0
H  H30  1  0.82899647  0.49459669  0.84381894  1  0.125374  -0.000256  0.936522  -0.001  0.134986  0.000117  0.99618  0.0  0.138955  0.000133  0.993477  0.0  0.111003  0.13184  0.000107  0.998954  0.0
H  H31  1  0.67130510  0.50538360  0.34459064  1  0.125543  0.000426  0.936549  0.001  0.135274  8.3e-05  0.996127  0.0  0.139156  7.7e-05  0.993556  0.0  0.111206  0.13229  0.000104  0.998638  0.0
C  C32  1  0.00384656  0.32673845  0.23485703  1  -0.052608  0.001143  3.801562  0.001  -0.027434  -0.000769  4.036138  -0.001  -0.035126  0.000652  4.057024  0.001  -0.019117  -0.021977  -0.002644  4.024217  -0.004
C  C33  1  0.49515732  0.67288891  0.73435685  1  -0.052578  0.004622  3.801688  0.006  -0.028457  0.0006  4.038098  0.001  -0.036181  0.001146  4.059309  0.002  -0.019101  -0.02303  0.000569  4.025246  0.001
C  C34  1  0.99604178  0.67323589  0.76519336  1  -0.0515  -0.013107  3.801156  -0.02  -0.026898  -0.004752  4.036449  -0.007  -0.034626  -0.003568  4.057331  -0.006  -0.018952  -0.021375  -0.006095  4.024475  -0.01
C  C35  1  0.50482180  0.32710208  0.26560395  1  -0.05301  0.007306  3.801445  0.01  -0.028884  0.002028  4.038128  0.003  -0.036637  0.002403  4.059287  0.004  -0.019357  -0.023419  0.001816  4.025363  0.003
C  C36  1  0.90378304  0.18541014  0.22533495  1  -0.082133  -0.011445  3.688858  -0.014  -0.125766  -0.006433  3.942463  -0.008  -0.124066  -0.005536  3.960918  -0.007  -0.083681  -0.127607  -0.00718  3.93145  -0.008
C  C37  1  0.59531796  0.81425542  0.72523587  1  -0.083255  -0.010407  3.686979  -0.013  -0.126433  -0.00591  3.941245  -0.007  -0.124927  -0.005017  3.960016  -0.006  -0.083095  -0.127466  -0.006665  3.928985  -0.008
C  C38  1  0.09616085  0.81453071  0.77469304  1  -0.082348  0.012206  3.689263  0.015  -0.125722  0.003819  3.942978  0.004  -0.12396  0.002881  3.961405  0.003  -0.083617  -0.127577  0.006068  3.931863  0.007
C  C39  1  0.40469604  0.18571019  0.27472731  1  -0.083654  -0.010859  3.686809  -0.014  -0.12683  -0.005771  3.940964  -0.007  -0.125276  -0.004893  3.959698  -0.006  -0.083336  -0.12795  -0.007064  3.928792  -0.008
C  C40  1  0.88120228  0.11897295  0.12400472  1  -0.046813  0.007493  3.7837  0.01  -0.021199  0.002361  4.022271  0.003  -0.027703  0.002532  4.04269  0.004  -0.016685  -0.017341  0.002071  4.010213  0.003
C  C41  1  0.61843546  0.88120077  0.62402429  1  -0.045908  0.004721  3.781321  0.006  -0.019682  0.00097  4.019202  0.002  -0.026061  0.001665  4.039622  0.003  -0.016257  -0.015898  0.000368  4.006725  0.001
C  C42  1  0.11878317  0.88102714  0.87601125  1  -0.047013  -0.008153  3.783046  -0.012  -0.021109  -0.002005  4.021236  -0.003  -0.027596  -0.00171  4.041634  -0.002  -0.01688  -0.017236  -0.00243  4.009139  -0.004
C  C43  1  0.38156043  0.11880040  0.37594770  1  -0.045506  0.005916  3.780924  0.008  -0.019245  0.001417  4.018548  0.002  -0.025603  0.002006  4.038896  0.003  -0.016031  -0.015491  0.000966  4.006213  0.002
C  C44  1  0.96789089  0.18791727  0.03536420  1  -0.14349  -0.011266  3.660725  -0.015  -0.179117  -0.005628  3.912296  -0.007  -0.179381  -0.005032  3.929592  -0.007  -0.085369  -0.180132  -0.005473  3.902334  -0.007
C  C45  1  0.53242925  0.81265315  0.53517079  1  -0.14232  -0.009318  3.660107  -0.012  -0.178059  -0.004173  3.911539  -0.006  -0.17852  -0.003868  3.928826  -0.005  -0.083731  -0.178699  -0.004825  3.901382  -0.006
C  C46  1  0.03209644  0.81210568  0.96466376  1  -0.142994  0.012336  3.66066  0.016  -0.178679  0.003474  3.912186  0.005  -0.17898  0.002672  3.929525  0.004  -0.084873  -0.179647  0.005125  3.902189  0.006
C  C47  1  0.46755975  0.18735379  0.46480360  1  -0.14289  -0.010861  3.660147  -0.014  -0.178595  -0.005226  3.911604  -0.007  -0.179017  -0.004613  3.928828  -0.006  -0.084037  -0.179373  -0.00618  3.90162  -0.008
C  C48  1  0.07908153  0.32324836  0.04717580  1  0.283102  0.008548  3.806491  0.013  0.283999  0.002144  4.066492  0.004  0.29022  0.00291  4.087171  0.005  0.086203  0.278869  0.001376  4.053589  0.003
C  C49  1  0.42119522  0.67727339  0.54664462  1  0.282702  0.007836  3.807217  0.012  0.283487  0.001704  4.067803  0.004  0.289818  0.002429  4.088586  0.004  0.085681  0.278139  0.000715  4.054614  0.003
C  C50  1  0.92091040  0.67678027  0.95288974  1  0.283198  -0.009113  3.806255  -0.014  0.284165  -0.001828  4.066174  -0.004  0.290391  -0.002123  4.086853  -0.004  0.086255  0.278948  -0.001691  4.053323  -0.004
C  C51  1  0.57878213  0.32274162  0.45330899  1  0.282634  0.008367  3.807145  0.013  0.28325  0.001974  4.067995  0.004  0.289595  0.002688  4.088761  0.005  0.085656  0.277888  0.000886  4.054853  0.003
C  C52  1  0.09158166  0.39582525  0.14655828  1  -0.173034  -0.010932  3.67503  -0.014  -0.205448  -0.005886  3.924823  -0.007  -0.206149  -0.005148  3.941649  -0.007  -0.092198  -0.20593  -0.00659  3.915756  -0.008
C  C53  1  0.40789305  0.60433142  0.64590847  1  -0.173309  -0.009588  3.678515  -0.012  -0.20583  -0.004436  3.929286  -0.005  -0.206644  -0.004076  3.946246  -0.005  -0.092103  -0.205819  -0.004727  3.919599  -0.006
C  C54  1  0.90831399  0.60418336  0.85350730  1  -0.173727  0.012934  3.676066  0.016  -0.205991  0.003957  3.92608  0.005  -0.206643  0.003078  3.942784  0.004  -0.092388  -0.206584  0.006092  3.917191  0.008
C  C55  1  0.59205022  0.39568723  0.35404994  1  -0.172568  -0.010999  3.677803  -0.014  -0.205029  -0.005437  3.928586  -0.007  -0.205836  -0.004795  3.945518  -0.006  -0.09162  -0.205035  -0.005949  3.91896  -0.007
C  C56  1  0.01583311  0.40963402  0.33864660  1  0.666105  0.007017  3.870456  0.009  0.628688  -0.003661  4.163144  -0.005  0.669748  -0.003777  4.152473  -0.006  0.221505  0.594868  3e-05  4.171835  0.0
C  C57  1  0.48323919  0.58855993  0.83768091  1  0.669265  0.004234  3.869744  0.005  0.630653  0.004385  4.163577  0.006  0.671104  0.003264  4.153528  0.005  0.224344  0.598929  0.005632  4.17027  0.007
C  C58  1  0.98402423  0.59029246  0.66141261  1  0.66704  0.007417  3.869081  0.011  0.629635  -0.00376  4.162125  -0.005  0.67072  -0.00388  4.151352  -0.005  0.221897  0.59571  2e-05  4.170975  0.001
C  C59  1  0.51666113  0.41137090  0.16227673  1  0.669568  -0.004158  3.868863  -0.007  0.630669  -0.00425  4.163191  -0.006  0.671263  -0.003105  4.152971  -0.005  0.223988  0.598678  -0.005629  4.170142  -0.008
C  C60  1  0.76601012  0.97420266  0.10895586  1  0.634947  -0.005382  3.884411  -0.01  0.585951  -0.000811  4.182476  -0.003  0.621753  0.000107  4.177012  -0.001  0.208855  0.55955  -0.002512  4.185569  -0.006
C  C61  1  0.73378858  0.02600285  0.60916377  1  0.636041  0.005383  3.884105  0.008  0.586589  0.001303  4.182499  0.003  0.622431  0.000362  4.176953  0.001  0.208959  0.560384  0.002584  4.185192  0.005
C  C62  1  0.23393348  0.02585488  0.89097137  1  0.634416  0.005549  3.886717  0.009  0.585334  0.000661  4.184807  0.003  0.621091  -0.000153  4.179359  0.001  0.208009  0.558936  0.002319  4.187896  0.005
C  C63  1  0.26618360  0.97401219  0.39083462  1  0.636359  0.005475  3.884088  0.008  0.587126  0.001445  4.182175  0.003  0.622988  0.000478  4.176613  0.002  0.209081  0.560915  0.002717  4.184895  0.005
N  N64  1  0.18384306  0.38230277  0.96092351  1  -0.674403  -0.031253  3.213058  -0.056  -0.655582  -0.019995  3.465212  -0.032  -0.680026  -0.016863  3.462354  -0.027  -0.593894  -0.636231  -0.022352  3.467951  -0.035
N  N65  1  0.31738965  0.61808599  0.46014509  1  -0.674954  -0.032081  3.213385  -0.058  -0.656572  -0.020554  3.466615  -0.033  -0.681053  -0.017168  3.4637  -0.027  -0.594128  -0.636655  -0.023824  3.468012  -0.037
N  N66  1  0.81620114  0.61769695  0.03919078  1  -0.675004  0.033263  3.214214  0.057  -0.656138  0.02052  3.466513  0.032  -0.680571  0.017476  3.463432  0.027  -0.594313  -0.63659  0.022828  3.469  0.035
N  N67  1  0.68264068  0.38190470  0.53978451  1  -0.674226  -0.031924  3.212912  -0.057  -0.656085  -0.020344  3.46612  -0.032  -0.680534  -0.017008  3.463138  -0.027  -0.594016  -0.636157  -0.023609  3.467539  -0.037
O  O68  1  0.85152026  0.81567124  0.38808572  1  -0.835976  -0.025227  1.93215  -0.044  -0.797797  -0.023367  2.122773  -0.036  -0.821788  -0.020256  2.082922  -0.031  -0.580934  -0.779767  -0.025538  2.153666  -0.04
O  O69  1  0.64906648  0.18440167  0.88847171  1  -0.837225  -0.02501  1.93375  -0.044  -0.798177  -0.023789  2.124575  -0.037  -0.822638  -0.020636  2.08468  -0.031  -0.580896  -0.78022  -0.025748  2.155768  -0.04
O  O70  1  0.14852658  0.18439253  0.61191343  1  -0.835786  -0.025848  1.932081  -0.046  -0.797589  -0.023965  2.122664  -0.038  -0.821602  -0.020609  2.08272  -0.032  -0.580923  -0.779521  -0.026467  2.153613  -0.042
O  O71  1  0.35105663  0.81571313  0.11150742  1  -0.837199  0.025719  1.933149  0.043  -0.798227  0.023594  2.123758  0.035  -0.822536  0.020789  2.083621  0.031  -0.581111  -0.780502  0.025117  2.155074  0.038
O  O72  1  0.02223077  0.55477746  0.33197463  1  -0.616245  -0.051124  2.112174  -0.084  -0.584992  -0.040277  2.391171  -0.062  -0.623335  -0.030929  2.376726  -0.047  -0.313029  -0.552714  -0.050616  2.400713  -0.079
O  O73  1  0.47602414  0.44350222  0.82967682  1  -0.616746  -0.039857  2.100471  -0.063  -0.58407  -0.029145  2.377729  -0.042  -0.621934  -0.023003  2.36343  -0.032  -0.313092  -0.552166  -0.035273  2.386045  -0.052
O  O74  1  0.97731430  0.44512339  0.66816067  1  -0.617322  -0.052079  2.111762  -0.086  -0.585811  -0.040458  2.390753  -0.063  -0.624145  -0.031121  2.376267  -0.047  -0.313632  -0.5535  -0.050795  2.400325  -0.079
O  O75  1  0.52339205  0.55639030  0.17014830  1  -0.616814  0.043075  2.100307  0.065  -0.583852  0.030244  2.377582  0.043  -0.621823  0.023974  2.363388  0.033  -0.312864  -0.55191  0.036583  2.385995  0.053
O  O76  1  0.02313072  0.33301363  0.42461830  1  -0.631737  -0.040008  2.106662  -0.065  -0.605713  -0.028444  2.394062  -0.04  -0.642499  -0.020838  2.378806  -0.027  -0.316709  -0.573104  -0.03933  2.404742  -0.059
O  O77  1  0.47721241  0.66391085  0.92427859  1  -0.635706  0.040651  2.107923  0.06  -0.608616  0.028467  2.397815  0.038  -0.645879  0.021002  2.383655  0.026  -0.316912  -0.575394  0.03862  2.405423  0.054
O  O78  1  0.97705295  0.66688350  0.57541119  1  -0.631866  -0.040685  2.106529  -0.066  -0.60575  -0.028727  2.393847  -0.04  -0.642425  -0.021178  2.378403  -0.028  -0.316436  -0.573332  -0.039501  2.404884  -0.059
O  O79  1  0.52313476  0.33601049  0.07570764  1  -0.635746  -0.038159  2.109071  -0.06  -0.608921  -0.027829  2.399783  -0.038  -0.646096  -0.020378  2.385376  -0.026  -0.317204  -0.575715  -0.038001  2.407547  -0.054
O  O80  1  0.74197000  0.87437657  0.18324399  1  -0.623042  0.029673  1.966577  0.047  -0.577594  0.022789  2.201254  0.035  -0.610068  0.017207  2.191142  0.026  -0.301247  -0.55128  0.029486  2.207252  0.046
O  O81  1  0.75541653  0.12670568  0.68297596  1  -0.624552  -0.028221  1.970868  -0.047  -0.578987  -0.023153  2.205882  -0.036  -0.611698  -0.017292  2.195352  -0.026  -0.300892  -0.552118  -0.030076  2.212024  -0.048
O  O82  1  0.25847253  0.12525262  0.81647275  1  -0.623029  -0.02818  1.967801  -0.047  -0.577455  -0.022445  2.202326  -0.035  -0.609767  -0.01682  2.19223  -0.026  -0.30092  -0.551341  -0.029234  2.208301  -0.046
O  O83  1  0.24466827  0.87318973  0.31708075  1  -0.62483  -0.027895  1.971241  -0.046  -0.579433  -0.022825  2.206311  -0.036  -0.612204  -0.017152  2.195764  -0.026  -0.300862  -0.552538  -0.029451  2.212472  -0.047
O  O84  1  0.69257773  0.94573990  0.01819143  1  -0.627165  0.034526  2.058924  0.054  -0.57796  0.024852  2.304725  0.038  -0.613771  0.019127  2.296369  0.028  -0.298911  -0.548648  0.031092  2.308806  0.048
O  O85  1  0.80976448  0.05368893  0.51901758  1  -0.625094  -0.031514  2.058873  -0.052  -0.57613  -0.024045  2.305604  -0.038  -0.612032  -0.01819  2.297883  -0.028  -0.29764  -0.546528  -0.03056  2.30852  -0.048
O  O86  1  0.30674948  0.05469294  0.98189436  1  -0.627292  -0.033072  2.05859  -0.055  -0.578186  -0.024513  2.304441  -0.038  -0.61402  -0.01881  2.29611  -0.028  -0.299057  -0.548871  -0.030657  2.308603  -0.048
O  O87  1  0.19006100  0.94643105  0.48094248  1  -0.625136  -0.031323  2.059041  -0.052  -0.576304  -0.023936  2.305711  -0.038  -0.612188  -0.018135  2.297936  -0.028  -0.297757  -0.546728  -0.030406  2.308619  -0.048
