# generated using pymatgen
data_ZnH8(C5N4)2
_symmetry_space_group_name_H-M   'P 1'
_cell_length_a   6.46930413
_cell_length_b   10.76109701
_cell_length_c   16.88500000
_cell_angle_alpha   96.36533131
_cell_angle_beta   95.43528005
_cell_angle_gamma   90.47874006
_symmetry_Int_Tables_number   1
_chemical_formula_structural   ZnH8(C5N4)2
_chemical_formula_sum   'Zn4 H32 C40 N32'
_cell_volume   1162.76937630
_cell_formula_units_Z   4
loop_
 _symmetry_equiv_pos_site_id
 _symmetry_equiv_pos_as_xyz
  1  'x, y, z'
loop_
 _atom_site_type_symbol
 _atom_site_label
 _atom_site_symmetry_multiplicity
 _atom_site_fract_x
 _atom_site_fract_y
 _atom_site_fract_z
 _atom_site_occupancy
 _atom_site_hle17_bader_spin_density
 _atom_site_hle17_ddec_charge
 _atom_site_hle17_ddec_spin_density
 _atom_site_hle17_ddec_sum_bond_order
 _atom_site_hle17_magmom
 _atom_site_hse06_10hf_bader_spin_density
 _atom_site_hse06_10hf_ddec_charge
 _atom_site_hse06_10hf_ddec_spin_density
 _atom_site_hse06_10hf_ddec_sum_bond_order
 _atom_site_hse06_10hf_magmom
 _atom_site_hse06_bader_spin_density
 _atom_site_hse06_ddec_charge
 _atom_site_hse06_ddec_spin_density
 _atom_site_hse06_ddec_sum_bond_order
 _atom_site_hse06_magmom
 _atom_site_pbe_bader_charge
 _atom_site_pbe_bader_spin_density
 _atom_site_pbe_cm5_charge
 _atom_site_pbe_ddec_charge
 _atom_site_pbe_ddec_spin_density
 _atom_site_pbe_ddec_sum_bond_order
 _atom_site_pbe_magmom
Zn  Zn0  1  0.55124846  0.14810601  0.24387880  1  0  0.908957  0  2.034524  0  0  0.733155  0  2.49893  0  0  0.770421  0  2.460888  0  1.237171  0  0.707959  0.707623  0  2.524666  0
Zn  Zn1  1  0.44875020  0.85189267  0.75612035  1  0  0.908954  0  2.034547  0  0  0.733144  0  2.498949  0  0  0.770412  0  2.460907  0  1.237202  0  0.707968  0.707613  0  2.524681  0
Zn  Zn2  1  0.05608162  0.26858411  0.24573953  1  0  0.920978  0  2.017631  0  0  0.74172  0  2.4854  0  0  0.779942  0  2.446234  0  1.244242  0  0.710439  0.715158  0  2.51209  0
Zn  Zn3  1  0.94391552  0.73141550  0.75425963  1  0  0.921022  0  2.017602  0  0  0.741751  0  2.485361  0  0  0.779977  0  2.446195  0  1.244235  0  0.710449  0.715189  0  2.512048  0
H  H4  1  0.72547683  0.15614412  0.41914938  1  0  0.07269  0  0.976132  0  0  0.079957  0  1.045106  0  0  0.082739  0  1.042314  0  0.106572  0  0.111458  0.077647  0  1.047781  0
H  H5  1  0.27452655  0.84385643  0.58085067  1  0  0.072647  0  0.976088  0  0  0.07991  0  1.045067  0  0  0.08269  0  1.042278  0  0.106589  0  0.111435  0.0776  0  1.047741  0
H  H6  1  0.22656034  0.30007910  0.42239285  1  0  0.071985  0  0.978674  0  0  0.077663  0  1.050105  0  0  0.080492  0  1.047491  0  0.103265  0  0.109877  0.075452  0  1.052366  0
H  H7  1  0.77344299  0.69991958  0.57760706  1  0  0.071968  0  0.978763  0  0  0.077682  0  1.050155  0  0  0.080509  0  1.047543  0  0.103295  0  0.109873  0.075461  0  1.052424  0
H  H8  1  0.79196747  0.00275886  0.52172130  1  0  0.10636  0  0.961283  0  0  0.114084  0  1.023063  0  0  0.116718  0  1.023518  0  0.081382  0  0.106164  0.112052  0  1.022985  0
H  H9  1  0.20803592  0.99724169  0.47827875  1  0  0.106327  0  0.961288  0  0  0.114024  0  1.023095  0  0  0.116658  0  1.023551  0  0.081416  0  0.106142  0.111991  0  1.023023  0
H  H10  1  0.71909924  0.77401981  0.47554872  1  0  0.087045  0  0.960277  0  0  0.102384  0  1.014696  0  0  0.104483  0  1.013425  0  0.076631  0  0.10707  0.100588  0  1.01601  0
H  H11  1  0.28090100  0.22597980  0.52445055  1  0  0.08704  0  0.960283  0  0  0.10238  0  1.014699  0  0  0.104479  0  1.013427  0  0.076624  0  0.107066  0.100584  0  1.016015  0
H  H12  1  0.58327137  0.70920900  0.33511782  1  0  0.115708  0  1.001525  0  0  0.121955  0  1.069643  0  0  0.125366  0  1.068201  0  0.169385  0  0.106871  0.11923  0  1.071188  0
H  H13  1  0.41672586  0.29079342  0.66488154  1  0  0.115742  0  1.001525  0  0  0.12199  0  1.069629  0  0  0.125399  0  1.068195  0  0.169366  0  0.106877  0.119264  0  1.071175  0
H  H14  1  0.34384878  0.03959388  0.07289084  1  0  0.079797  0  0.937676  0  0  0.085024  0  1.006888  0  0  0.087196  0  1.005502  0  0.105732  0  0.116225  0.083741  0  1.007424  0
H  H15  1  0.65614988  0.96040480  0.92710772  1  0  0.079897  0  0.937615  0  0  0.085111  0  1.006849  0  0  0.087285  0  1.00546  0  0.105716  0  0.116245  0.083827  0  1.007385  0
H  H16  1  0.30550111  0.82831890  0.99439899  1  0  0.100284  0  0.961368  0  0  0.10849  0  1.024573  0  0  0.11085  0  1.025063  0  0.071241  0  0.106452  0.106896  0  1.024356  0
H  H17  1  0.69449753  0.17167885  0.00560068  1  0  0.100283  0  0.961332  0  0  0.108491  0  1.024526  0  0  0.110852  0  1.025015  0  0.071263  0  0.106453  0.106896  0  1.02431  0
H  H18  1  0.39156406  0.63848300  0.06636480  1  0  0.098442  0  0.943893  0  0  0.108481  0  1.006511  0  0  0.110721  0  1.005016  0  0.10742  0  0.109718  0.107135  0  1.007107  0
H  H19  1  0.60843302  0.36151475  0.93363659  1  0  0.098459  0  0.943893  0  0  0.108497  0  1.006519  0  0  0.110739  0  1.005019  0  0.107465  0  0.109716  0.107152  0  1.007114  0
H  H20  1  0.50979396  0.66848819  0.21131635  1  0  0.116171  0  0.961621  0  0  0.123479  0  1.026636  0  0  0.126836  0  1.02558  0  0.120866  0  0.109459  0.121395  0  1.026913  0
H  H21  1  0.49020163  0.33151142  0.78868275  1  0  0.116216  0  0.961536  0  0  0.123473  0  1.026606  0  0  0.126874  0  1.025502  0  0.120846  0  0.109459  0.12139  0  1.026881  0
H  H22  1  0.02955930  0.74469825  0.23976256  1  0  0.114289  0  0.98084  0  0  0.119593  0  1.049387  0  0  0.123061  0  1.048062  0  0.139763  0  0.105691  0.117381  0  1.050066  0
H  H23  1  0.97044094  0.25530136  0.76023849  1  0  0.114298  0  0.980828  0  0  0.119578  0  1.049405  0  0  0.123045  0  1.048081  0  0.139801  0  0.105696  0.117369  0  1.050088  0
H  H24  1  0.89166208  0.74278014  0.09740258  1  0  0.099231  0  0.95424  0  0  0.107317  0  1.016854  0  0  0.109796  0  1.015198  0  0.140316  0  0.106577  0.106009  0  1.017269  0
H  H25  1  0.10833670  0.25722228  0.90259920  1  0  0.099254  0  0.954244  0  0  0.107338  0  1.016862  0  0  0.10982  0  1.015193  0  0.140306  0  0.106586  0.106031  0  1.017274  0
H  H26  1  0.79270387  0.53736088  0.01615316  1  0  0.102484  0  0.993213  0  0  0.106925  0  1.06404  0  0  0.109864  0  1.063305  0  0.121641  0  0.102995  0.104892  0  1.064757  0
H  H27  1  0.20730113  0.46264154  0.98384649  1  0  0.102483  0  0.993162  0  0  0.106919  0  1.064004  0  0  0.10986  0  1.063269  0  0.121646  0  0.102993  0.104881  0  1.064726  0
H  H28  1  0.85222855  0.33951773  0.08190426  1  0  0.071971  0  0.945673  0  0  0.079519  0  1.012799  0  0  0.081611  0  1.011373  0  0.089756  0  0.113661  0.078416  0  1.013233  0
H  H29  1  0.14777641  0.66048375  0.91809531  1  0  0.071954  0  0.945767  0  0  0.079531  0  1.012851  0  0  0.081622  0  1.011427  0  0.089669  0  0.113659  0.078428  0  1.013282  0
H  H30  1  0.10722871  0.73153988  0.36131931  1  0  0.115771  0  0.986495  0  0  0.122981  0  1.052344  0  0  0.126277  0  1.051098  0  0.130782  0  0.107698  0.120428  0  1.053674  0
H  H31  1  0.89277306  0.26845880  0.63868114  1  0  0.11576  0  0.986493  0  0  0.122999  0  1.052313  0  0  0.126296  0  1.051063  0  0.130753  0  0.107707  0.120427  0  1.053664  0
H  H32  1  0.24463215  0.69669873  0.50002945  1  0  0.087752  0  0.960403  0  0  0.101  0  1.017702  0  0  0.103306  0  1.01618  0  0.105023  0  0.104565  0.09907  0  1.019157  0
H  H33  1  0.75536803  0.30329902  0.49996969  1  0  0.087734  0  0.960434  0  0  0.100978  0  1.017736  0  0  0.103282  0  1.016218  0  0.104984  0  0.104575  0.099047  0  1.019192  0
H  H34  1  0.30556676  0.47825202  0.53363740  1  0  0.104964  0  0.963  0  0  0.112394  0  1.025884  0  0  0.114891  0  1.026476  0  0.116562  0  0.106368  0.110452  0  1.025799  0
H  H35  1  0.69443659  0.52174759  0.46636258  1  0  0.104991  0  0.962918  0  0  0.11243  0  1.025804  0  0  0.114927  0  1.026395  0  0.116602  0  0.106379  0.110488  0  1.025719  0
C  C36  1  0.69540917  0.05600490  0.40466157  1  0  0.143767  0  3.699219  0  0  0.109629  0  3.950688  0  0  0.116154  0  3.968068  0  0.467932  0  0.051929  0.105304  0  3.939566  0
C  C37  1  0.30459421  0.94399565  0.59533848  1  0  0.143776  0  3.699235  0  0  0.109662  0  3.950674  0  0  0.116187  0  3.968056  0  0.467884  0  0.051901  0.105336  0  3.939553  0
C  C38  1  0.20203236  0.39787468  0.41342308  1  0  0.136511  0  3.70429  0  0  0.101996  0  3.957552  0  0  0.108268  0  3.974919  0  0.504868  0  0.047296  0.097951  0  3.946153  0
C  C39  1  0.79797251  0.60212400  0.58657629  1  0  0.136603  0  3.704376  0  0  0.102057  0  3.957589  0  0  0.108331  0  3.97496  0  0.504843  0  0.047378  0.09802  0  3.946194  0
C  C40  1  0.73254890  0.97063971  0.46021798  1  0  -0.122408  0  3.736184  0  0  -0.134327  0  3.988981  0  0  -0.140758  0  4.010573  0  0.033326  0  -0.085003  -0.130225  0  3.974591  0
C  C41  1  0.26745445  0.02935990  0.53978259  1  0  -0.12241  0  3.73618  0  0  -0.134325  0  3.988984  0  0  -0.140755  0  4.010573  0  0.033355  0  -0.084993  -0.130224  0  3.974595  0
C  C42  1  0.69155404  0.84438389  0.43433161  1  0  0.001681  0  3.717353  0  0  -0.016235  0  3.96399  0  0  -0.012964  0  3.982428  0  -0.106795  0  -0.066359  -0.018138  0  3.951707  0
C  C43  1  0.30844779  0.15561666  0.56566837  1  0  0.001739  0  3.717253  0  0  -0.016168  0  3.963877  0  0  -0.012895  0  3.982312  0  -0.106709  0  -0.066329  -0.018071  0  3.951597  0
C  C44  1  0.61502120  0.80769757  0.35535283  1  0  -0.133143  0  3.67885  0  0  -0.152732  0  3.927352  0  0  -0.159809  0  3.948146  0  0.030008  0  -0.076301  -0.148352  0  3.913881  0
C  C45  1  0.38498063  0.19230298  0.64464716  1  0  -0.133217  0  3.678844  0  0  -0.152796  0  3.927339  0  0  -0.159874  0  3.948131  0  0.029974  0  -0.076284  -0.148415  0  3.913867  0
C  C46  1  0.57998052  0.89943862  0.30324978  1  0  0.185791  0  3.748847  0  0  0.177668  0  3.991716  0  0  0.184413  0  4.011325  0  0.488204  0  0.12495  0.173064  0  3.978584  0
C  C47  1  0.42001824  0.10056286  0.69675075  1  0  0.185851  0  3.748957  0  0  0.177697  0  3.991795  0  0  0.184452  0  4.01141  0  0.488165  0  0.124941  0.173094  0  3.978663  0
C  C48  1  0.49831922  0.87095314  0.21811177  1  0  0.18122  0  3.737383  0  0  0.17548  0  3.977479  0  0  0.182018  0  3.997286  0  0.461494  0  0.122882  0.171211  0  3.963974  0
C  C49  1  0.50167636  0.12904648  0.78188733  1  0  0.181221  0  3.73744  0  0  0.175572  0  3.977404  0  0  0.182072  0  3.997267  0  0.461467  0  0.122886  0.171304  0  3.9639  0
C  C50  1  0.38205672  0.95515829  0.10103970  1  0  0.147061  0  3.709146  0  0  0.110384  0  3.972076  0  0  0.11725  0  3.990443  0  0.477502  0  0.052084  0.106088  0  3.958977  0
C  C51  1  0.61794349  0.04484039  0.89895950  1  0  0.146914  0  3.709094  0  0  0.110223  0  3.972044  0  0  0.117086  0  3.990407  0  0.477518  0  0.052017  0.105927  0  3.958945  0
C  C52  1  0.35884134  0.83691720  0.05791241  1  0  -0.112644  0  3.719859  0  0  -0.127604  0  3.977087  0  0  -0.135281  0  3.99951  0  0.043426  0  -0.078777  -0.122743  0  3.962186  0
C  C53  1  0.64115574  0.16308055  0.94208661  1  0  -0.112543  0  3.719734  0  0  -0.127489  0  3.976956  0  0  -0.135165  0  3.999381  0  0.043447  0  -0.078742  -0.122629  0  3.962058  0
C  C54  1  0.40543884  0.73265839  0.09784770  1  0  0.003032  0  3.717415  0  0  -0.015686  0  3.966513  0  0  -0.01237  0  3.986269  0  0.001104  0  -0.061564  -0.017666  0  3.952701  0
C  C55  1  0.59455675  0.26734122  0.90215199  1  0  0.002951  0  3.717376  0  0  -0.015777  0  3.96649  0  0  -0.012466  0  3.986258  0  0.001096  0  -0.06158  -0.017758  0  3.95268  0
C  C56  1  0.47341528  0.74930415  0.17927998  1  0  -0.131218  0  3.678214  0  0  -0.146904  0  3.920912  0  0  -0.154131  0  3.942565  0  -0.006212  0  -0.073194  -0.142283  0  3.90598  0
C  C57  1  0.52658030  0.25069546  0.82071971  1  0  -0.131286  0  3.678132  0  0  -0.146963  0  3.920838  0  0  -0.154215  0  3.94248  0  -0.006199  0  -0.073246  -0.142342  0  3.905903  0
C  C58  1  0.01343245  0.54237920  0.23578327  1  0  0.179317  0  3.747503  0  0  0.172181  0  3.991284  0  0  0.178723  0  4.010947  0  0.509434  0  0.120678  0.167917  0  3.977797  0
C  C59  1  0.98656625  0.45762041  0.76421654  1  0  0.179384  0  3.74762  0  0  0.172293  0  3.991372  0  0  0.178835  0  4.011032  0  0.509436  0  0.120711  0.168021  0  3.977894  0
C  C60  1  0.98904822  0.65608360  0.20349808  1  0  -0.130941  0  3.668746  0  0  -0.147298  0  3.913567  0  0  -0.154519  0  3.934848  0  -0.061287  0  -0.076327  -0.142664  0  3.899126  0
C  C61  1  0.01095205  0.34391695  0.79650303  1  0  -0.131012  0  3.668783  0  0  -0.147362  0  3.913626  0  0  -0.154582  0  3.934907  0  -0.061288  0  -0.076364  -0.142732  0  3.89919  0
C  C62  1  0.91144399  0.65481733  0.12349185  1  0  0.001663  0  3.714041  0  0  -0.014099  0  3.957645  0  0  -0.010909  0  3.977683  0  -0.073922  0  -0.064705  -0.016021  0  3.943501  0
C  C63  1  0.08855631  0.34518415  0.87650874  1  0  0.001679  0  3.714073  0  0  -0.01408  0  3.957672  0  0  -0.010884  0  3.977708  0  -0.073914  0  -0.064707  -0.016  0  3.943527  0
C  C64  1  0.85862487  0.54092028  0.07813430  1  0  -0.12073  0  3.726864  0  0  -0.133377  0  3.980116  0  0  -0.141395  0  4.002847  0  -0.002813  0  -0.082284  -0.128278  0  3.964937  0
C  C65  1  0.14137544  0.45908121  0.92186569  1  0  -0.120727  0  3.726763  0  0  -0.13338  0  3.980033  0  0  -0.141402  0  4.002763  0  -0.002936  0  -0.082315  -0.128282  0  3.964856  0
C  C66  1  0.88955851  0.43151690  0.11431382  1  0  0.145422  0  3.712501  0  0  0.110847  0  3.971175  0  0  0.11761  0  3.989472  0  0.473049  0  0.049639  0.106522  0  3.958073  0
C  C67  1  0.11044338  0.56848552  0.88568630  1  0  0.145407  0  3.712504  0  0  0.110828  0  3.971195  0  0  0.11759  0  3.989498  0  0.473222  0  0.049686  0.106506  0  3.958084  0
C  C68  1  0.09346942  0.53298691  0.31987208  1  0  0.188666  0  3.749912  0  0  0.179301  0  3.993792  0  0  0.186345  0  4.012928  0  0.490176  0  0.124916  0.174398  0  3.981239  0
C  C69  1  0.90652921  0.46701083  0.68012759  1  0  0.188655  0  3.750113  0  0  0.17923  0  3.994027  0  0  0.186277  0  4.013165  0  0.490234  0  0.124921  0.174329  0  3.98147  0
C  C70  1  0.13412119  0.63711946  0.37702202  1  0  -0.136987  0  3.673677  0  0  -0.153743  0  3.918829  0  0  -0.160964  0  3.939809  0  0.032337  0  -0.075209  -0.149333  0  3.905368  0
C  C71  1  0.86588055  0.36287828  0.62297777  1  0  -0.136988  0  3.673697  0  0  -0.153756  0  3.91884  0  0  -0.160976  0  3.939819  0  0.032321  0  -0.075249  -0.149331  0  3.905394  0
C  C72  1  0.21138174  0.61766621  0.45430511  1  0  0.000215  0  3.719306  0  0  -0.018557  0  3.967405  0  0  -0.015424  0  3.986072  0  -0.051635  0  -0.067729  -0.020269  0  3.954796  0
C  C73  1  0.78862000  0.38233153  0.54569409  1  0  0.000216  0  3.719237  0  0  -0.018547  0  3.967335  0  0  -0.015415  0  3.986004  0  -0.05163  0  -0.067741  -0.020258  0  3.954722  0
C  C74  1  0.24621982  0.49622110  0.47348172  1  0  -0.12143  0  3.738584  0  0  -0.133684  0  3.992319  0  0  -0.140066  0  4.014504  0  -0.093886  0  -0.084348  -0.129595  0  3.977457  0
C  C75  1  0.75378350  0.50377758  0.52651819  1  0  -0.121427  0  3.73841  0  0  -0.133708  0  3.992183  0  0  -0.140091  0  4.014367  0  -0.093531  0  -0.084354  -0.129619  0  3.977321  0
N  N76  1  0.32497277  0.24723052  0.18075909  1  0  -0.599361  0  2.851885  0  0  -0.550543  0  3.181645  0  0  -0.574928  0  3.18449  0  -0.38525  0  -0.321316  -0.53466  0  3.180019  0
N  N77  1  0.67502590  0.75276816  0.81924065  1  0  -0.599329  0  2.851926  0  0  -0.55048  0  3.181637  0  0  -0.574868  0  3.184485  0  -0.385754  0  -0.32129  -0.534593  0  3.179997  0
N  N78  1  0.36686294  0.31822680  0.13345747  1  0  0.411358  0  4.186539  0  0  0.442116  0  4.466812  0  0  0.457779  0  4.494489  0  -0.320178  0  0.092195  0.431509  0  4.448889  0
N  N79  1  0.63313432  0.68177656  0.86654551  1  0  0.411137  0  4.1868  0  0  0.441923  0  4.467001  0  0  0.457582  0  4.494685  0  -0.320477  0  0.092155  0.431322  0  4.449067  0
N  N80  1  0.62089280  0.02126381  0.32863964  1  0  -0.339762  0  3.305803  0  0  -0.264035  0  3.567124  0  0  -0.281081  0  3.583584  0  -1.261294  0  -0.321023  -0.253356  0  3.55697  0
N  N81  1  0.37910595  0.97873767  0.67135971  1  0  -0.339768  0  3.305821  0  0  -0.264047  0  3.567131  0  0  -0.281096  0  3.583595  0  -1.261216  0  -0.321003  -0.253369  0  3.556978  0
N  N82  1  0.45218995  0.97151039  0.17869474  1  0  -0.351666  0  3.288759  0  0  -0.280268  0  3.551771  0  0  -0.29762  0  3.569122  0  -1.257032  0  -0.323203  -0.26841  0  3.539269  0
N  N83  1  0.54780564  0.02848923  0.82130436  1  0  -0.35167  0  3.288784  0  0  -0.280267  0  3.551733  0  0  -0.297614  0  3.56911  0  -1.25708  0  -0.323126  -0.268407  0  3.539224  0
N  N84  1  0.82402127  0.15309066  0.17950077  1  0  -0.613143  0  2.828457  0  0  -0.566498  0  3.161836  0  0  -0.591336  0  3.16468  0  -0.409768  0  -0.327545  -0.550254  0  3.160063  0
N  N85  1  0.17597743  0.84690895  0.82049845  1  0  -0.613085  0  2.828357  0  0  -0.56641  0  3.161741  0  0  -0.591251  0  3.164587  0  -0.410333  0  -0.327542  -0.550166  0  3.159965  0
N  N86  1  0.18515504  0.13961339  0.31755796  1  0  -0.582251  0  2.727663  0  0  -0.546293  0  3.036842  0  0  -0.568535  0  3.042751  0  -0.30966  0  -0.301808  -0.529928  0  3.032073  0
N  N87  1  0.81484055  0.86038623  0.68244173  1  0  -0.582225  0  2.727533  0  0  -0.54627  0  3.036745  0  0  -0.568495  0  3.042617  0  -0.309712  0  -0.301793  -0.529903  0  3.03197  0
N  N88  1  0.13640229  0.03208603  0.31865592  1  0  0.40134  0  4.251388  0  0  0.433215  0  4.538884  0  0  0.448734  0  4.568588  0  -0.328999  0  0.078085  0.422824  0  4.517755  0
N  N89  1  0.86359795  0.96791358  0.68134631  1  0  0.401252  0  4.251424  0  0  0.433112  0  4.538937  0  0  0.448631  0  4.568644  0  -0.329018  0  0.078047  0.422722  0  4.517806  0
N  N90  1  0.09696836  0.92660172  0.32215393  1  0  -0.42407  0  2.453519  0  0  -0.424702  0  2.695528  0  0  -0.433492  0  2.707418  0  -0.107149  0  -0.208802  -0.417029  0  2.686469  0
N  N91  1  0.90303651  0.07339696  0.67785078  1  0  -0.423985  0  2.453579  0  0  -0.424636  0  2.695637  0  0  -0.433426  0  2.707526  0  -0.107103  0  -0.208787  -0.416963  0  2.686572  0
N  N92  1  0.96567049  0.43214349  0.19079220  1  0  -0.351458  0  3.295082  0  0  -0.279945  0  3.559991  0  0  -0.297487  0  3.577513  0  -1.247296  0  -0.323251  -0.267782  0  3.547413  0
N  N93  1  0.03432820  0.56785613  0.80920701  1  0  -0.351441  0  3.295164  0  0  -0.279993  0  3.560125  0  0  -0.297529  0  3.577634  0  -1.247287  0  -0.323279  -0.267821  0  3.54754  0
N  N94  1  0.12711308  0.41594570  0.33901329  1  0  -0.336998  0  3.297814  0  0  -0.260216  0  3.558312  0  0  -0.277157  0  3.574459  0  -1.234161  0  -0.316806  -0.249431  0  3.548242  0
N  N95  1  0.87288866  0.58405205  0.66098650  1  0  -0.33713  0  3.298026  0  0  -0.260283  0  3.558502  0  0  -0.277237  0  3.574662  0  -1.234194  0  -0.31686  -0.249497  0  3.54843  0
N  N96  1  0.67591426  0.29819933  0.32146024  1  0  -0.581488  0  2.697435  0  0  -0.549135  0  3.004819  0  0  -0.571043  0  3.010758  0  -0.312084  0  -0.303649  -0.533001  0  3.000198  0
N  N97  1  0.32408756  0.70180122  0.67853797  1  0  -0.581636  0  2.697313  0  0  -0.549304  0  3.004767  0  0  -0.571215  0  3.010704  0  -0.31212  0  -0.303799  -0.533164  0  3.000153  0
N  N98  1  0.62624960  0.40401245  0.31446987  1  0  0.398707  0  4.256356  0  0  0.43235  0  4.542966  0  0  0.447836  0  4.572778  0  -0.34881  0  0.076618  0.421995  0  4.521728  0
N  N99  1  0.37375219  0.59598717  0.68552887  1  0  0.398847  0  4.256198  0  0  0.432459  0  4.542842  0  0  0.447946  0  4.572653  0  -0.348832  0  0.076705  0.422093  0  4.521621  0
N  N100  1  0.58315061  0.50837506  0.30941984  1  0  -0.420078  0  2.453732  0  0  -0.421583  0  2.695243  0  0  -0.430222  0  2.707152  0  -0.080226  0  -0.210011  -0.413908  0  2.686089  0
N  N101  1  0.41684969  0.49162643  0.69057956  1  0  -0.420059  0  2.453743  0  0  -0.421534  0  2.695241  0  0  -0.430176  0  2.707158  0  -0.080198  0  -0.209958  -0.413855  0  2.686094  0
N  N102  1  0.40418671  0.38584511  0.08740854  1  0  -0.356393  0  2.407279  0  0  -0.351104  0  2.630308  0  0  -0.356589  0  2.640822  0  0.005725  0  -0.166946  -0.348099  0  2.623685  0
N  N103  1  0.59580920  0.61416480  0.91259663  1  0  -0.356259  0  2.407531  0  0  -0.350966  0  2.630502  0  0  -0.356447  0  2.641017  0  0.006555  0  -0.166952  -0.347992  0  2.623914  0
N  N104  1  0.86274727  0.06122336  0.13500611  1  0  0.405342  0  4.179777  0  0  0.438077  0  4.459704  0  0  0.453372  0  4.487447  0  -0.342124  0  0.089708  0.427683  0  4.441704  0
N  N105  1  0.13724993  0.93877813  0.86499259  1  0  0.405294  0  4.179703  0  0  0.437973  0  4.459707  0  0  0.453267  0  4.48745  0  -0.34158  0  0.089677  0.42758  0  4.441707  0
N  N106  1  0.89292272  0.97359403  0.09131414  1  0  -0.339794  0  2.380274  0  0  -0.340793  0  2.599062  0  0  -0.344983  0  2.609366  0  0.05401  0  -0.164057  -0.338587  0  2.592674  0
N  N107  1  0.10706979  0.02640652  0.90868314  1  0  -0.339767  0  2.380265  0  0  -0.340722  0  2.599056  0  0  -0.344917  0  2.609368  0  0.054057  0  -0.164022  -0.338519  0  2.592667  0
