# generated using pymatgen
data_Cd3H56C44(N3O2)6
_symmetry_space_group_name_H-M   'P 1'
_cell_length_a   9.65619040
_cell_length_b   15.15492082
_cell_length_c   18.84278876
_cell_angle_alpha   90.00040481
_cell_angle_beta   89.10878766
_cell_angle_gamma   89.99931169
_symmetry_Int_Tables_number   1
_chemical_formula_structural   Cd3H56C44(N3O2)6
_chemical_formula_sum   'Cd6 H112 C88 N36 O24'
_cell_volume   2757.09754565
_cell_formula_units_Z   2
loop_
 _symmetry_equiv_pos_site_id
 _symmetry_equiv_pos_as_xyz
  1  'x, y, z'
loop_
 _atom_site_type_symbol
 _atom_site_label
 _atom_site_symmetry_multiplicity
 _atom_site_fract_x
 _atom_site_fract_y
 _atom_site_fract_z
 _atom_site_occupancy
 _atom_site_pbe_bader_charge
 _atom_site_pbe_bader_spin_density
 _atom_site_pbe_cm5_charge
 _atom_site_pbe_ddec_charge
 _atom_site_pbe_ddec_spin_density
 _atom_site_pbe_ddec_sum_bond_order
 _atom_site_pbe_magmom
Cd  Cd0  1  0.00000834  0.00000643  0.99999890  1  1.333859  0  0.799195  1.026653  0  2.313365  0
Cd  Cd1  1  0.00000672  0.50000154  0.50000033  1  1.333904  0  0.799183  1.026629  0  2.313284  0
Cd  Cd2  1  0.11589782  0.78091708  0.93751476  1  1.285229  0  0.789977  0.885906  0  2.323328  0
Cd  Cd3  1  0.88409155  0.28090851  0.56248020  1  1.285207  0  0.79001  0.885966  0  2.323454  0
Cd  Cd4  1  0.88410972  0.21908873  0.06247995  1  1.285173  0  0.79  0.885924  0  2.323366  0
Cd  Cd5  1  0.11592524  0.71908477  0.43751926  1  1.285129  0  0.790041  0.885953  0  2.323438  0
H  H6  1  0.33559632  0.90024166  0.01157616  1  0.124128  0  0.115128  0.086441  0  1.025037  0
H  H7  1  0.66437905  0.40024848  0.48844077  1  0.123692  0  0.115148  0.086426  0  1.025016  0
H  H8  1  0.66440992  0.09974963  0.98843607  1  0.123934  0  0.115062  0.086331  0  1.024926  0
H  H9  1  0.33564773  0.59976393  0.51158306  1  0.124488  0  0.115187  0.086364  0  1.025046  0
H  H10  1  0.59321127  0.92291786  0.02738404  1  0.1179  0  0.113145  0.125544  0  0.998297  0
H  H11  1  0.40676996  0.42291861  0.47262768  1  0.117868  0  0.113163  0.125512  0  0.998373  0
H  H12  1  0.40678875  0.07707674  0.97262821  1  0.118176  0  0.11317  0.125549  0  0.998351  0
H  H13  1  0.59325900  0.57710304  0.52738871  1  0.117286  0  0.113225  0.125491  0  0.998365  0
H  H14  1  0.66290468  0.69972726  0.89041765  1  0.105281  0  0.110448  0.115938  0  1.010707  0
H  H15  1  0.33708399  0.19972268  0.60958747  1  0.106051  0  0.110466  0.116031  0  1.010848  0
H  H16  1  0.33709655  0.30027393  0.10958346  1  0.105292  0  0.110439  0.115946  0  1.010616  0
H  H17  1  0.66291524  0.80028049  0.39040887  1  0.106219  0  0.110459  0.115923  0  1.010891  0
H  H18  1  0.40393446  0.68465919  0.88072753  1  0.090202  0  0.115713  0.080011  0  1.008418  0
H  H19  1  0.59605030  0.18465995  0.61928070  1  0.090451  0  0.115768  0.080124  0  1.008368  0
H  H20  1  0.59606881  0.31533805  0.11927623  1  0.090135  0  0.115753  0.080076  0  1.008384  0
H  H21  1  0.40394049  0.81533729  0.38072575  1  0.090448  0  0.115735  0.080094  0  1.008355  0
H  H22  1  0.98893151  0.85972968  0.34201307  1  0.112814  0  0.115888  0.084723  0  1.033239  0
H  H23  1  0.01108413  0.35974256  0.15799338  1  0.112625  0  0.115911  0.084752  0  1.033072  0
H  H24  1  0.01107593  0.14026558  0.65798854  1  0.112633  0  0.115901  0.084707  0  1.033228  0
H  H25  1  0.98891813  0.64026193  0.84200825  1  0.112575  0  0.115925  0.084779  0  1.033122  0
H  H26  1  0.97697432  0.91418936  0.21600519  1  0.105455  0  0.107319  0.116968  0  1.042561  0
H  H27  1  0.02303104  0.41419404  0.28399737  1  0.105202  0  0.107295  0.11699  0  1.0425  0
H  H28  1  0.02303207  0.08580920  0.78399749  1  0.105345  0  0.107307  0.116979  0  1.042617  0
H  H29  1  0.97696194  0.58581310  0.71600165  1  0.105266  0  0.107285  0.116947  0  1.042553  0
H  H30  1  0.28350865  0.71573942  0.16102966  1  0.155557  0  0.11484  0.136673  0  1.009347  0
H  H31  1  0.71650057  0.21573461  0.33896379  1  0.155768  0  0.114797  0.136677  0  1.009301  0
H  H32  1  0.71650092  0.28426243  0.83896823  1  0.155676  0  0.114813  0.136655  0  1.009308  0
H  H33  1  0.28349245  0.78426593  0.66103257  1  0.155863  0  0.114806  0.136723  0  1.009331  0
H  H34  1  0.28723251  0.67395751  0.28853363  1  0.083052  0  0.116504  0.08603  0  1.00855  0
H  H35  1  0.71279611  0.17395950  0.21146110  1  0.083288  0  0.11647  0.08598  0  1.008567  0
H  H36  1  0.71277914  0.32604039  0.71146319  1  0.083062  0  0.116488  0.086017  0  1.008481  0
H  H37  1  0.28721446  0.82603905  0.78853837  1  0.083153  0  0.116497  0.086031  0  1.0085  0
H  H38  1  0.95658350  0.50457766  0.15629677  1  0.046594  0  0.105101  0.08584  0  1.003233  0
H  H39  1  0.04343063  0.00457348  0.34370183  1  0.046544  0  0.105091  0.085843  0  1.003371  0
H  H40  1  0.04341356  0.49542749  0.84370594  1  0.046459  0  0.105088  0.085787  0  1.003287  0
H  H41  1  0.95656962  0.99542046  0.65629557  1  0.046384  0  0.105077  0.085752  0  1.003352  0
H  H42  1  0.03854382  0.60832514  0.17274425  1  0.035164  0  0.096307  0.067722  0  1.012464  0
H  H43  1  0.96146837  0.10832229  0.32725389  1  0.035178  0  0.096297  0.067744  0  1.012316  0
H  H44  1  0.96145738  0.39167869  0.82725845  1  0.035301  0  0.096291  0.067684  0  1.012334  0
H  H45  1  0.03853293  0.89167560  0.67274244  1  0.035194  0  0.096318  0.067712  0  1.012405  0
H  H46  1  0.24970640  0.52701868  0.16210973  1  0.099661  0  0.108368  0.098586  0  1.001226  0
H  H47  1  0.75030853  0.02701623  0.33787732  1  0.099481  0  0.108292  0.098494  0  1.001149  0
H  H48  1  0.75029177  0.47298252  0.83788821  1  0.099623  0  0.108354  0.098567  0  1.001157  0
H  H49  1  0.24968965  0.97298166  0.66212061  1  0.09949  0  0.108312  0.098566  0  1.001144  0
H  H50  1  0.17041610  0.44086588  0.11160962  1  -0.008692  0  0.096706  0.068363  0  0.999382  0
H  H51  1  0.82959205  0.94086190  0.38838034  1  -0.008799  0  0.09663  0.068299  0  0.999206  0
H  H52  1  0.82957890  0.55913663  0.88839258  1  -0.00869  0  0.096683  0.068334  0  0.999302  0
H  H53  1  0.17040618  0.05913467  0.61161335  1  -0.00883  0  0.096606  0.068239  0  0.999287  0
H  H54  1  0.77648569  0.59873885  0.07943553  1  0.067447  0  0.101272  0.112831  0  1.004407  0
H  H55  1  0.22352030  0.09873792  0.42057426  1  0.067639  0  0.1013  0.112932  0  1.004331  0
H  H56  1  0.22351344  0.40126300  0.92056771  1  0.067433  0  0.101297  0.112878  0  1.004433  0
H  H57  1  0.77647686  0.90126658  0.57942209  1  0.067555  0  0.10136  0.113045  0  1.004271  0
H  H58  1  0.85063688  0.64944650  0.00169726  1  0.060161  0  0.104101  0.116896  0  1.036779  0
H  H59  1  0.14935370  0.14944155  0.49831021  1  0.059988  0  0.104058  0.116828  0  1.036872  0
H  H60  1  0.14936742  0.35055997  0.99830648  1  0.060054  0  0.104069  0.116821  0  1.036791  0
H  H61  1  0.85064242  0.85055964  0.50168667  1  0.059897  0  0.104073  0.116863  0  1.036969  0
H  H62  1  0.87351231  0.69913626  0.08620976  1  0.053978  0  0.093795  0.102773  0  1.013613  0
H  H63  1  0.12649079  0.19913667  0.41379742  1  0.054084  0  0.093822  0.10278  0  1.013627  0
H  H64  1  0.12649196  0.30086626  0.91379558  1  0.054088  0  0.093818  0.102748  0  1.013682  0
H  H65  1  0.87349908  0.80086452  0.58620108  1  0.054128  0  0.093831  0.102827  0  1.013544  0
H  H66  1  0.43030424  0.56416450  0.05276783  1  0.099324  0  0.09972  0.120159  0  1.028643  0
H  H67  1  0.56969665  0.06416047  0.44721099  1  0.09884  0  0.099709  0.120164  0  1.028767  0
H  H68  1  0.56968979  0.43583273  0.94723012  1  0.099246  0  0.099699  0.120121  0  1.028698  0
H  H69  1  0.43030365  0.93583809  0.55278322  1  0.099079  0  0.099709  0.12018  0  1.028844  0
H  H70  1  0.34786051  0.57541871  0.96832492  1  0.099277  0  0.104173  0.114241  0  1.022567  0
H  H71  1  0.65212358  0.07542419  0.53165828  1  0.099443  0  0.104172  0.114197  0  1.022576  0
H  H72  1  0.65213144  0.42457391  0.03167410  1  0.099385  0  0.104158  0.114237  0  1.022516  0
H  H73  1  0.34787153  0.92457436  0.46833701  1  0.099534  0  0.104188  0.114225  0  1.02267  0
H  H74  1  0.36085079  0.46930760  0.00873777  1  0.039831  0  0.093619  0.093629  0  1.020565  0
H  H75  1  0.63915063  0.96930732  0.49125184  1  0.039562  0  0.093593  0.093621  0  1.020528  0
H  H76  1  0.63914525  0.53068832  0.99126442  1  0.039878  0  0.093617  0.093603  0  1.020568  0
H  H77  1  0.36084236  0.03069123  0.50874611  1  0.03951  0  0.093605  0.093626  0  1.020517  0
H  H78  1  0.80030264  0.72232933  0.30549308  1  0.064116  0  0.100293  0.087397  0  1.026055  0
H  H79  1  0.19969080  0.22232656  0.19450843  1  0.064104  0  0.100391  0.087544  0  1.025989  0
H  H80  1  0.19966023  0.27767649  0.69451083  1  0.064349  0  0.100336  0.087528  0  1.026028  0
H  H81  1  0.80028765  0.77766276  0.80549277  1  0.063956  0  0.100428  0.087671  0  1.025992  0
H  H82  1  0.87050210  0.68474815  0.22280595  1  0.017141  0  0.092834  0.06278  0  1.013381  0
H  H83  1  0.12950861  0.18474667  0.27719581  1  0.017069  0  0.092838  0.062819  0  1.013344  0
H  H84  1  0.12948042  0.31526228  0.77719947  1  0.016833  0  0.092888  0.062918  0  1.013316  0
H  H85  1  0.87047807  0.81524265  0.72280854  1  0.01723  0  0.092785  0.062745  0  1.013322  0
H  H86  1  0.84962194  0.54298332  0.28195567  1  0.075977  0  0.104124  0.090054  0  0.991528  0
H  H87  1  0.15037695  0.04298115  0.21804480  1  0.075932  0  0.104134  0.090096  0  0.991573  0
H  H88  1  0.15035846  0.45702249  0.71805295  1  0.07582  0  0.104189  0.090159  0  0.991344  0
H  H89  1  0.84961072  0.95700883  0.78196273  1  0.076011  0  0.104061  0.089963  0  0.991644  0
H  H90  1  0.71001666  0.57951350  0.33674414  1  0.035904  0  0.096767  0.074796  0  0.987683  0
H  H91  1  0.28996921  0.07950975  0.16325022  1  0.035905  0  0.09679  0.074796  0  0.987667  0
H  H92  1  0.28994423  0.42049166  0.66325341  1  0.035876  0  0.096866  0.074906  0  0.987621  0
H  H93  1  0.71000092  0.92047890  0.83675314  1  0.036292  0  0.096695  0.074815  0  0.987661  0
H  H94  1  0.64384804  0.83958654  0.22522692  1  0.062232  0  0.098102  0.11197  0  1.008085  0
H  H95  1  0.35616321  0.33958064  0.27475289  1  0.062319  0  0.098198  0.111988  0  1.00807  0
H  H96  1  0.35613665  0.16041400  0.77477213  1  0.062504  0  0.098152  0.112091  0  1.008111  0
H  H97  1  0.64381634  0.66041000  0.72524405  1  0.062091  0  0.098219  0.112076  0  1.008038  0
H  H98  1  0.53584987  0.78510998  0.16241403  1  0.064727  0  0.10491  0.118434  0  1.011263  0
H  H99  1  0.46417695  0.28511304  0.33756224  1  0.064754  0  0.104981  0.118499  0  1.011181  0
H  H100  1  0.46414524  0.21488660  0.83758127  1  0.064987  0  0.104936  0.11843  0  1.01115  0
H  H101  1  0.53581299  0.71488089  0.66243202  1  0.064524  0  0.104968  0.118549  0  1.011056  0
H  H102  1  0.71833684  0.79455432  0.14645532  1  0.054837  0  0.093026  0.102224  0  1.01023  0
H  H103  1  0.28169373  0.29456158  0.35353531  1  0.055174  0  0.093002  0.10224  0  1.010388  0
H  H104  1  0.28166027  0.20543962  0.85354474  1  0.054826  0  0.092972  0.102149  0  1.010306  0
H  H105  1  0.71829714  0.70543500  0.64646584  1  0.055021  0  0.092993  0.102314  0  1.010353  0
H  H106  1  0.65954088  0.41526558  0.23212514  1  0.05746  0  0.092098  0.100057  0  1.027518  0
H  H107  1  0.34048755  0.91526167  0.26785717  1  0.057731  0  0.092116  0.099963  0  1.027483  0
H  H108  1  0.34046776  0.58473429  0.76786533  1  0.057704  0  0.092092  0.100046  0  1.027469  0
H  H109  1  0.65952627  0.08473029  0.73213381  1  0.057724  0  0.092077  0.099943  0  1.027401  0
H  H110  1  0.50505324  0.46532634  0.19887618  1  0.071408  0  0.106463  0.119039  0  1.005069  0
H  H111  1  0.49498159  0.96532549  0.30110001  1  0.071292  0  0.106507  0.11911  0  1.005006  0
H  H112  1  0.49495337  0.53466298  0.80111164  1  0.071564  0  0.106509  0.119149  0  1.004963  0
H  H113  1  0.50503222  0.03467373  0.69889096  1  0.071321  0  0.106486  0.119099  0  1.004972  0
H  H114  1  0.53577618  0.46403399  0.29192681  1  0.051461  0  0.094163  0.099982  0  1.001751  0
H  H115  1  0.46422862  0.96404508  0.20805109  1  0.051481  0  0.094222  0.100012  0  1.001948  0
H  H116  1  0.46421800  0.53595269  0.70806106  1  0.051487  0  0.09423  0.100125  0  1.001925  0
H  H117  1  0.53577173  0.03596271  0.79193994  1  0.051368  0  0.094274  0.100078  0  1.001998  0
C  C118  1  0.41207359  0.85709471  0.98608122  1  0.425863  0  0.045999  0.093161  0  3.940538  0
C  C119  1  0.58789546  0.35709525  0.51393018  1  0.426861  0  0.045885  0.093165  0  3.940733  0
C  C120  1  0.58792444  0.14290253  0.01392574  1  0.42606  0  0.046071  0.093334  0  3.94066  0
C  C121  1  0.41211796  0.64291650  0.48608680  1  0.427152  0  0.046028  0.093268  0  3.940938  0
C  C122  1  0.55345177  0.86975411  0.99452093  1  0.023883  0  -0.074132  -0.135333  0  3.929662  0
C  C123  1  0.44652331  0.36975237  0.50548680  1  0.023541  0  -0.074222  -0.135495  0  3.930021  0
C  C124  1  0.44655354  0.13024378  0.00548388  1  0.02377  0  -0.074134  -0.135388  0  3.930158  0
C  C125  1  0.55349430  0.63025938  0.49452698  1  0.022833  0  -0.074364  -0.135423  0  3.929736  0
C  C126  1  0.64634754  0.81318649  0.95950084  1  -0.059377  0  0.005521  0.017172  0  3.932841  0
C  C127  1  0.35364312  0.31318183  0.54050598  1  -0.059099  0  0.005564  0.0173  0  3.932989  0
C  C128  1  0.35366610  0.18681404  0.04050128  1  -0.059501  0  0.005453  0.017247  0  3.93281  0
C  C129  1  0.64637566  0.68683521  0.45949931  1  -0.058497  0  0.005515  0.017103  0  3.933129  0
C  C130  1  0.59307067  0.74488197  0.91819102  1  0.00073  0  -0.076731  -0.140103  0  3.947208  0
C  C131  1  0.40691400  0.24488188  0.58181755  1  -0.000128  0  -0.07676  -0.140263  0  3.947609  0
C  C132  1  0.40693883  0.25511923  0.08181165  1  0.000515  0  -0.076711  -0.140079  0  3.947201  0
C  C133  1  0.59309335  0.75512592  0.41818990  1  -0.000585  0  -0.076661  -0.13983  0  3.947857  0
C  C134  1  0.45020330  0.73653669  0.91281847  1  0.465982  0  0.047826  0.089039  0  3.975614  0
C  C135  1  0.54978360  0.23653158  0.58718952  1  0.465522  0  0.047733  0.088856  0  3.975893  0
C  C136  1  0.54979999  0.26346450  0.08718369  1  0.466025  0  0.047786  0.088936  0  3.975704  0
C  C137  1  0.45022374  0.76346961  0.41281847  1  0.465882  0  0.047744  0.088663  0  3.975756  0
C  C138  1  0.80067684  0.82792503  0.96531170  1  1.610917  0  0.210223  0.574552  0  4.223713  0
C  C139  1  0.19930630  0.32791820  0.53469417  1  1.610867  0  0.210234  0.574793  0  4.223461  0
C  C140  1  0.19932849  0.17207749  0.03469205  1  1.611299  0  0.210125  0.574366  0  4.223685  0
C  C141  1  0.80070632  0.67208893  0.46530689  1  1.610861  0  0.210334  0.574649  0  4.223662  0
C  C142  1  0.05312107  0.83127106  0.29981718  1  0.448819  0  0.044452  0.090426  0  3.959511  0
C  C143  1  0.94688380  0.33127709  0.20018385  1  0.449281  0  0.044407  0.090355  0  3.958995  0
C  C144  1  0.94688427  0.16872617  0.70018604  1  0.448737  0  0.044548  0.09051  0  3.959378  0
C  C145  1  0.05311849  0.66872345  0.79981619  1  0.449336  0  0.044453  0.090373  0  3.959054  0
C  C146  1  0.04750511  0.86109607  0.23024330  1  0.026438  0  -0.080903  -0.153963  0  3.949043  0
C  C147  1  0.95249707  0.36109673  0.26976162  1  0.026726  0  -0.080874  -0.154024  0  3.949002  0
C  C148  1  0.95250441  0.13890248  0.76975724  1  0.026356  0  -0.080951  -0.154042  0  3.949123  0
C  C149  1  0.04750209  0.63890380  0.73024003  1  0.026662  0  -0.080886  -0.153943  0  3.948851  0
C  C150  1  0.13037368  0.81950177  0.17869515  1  -0.010538  0  0.008493  0.027448  0  3.937621  0
C  C151  1  0.86962308  0.31950815  0.32130903  1  -0.010499  0  0.00836  0.027258  0  3.937921  0
C  C152  1  0.86962755  0.18050008  0.82130596  1  -0.010172  0  0.008483  0.027402  0  3.937757  0
C  C153  1  0.13037918  0.68049502  0.67869261  1  -0.010499  0  0.008493  0.027425  0  3.937703  0
C  C154  1  0.21738317  0.75053449  0.19919728  1  -0.064374  0  -0.077902  -0.151111  0  3.933245  0
C  C155  1  0.78263158  0.25053410  0.30079847  1  -0.064182  0  -0.077817  -0.151009  0  3.932889  0
C  C156  1  0.78262848  0.24946671  0.80080007  1  -0.064359  0  -0.077833  -0.151037  0  3.933219  0
C  C157  1  0.21737489  0.74946577  0.69919890  1  -0.064435  0  -0.077881  -0.151172  0  3.932954  0
C  C158  1  0.21943997  0.72665146  0.27045343  1  0.483622  0  0.043837  0.082715  0  3.968357  0
C  C159  1  0.78058354  0.22665574  0.22954003  1  0.483835  0  0.043889  0.082752  0  3.968115  0
C  C160  1  0.78057478  0.27334841  0.72954391  1  0.483818  0  0.043881  0.082728  0  3.968242  0
C  C161  1  0.21942185  0.77334282  0.77046000  1  0.483992  0  0.043848  0.082691  0  3.968  0
C  C162  1  0.12366221  0.84724426  0.10214292  1  1.592839  0  0.210442  0.583032  0  4.224537  0
C  C163  1  0.87633607  0.34724995  0.39786353  1  1.592163  0  0.210442  0.583256  0  4.22432  0
C  C164  1  0.87633698  0.15276155  0.89785661  1  1.592963  0  0.210417  0.583063  0  4.224766  0
C  C165  1  0.12366308  0.65275784  0.60213865  1  1.593121  0  0.210442  0.583104  0  4.224326  0
C  C166  1  0.10311575  0.59262041  0.02145661  1  1.804165  0  0.328156  0.513357  0  4.206208  0
C  C167  1  0.89688337  0.09261875  0.47853565  1  1.804333  0  0.328319  0.513647  0  4.20572  0
C  C168  1  0.89688447  0.40737880  0.97854344  1  1.804139  0  0.328197  0.513403  0  4.20609  0
C  C169  1  0.10311691  0.90737849  0.52145962  1  1.803894  0  0.328136  0.513203  0  4.20618  0
C  C170  1  0.03165548  0.55260383  0.13523194  1  0.316408  0  -0.051603  -0.065932  0  3.887212  0
C  C171  1  0.96835880  0.05260126  0.36476641  1  0.316468  0  -0.051577  -0.06598  0  3.887131  0
C  C172  1  0.96834365  0.44740000  0.86477130  1  0.316409  0  -0.051526  -0.065774  0  3.887111  0
C  C173  1  0.03164043  0.94739466  0.63523046  1  0.316692  0  -0.051561  -0.065819  0  3.887152  0
C  C174  1  0.17554386  0.51310646  0.12001406  1  0.340771  0  -0.050143  -0.074417  0  3.878414  0
C  C175  1  0.82446297  0.01310580  0.37997825  1  0.341418  0  -0.049998  -0.074105  0  3.878224  0
C  C176  1  0.82445322  0.48689341  0.87998812  1  0.340892  0  -0.050152  -0.074405  0  3.878359  0
C  C177  1  0.17553522  0.98689144  0.62001863  1  0.340923  0  -0.049959  -0.074218  0  3.87824  0
C  C178  1  0.86571769  0.63554296  0.05806672  1  0.301555  0  -0.137116  -0.24423  0  3.930083  0
C  C179  1  0.13428146  0.13554026  0.44193906  1  0.301315  0  -0.137123  -0.244245  0  3.930144  0
C  C180  1  0.13428247  0.36446220  0.94193652  1  0.301478  0  -0.137108  -0.24411  0  3.930191  0
C  C181  1  0.86571466  0.86446159  0.55805782  1  0.301511  0  -0.137218  -0.244563  0  3.930347  0
C  C182  1  0.34622226  0.54035789  0.01915552  1  0.252065  0  -0.1353  -0.250461  0  3.943368  0
C  C183  1  0.65377382  0.04035680  0.48082903  1  0.252784  0  -0.135316  -0.250415  0  3.943491  0
C  C184  1  0.65377072  0.45963803  0.98084350  1  0.251913  0  -0.135276  -0.250389  0  3.943306  0
C  C185  1  0.34622853  0.95963911  0.51916677  1  0.252444  0  -0.135365  -0.250516  0  3.943623  0
C  C186  1  0.58674137  0.62554397  0.20204077  1  1.790639  0  0.313516  0.49127  0  4.245343  0
C  C187  1  0.41326958  0.12554443  0.29795004  1  1.790611  0  0.313479  0.491187  0  4.24553  0
C  C188  1  0.41325061  0.37445459  0.79795560  1  1.790923  0  0.313478  0.491061  0  4.245271  0
C  C189  1  0.58672030  0.87445280  0.70204846  1  1.790976  0  0.313615  0.49165  0  4.244704  0
C  C190  1  0.78117034  0.67917820  0.25995683  1  0.323003  0  -0.059449  -0.077147  0  3.910327  0
C  C191  1  0.21883023  0.17917767  0.24003804  1  0.323127  0  -0.059593  -0.077285  0  3.910497  0
C  C192  1  0.21881019  0.32082630  0.74004383  1  0.322917  0  -0.059621  -0.077476  0  3.91059  0
C  C193  1  0.78114819  0.82081165  0.75996528  1  0.323259  0  -0.059581  -0.077289  0  3.910268  0
C  C194  1  0.75536740  0.58338047  0.28262903  1  0.311888  0  -0.055033  -0.061372  0  3.890939  0
C  C195  1  0.24463079  0.08337690  0.21736743  1  0.312054  0  -0.055003  -0.06136  0  3.891008  0
C  C196  1  0.24460791  0.41662204  0.71737431  1  0.311942  0  -0.055201  -0.06171  0  3.890917  0
C  C197  1  0.75535591  0.91661637  0.78263586  1  0.311452  0  -0.054769  -0.061119  0  3.890832  0
C  C198  1  0.63731523  0.78440102  0.18769356  1  0.274745  0  -0.136978  -0.251408  0  3.959438  0
C  C199  1  0.36270112  0.28440002  0.31229123  1  0.274538  0  -0.137048  -0.251362  0  3.959786  0
C  C200  1  0.36266123  0.21559688  0.81230234  1  0.274278  0  -0.137048  -0.251487  0  3.959562  0
C  C201  1  0.63728153  0.71559457  0.68770624  1  0.274944  0  -0.137088  -0.251598  0  3.959607  0
C  C202  1  0.58576059  0.46985345  0.23902449  1  0.258948  0  -0.137053  -0.246602  0  3.965368  0
C  C203  1  0.41425957  0.96985418  0.26095762  1  0.258841  0  -0.137211  -0.246557  0  3.965304  0
C  C204  1  0.41424184  0.53014049  0.76096600  1  0.258694  0  -0.137191  -0.246926  0  3.965354  0
C  C205  1  0.58574489  0.03014239  0.73903551  1  0.259092  0  -0.137167  -0.246582  0  3.965285  0
N  N206  1  0.36139275  0.79159389  0.94581453  1  -1.238433  0  -0.324425  -0.240579  0  3.505275  0
N  N207  1  0.63858796  0.29159176  0.55419220  1  -1.238404  0  -0.324254  -0.240378  0  3.505472  0
N  N208  1  0.63861052  0.20840665  0.05418869  1  -1.238455  0  -0.324472  -0.240663  0  3.505321  0
N  N209  1  0.36141932  0.70841142  0.44581950  1  -1.239206  0  -0.324361  -0.240316  0  3.505268  0
N  N210  1  0.13801611  0.76575811  0.31988619  1  -1.257305  0  -0.335377  -0.253073  0  3.525203  0
N  N211  1  0.86200457  0.26576461  0.18010909  1  -1.258386  0  -0.335376  -0.252986  0  3.525  0
N  N212  1  0.86199548  0.23424111  0.68011488  1  -1.257553  0  -0.335478  -0.253086  0  3.52502  0
N  N213  1  0.13800393  0.73423394  0.81989092  1  -1.258382  0  -0.335403  -0.25301  0  3.524953  0
N  N214  1  0.12292726  0.93177883  0.91135912  1  -0.331354  0  -0.339677  -0.586359  0  3.129026  0
N  N215  1  0.87707276  0.43176460  0.58863559  1  -0.331746  0  -0.339531  -0.58616  0  3.129357  0
N  N216  1  0.87709475  0.06823161  0.08863819  1  -0.331758  0  -0.339576  -0.586288  0  3.129432  0
N  N217  1  0.12294926  0.56822933  0.41136066  1  -0.331347  0  -0.339718  -0.586329  0  3.129165  0
N  N218  1  0.17400857  0.96770139  0.86033976  1  -0.356129  0  0.085628  0.443378  0  4.501269  0
N  N219  1  0.82600334  0.46769197  0.63964555  1  -0.356159  0  0.085653  0.44352  0  4.50091  0
N  N220  1  0.82601149  0.03230443  0.13964906  1  -0.356213  0  0.08566  0.443523  0  4.500979  0
N  N221  1  0.17402191  0.53230328  0.36034272  1  -0.356077  0  0.085712  0.443406  0  4.501278  0
N  N222  1  0.22388471  0.00170912  0.81053454  1  -0.015382  0  -0.199251  -0.401772  0  2.584337  0
N  N223  1  0.77612655  0.50171896  0.68945503  1  -0.014936  0  -0.199472  -0.40216  0  2.58368  0
N  N224  1  0.77612602  0.99828613  0.18945486  1  -0.014827  0  -0.199431  -0.40204  0  2.583805  0
N  N225  1  0.22388830  0.49828620  0.31053593  1  -0.015432  0  -0.199337  -0.401894  0  2.58432  0
N  N226  1  0.98993029  0.58392231  0.06565233  1  -1.179588  0  -0.298751  -0.120269  0  3.650008  0
N  N227  1  0.01007200  0.08391787  0.43434677  1  -1.179499  0  -0.298774  -0.120332  0  3.650224  0
N  N228  1  0.01006885  0.41608284  0.93435038  1  -1.179504  0  -0.298802  -0.120386  0  3.650092  0
N  N229  1  0.98992618  0.91607936  0.56565064  1  -1.179561  0  -0.298732  -0.120059  0  3.650026  0
N  N230  1  0.21505465  0.55674729  0.05392006  1  -1.16953  0  -0.293384  -0.100727  0  3.653107  0
N  N231  1  0.78494623  0.05674554  0.44606881  1  -1.170238  0  -0.293418  -0.101016  0  3.653159  0
N  N232  1  0.78494349  0.44325127  0.94608000  1  -1.169509  0  -0.293352  -0.100732  0  3.653047  0
N  N233  1  0.21505508  0.94324774  0.55392699  1  -1.16937  0  -0.293393  -0.100745  0  3.653008  0
N  N234  1  0.65303033  0.70116149  0.22412898  1  -1.167784  0  -0.305224  -0.136194  0  3.655283  0
N  N235  1  0.34697298  0.20116095  0.27586229  1  -1.168017  0  -0.305244  -0.136412  0  3.65576  0
N  N236  1  0.34694607  0.29883574  0.77587063  1  -1.167992  0  -0.305092  -0.136086  0  3.655235  0
N  N237  1  0.65300756  0.79883364  0.72413731  1  -1.16792  0  -0.305344  -0.136735  0  3.655486  0
N  N238  1  0.65555988  0.55365101  0.23033324  1  -1.149891  0  -0.305751  -0.143166  0  3.623434  0
N  N239  1  0.34444827  0.05365175  0.26965824  1  -1.150226  0  -0.305772  -0.143223  0  3.623276  0
N  N240  1  0.34443210  0.44634623  0.76966366  1  -1.150248  0  -0.305759  -0.14294  0  3.623032  0
N  N241  1  0.65554675  0.94634087  0.73034290  1  -1.150379  0  -0.305863  -0.143386  0  3.62329  0
O  O242  1  0.12494918  0.92936340  0.08947656  1  -1.17205  0  -0.32854  -0.571234  0  2.254849  0
O  O243  1  0.87504971  0.42937185  0.41052399  1  -1.171415  0  -0.328431  -0.571238  0  2.254581  0
O  O244  1  0.87505619  0.07064109  0.91052453  1  -1.172016  0  -0.328473  -0.571161  0  2.25488  0
O  O245  1  0.12495256  0.57063066  0.58947712  1  -1.172164  0  -0.32846  -0.571194  0  2.254522  0
O  O246  1  0.11831478  0.78385411  0.05828973  1  -1.140621  0  -0.319005  -0.542219  0  2.311826  0
O  O247  1  0.88166821  0.28385686  0.44171005  1  -1.140715  0  -0.31899  -0.542346  0  2.312113  0
O  O248  1  0.88168028  0.21615236  0.94170822  1  -1.140803  0  -0.319042  -0.542364  0  2.312127  0
O  O249  1  0.11831539  0.71615028  0.55829272  1  -1.140782  0  -0.319069  -0.542328  0  2.312021  0
O  O250  1  0.83824426  0.88638942  0.00880387  1  -1.16708  0  -0.327916  -0.568698  0  2.291144  0
O  O251  1  0.16173573  0.38637112  0.49119863  1  -1.166934  0  -0.327846  -0.568666  0  2.29105  0
O  O252  1  0.16176934  0.11361309  0.99120143  1  -1.166991  0  -0.327801  -0.5685  0  2.29114  0
O  O253  1  0.83828106  0.61363536  0.50880030  1  -1.16667  0  -0.327834  -0.568481  0  2.291109  0
O  O254  1  0.87784168  0.77990847  0.92575249  1  -1.164076  0  -0.322127  -0.555703  0  2.297828  0
O  O255  1  0.12214334  0.27991315  0.57425734  1  -1.164238  0  -0.322243  -0.555953  0  2.2979  0
O  O256  1  0.12216884  0.22009207  0.07425070  1  -1.16425  0  -0.322111  -0.555687  0  2.297917  0
O  O257  1  0.87786937  0.72009728  0.42573788  1  -1.164131  0  -0.32236  -0.555955  0  2.297632  0
O  O258  1  0.10405884  0.62634763  0.96039698  1  -1.204896  0  -0.334509  -0.566912  0  2.289161  0
O  O259  1  0.89592416  0.12635130  0.53959448  1  -1.204903  0  -0.334549  -0.566953  0  2.28902  0
O  O260  1  0.89593622  0.37364829  0.03960150  1  -1.204921  0  -0.334523  -0.566894  0  2.289136  0
O  O261  1  0.10407508  0.87364990  0.46040133  1  -1.204777  0  -0.33449  -0.566853  0  2.289293  0
O  O262  1  0.48374370  0.62222250  0.16341541  1  -1.199508  0  -0.322315  -0.545937  0  2.165138  0
O  O263  1  0.51627666  0.12222053  0.33657375  1  -1.199312  0  -0.322261  -0.545881  0  2.165288  0
O  O264  1  0.51625455  0.37776946  0.83657775  1  -1.199178  0  -0.322257  -0.545779  0  2.165134  0
O  O265  1  0.48371742  0.87778000  0.66342101  1  -1.199624  0  -0.322255  -0.546013  0  2.164921  0
