# generated using pymatgen
data_AgH5C15N4
_symmetry_space_group_name_H-M   'P 1'
_cell_length_a   7.71605415
_cell_length_b   11.73641135
_cell_length_c   14.05887292
_cell_angle_alpha   79.99185438
_cell_angle_beta   75.60076410
_cell_angle_gamma   88.28694479
_symmetry_Int_Tables_number   1
_chemical_formula_structural   AgH5C15N4
_chemical_formula_sum   'Ag4 H20 C60 N16'
_cell_volume   1214.27679294
_cell_formula_units_Z   4
loop_
 _symmetry_equiv_pos_site_id
 _symmetry_equiv_pos_as_xyz
  1  'x, y, z'
loop_
 _atom_site_type_symbol
 _atom_site_label
 _atom_site_symmetry_multiplicity
 _atom_site_fract_x
 _atom_site_fract_y
 _atom_site_fract_z
 _atom_site_occupancy
 _atom_site_hle17_bader_spin_density
 _atom_site_hle17_ddec_charge
 _atom_site_hle17_ddec_spin_density
 _atom_site_hle17_ddec_sum_bond_order
 _atom_site_hle17_magmom
 _atom_site_hse06_10hf_bader_spin_density
 _atom_site_hse06_10hf_ddec_charge
 _atom_site_hse06_10hf_ddec_spin_density
 _atom_site_hse06_10hf_ddec_sum_bond_order
 _atom_site_hse06_10hf_magmom
 _atom_site_hse06_bader_spin_density
 _atom_site_hse06_ddec_charge
 _atom_site_hse06_ddec_spin_density
 _atom_site_hse06_ddec_sum_bond_order
 _atom_site_hse06_magmom
 _atom_site_pbe_bader_spin_density
 _atom_site_pbe_cm5_charge
 _atom_site_pbe_ddec_charge
 _atom_site_pbe_ddec_spin_density
 _atom_site_pbe_ddec_sum_bond_order
 _atom_site_pbe_magmom
Ag  Ag0  1  0.99999848  0.00001202  0.00000007  1  0  0.667837  0  1.579376  0  0  0.559673  0  2.046133  0  0  0.573047  0  2.011461  0  0  0.568652  0.552741  0  2.069025  0
Ag  Ag1  1  0.49994848  0.49992903  0.99999013  1  0  0.667417  0  1.527968  0  0  0.564824  0  1.982793  0  0  0.577709  0  1.947776  0  0  0.547794  0.556917  0  2.00651  0
Ag  Ag2  1  0.49994559  0.99998614  0.49997539  1  0  0.651137  0  1.553453  0  0  0.532608  0  2.026297  0  0  0.551926  0  1.982033  0  0  0.559357  0.519909  0  2.056866  0
Ag  Ag3  1  0.99997890  0.99987219  0.50010577  1  0  0.665832  0  1.521174  0  0  0.541633  0  1.993423  0  0  0.561614  0  1.946124  0  0  0.549888  0.528855  0  2.025984  0
H  H4  1  0.30043600  0.91972726  0.72999492  1  0  0.117969  0  0.975823  0  0  0.126356  0  1.041061  0  0  0.13069  0  1.040401  0  0  0.097286  0.123352  0  1.041586  0
H  H5  1  0.69956331  0.08029527  0.27000203  1  0  0.117991  0  0.975987  0  0  0.126391  0  1.041202  0  0  0.130722  0  1.040544  0  0  0.097264  0.123391  0  1.041724  0
H  H6  1  0.02181119  0.64084858  0.05741887  1  0  0.103098  0  0.966918  0  0  0.115477  0  1.023424  0  0  0.117801  0  1.023132  0  0  0.102975  0.113822  0  1.023703  0
H  H7  1  0.97820713  0.35915325  0.94257702  1  0  0.10311  0  0.967123  0  0  0.115525  0  1.023562  0  0  0.117843  0  1.023275  0  0  0.102975  0.113869  0  1.023837  0
H  H8  1  0.16810433  0.61321952  0.19692926  1  0  0.085828  0  0.968426  0  0  0.096926  0  1.030801  0  0  0.099155  0  1.0302  0  0  0.097242  0.095342  0  1.0313  0
H  H9  1  0.83191487  0.38678515  0.80307029  1  0  0.085891  0  0.968532  0  0  0.096985  0  1.030887  0  0  0.099216  0  1.030285  0  0  0.097262  0.095397  0  1.031386  0
H  H10  1  0.45360469  0.71681696  0.18180891  1  0  0.087257  0  0.96625  0  0  0.097173  0  1.030089  0  0  0.099678  0  1.029424  0  0  0.09769  0.09542  0  1.030584  0
H  H11  1  0.54641206  0.28318756  0.81818879  1  0  0.087228  0  0.966286  0  0  0.097227  0  1.030064  0  0  0.099736  0  1.029392  0  0  0.097697  0.09547  0  1.030558  0
H  H12  1  0.59597550  0.84798449  0.02779152  1  0  0.102838  0  0.988412  0  0  0.110402  0  1.055548  0  0  0.113236  0  1.054508  0  0  0.099133  0.108364  0  1.056351  0
H  H13  1  0.40403874  0.15202512  0.97220409  1  0  0.10266  0  0.988549  0  0  0.110233  0  1.055685  0  0  0.113062  0  1.054659  0  0  0.099063  0.108193  0  1.056492  0
H  H14  1  0.30713477  0.40195904  0.78387585  1  0  0.128516  0  0.961496  0  0  0.139386  0  1.020087  0  0  0.143726  0  1.019535  0  0  0.106302  0.136389  0  1.020541  0
H  H15  1  0.69288832  0.59803725  0.21611341  1  0  0.12852  0  0.961426  0  0  0.139373  0  1.020048  0  0  0.143714  0  1.019495  0  0  0.106281  0.136375  0  1.020501  0
H  H16  1  0.13461393  0.31374170  0.47019712  1  0  0.103255  0  0.961655  0  0  0.113423  0  1.023752  0  0  0.116096  0  1.022722  0  0  0.10226  0.111554  0  1.024459  0
H  H17  1  0.86536274  0.68625116  0.52980695  1  0  0.103086  0  0.961606  0  0  0.113326  0  1.023642  0  0  0.116001  0  1.022604  0  0  0.102213  0.111455  0  1.024351  0
H  H18  1  0.14750372  0.46797986  0.32544498  1  0  0.088307  0  0.945665  0  0  0.10105  0  1.003007  0  0  0.104021  0  1.001657  0  0  0.099817  0.098889  0  1.004092  0
H  H19  1  0.85247177  0.53201205  0.67455797  1  0  0.088134  0  0.945685  0  0  0.100858  0  1.003066  0  0  0.103848  0  1.001693  0  0  0.099744  0.098708  0  1.004126  0
H  H20  1  0.24404706  0.66869718  0.32730228  1  0  0.084896  0  0.968883  0  0  0.096785  0  1.030448  0  0  0.099085  0  1.030064  0  0  0.098591  0.095166  0  1.030714  0
H  H21  1  0.75594232  0.33129373  0.67269438  1  0  0.084942  0  0.969004  0  0  0.096821  0  1.030557  0  0  0.099114  0  1.03019  0  0  0.098644  0.095199  0  1.030828  0
H  H22  1  0.33482709  0.71604567  0.47114931  1  0  0.106068  0  0.975563  0  0  0.113919  0  1.041978  0  0  0.117017  0  1.040289  0  0  0.100619  0.111734  0  1.043166  0
H  H23  1  0.66518138  0.28394611  0.52884162  1  0  0.106116  0  0.975418  0  0  0.113979  0  1.041815  0  0  0.117055  0  1.040159  0  0  0.100682  0.111808  0  1.042986  0
C  C24  1  0.43614117  0.89379982  0.85356711  1  0  0.125753  0  3.766081  0  0  0.117786  0  4.015228  0  0  0.133098  0  4.032484  0  0  0.018145  0.108022  0  4.003054  0
C  C25  1  0.56387593  0.10620783  0.14643925  1  0  0.125575  0  3.766293  0  0  0.117739  0  4.015333  0  0  0.13304  0  4.032596  0  0  0.018186  0.107982  0  4.003155  0
C  C26  1  0.30317121  0.87733079  0.80458983  1  0  -0.275967  0  3.737567  0  0  -0.301187  0  4.007248  0  0  -0.318458  0  4.028216  0  0  -0.132809  -0.289648  0  3.992631  0
C  C27  1  0.69683788  0.12268109  0.19541661  1  0  -0.275886  0  3.738082  0  0  -0.301168  0  4.007765  0  0  -0.318439  0  4.028729  0  0  -0.13278  -0.289634  0  3.993151  0
C  C28  1  0.17402963  0.79619055  0.86637675  1  0  0.099095  0  3.81519  0  0  0.089055  0  4.071757  0  0  0.104269  0  4.08764  0  0  0.011009  0.079241  0  4.060709  0
C  C29  1  0.82596765  0.20380899  0.13363105  1  0  0.099165  0  3.815408  0  0  0.089056  0  4.072036  0  0  0.104279  0  4.087918  0  0  0.010995  0.079251  0  4.060977  0
C  C30  1  0.22485442  0.76212366  0.96225590  1  0  -0.018393  0  3.788185  0  0  -0.001714  0  4.022659  0  0  -0.004205  0  4.042945  0  0  -0.01655  -0.000471  0  4.009481  0
C  C31  1  0.77516271  0.23787116  0.03773997  1  0  -0.018229  0  3.788182  0  0  -0.001344  0  4.022416  0  0  -0.003805  0  4.042654  0  0  -0.016464  -0.00015  0  4.009323  0
C  C32  1  0.14567403  0.68736974  0.04932999  1  0  -0.08428  0  3.73285  0  0  -0.109743  0  3.986363  0  0  -0.108524  0  4.002307  0  0  -0.086678  -0.110461  0  3.975642  0
C  C33  1  0.85434844  0.31262860  0.95066467  1  0  -0.084442  0  3.733258  0  0  -0.109992  0  3.986699  0  0  -0.108773  0  4.002637  0  0  -0.086736  -0.11071  0  3.975981  0
C  C34  1  0.22989543  0.67177596  0.12853971  1  0  -0.083281  0  3.78084  0  0  -0.099889  0  4.043058  0  0  -0.100304  0  4.060217  0  0  -0.096793  -0.09955  0  4.031385  0
C  C35  1  0.77012816  0.32822510  0.87145647  1  0  -0.083417  0  3.781109  0  0  -0.100035  0  4.043395  0  0  -0.100448  0  4.06055  0  0  -0.096885  -0.099691  0  4.031711  0
C  C36  1  0.38951935  0.72943584  0.11996961  1  0  -0.072928  0  3.76451  0  0  -0.090055  0  4.025859  0  0  -0.090244  0  4.04271  0  0  -0.095057  -0.089901  0  4.014355  0
C  C37  1  0.61049614  0.27056777  0.88002767  1  0  -0.072962  0  3.764531  0  0  -0.090151  0  4.02578  0  0  -0.090342  0  4.042632  0  0  -0.095061  -0.089988  0  4.014264  0
C  C38  1  0.47101687  0.80474824  0.03177274  1  0  -0.086693  0  3.722835  0  0  -0.111443  0  3.974364  0  0  -0.111347  0  3.992165  0  0  -0.088226  -0.111266  0  3.962262  0
C  C39  1  0.52899900  0.19525344  0.96822129  1  0  -0.086334  0  3.722805  0  0  -0.110968  0  3.974201  0  0  -0.110881  0  3.992013  0  0  -0.088045  -0.110793  0  3.962096  0
C  C40  1  0.38805022  0.82102543  0.95358971  1  0  -0.003629  0  3.765562  0  0  0.01129  0  3.99705  0  0  0.008491  0  4.018418  0  0  -0.01415  0.012767  0  3.982988  0
C  C41  1  0.61197084  0.17897552  0.04640534  1  0  -0.003809  0  3.766018  0  0  0.01092  0  3.997593  0  0  0.008119  0  4.018969  0  0  -0.014264  0.012405  0  3.983507  0
C  C42  1  0.58824735  0.96711561  0.81356847  1  0  -0.155324  0  3.908027  0  0  -0.132289  0  4.140434  0  0  -0.148707  0  4.162956  0  0  -0.016216  -0.121648  0  4.125303  0
C  C43  1  0.41175880  0.03289654  0.18642823  1  0  -0.155208  0  3.907929  0  0  -0.132234  0  4.140349  0  0  -0.148628  0  4.162851  0  0  -0.016281  -0.121596  0  4.125226  0
C  C44  1  0.72136149  0.97839443  0.86345146  1  0  0.336213  0  3.792174  0  0  0.31975  0  4.047841  0  0  0.333755  0  4.069442  0  0  0.211962  0.310508  0  4.033074  0
C  C45  1  0.27863679  0.02162015  0.13654421  1  0  0.336163  0  3.791904  0  0  0.319713  0  4.047582  0  0  0.333713  0  4.069181  0  0  0.211833  0.310469  0  4.032824  0
C  C46  1  0.61401539  0.03337341  0.71719340  1  0  0.313491  0  3.801072  0  0  0.296011  0  4.064648  0  0  0.309751  0  4.084576  0  0  0.185599  0.286875  0  4.051245  0
C  C47  1  0.38600235  0.96662542  0.28279596  1  0  0.313226  0  3.800959  0  0  0.295753  0  4.064559  0  0  0.309486  0  4.084491  0  0  0.185431  0.286616  0  4.051164  0
C  C48  1  0.02808105  0.75240473  0.84021881  1  0  -0.140665  0  3.915919  0  0  -0.117574  0  4.1492  0  0  -0.131249  0  4.169829  0  0  -0.0146  -0.108812  0  4.135398  0
C  C49  1  0.97190422  0.24760764  0.15978791  1  0  -0.140813  0  3.915921  0  0  -0.117775  0  4.149304  0  0  -0.131478  0  4.169973  0  0  -0.014581  -0.109006  0  4.135493  0
C  C50  1  0.90292103  0.67305706  0.90754459  1  0  0.307728  0  3.782968  0  0  0.291347  0  4.044019  0  0  0.303732  0  4.063699  0  0  0.188502  0.283139  0  4.03071  0
C  C51  1  0.09706248  0.32696087  0.09245274  1  0  0.308057  0  3.782902  0  0  0.291699  0  4.04394  0  0  0.304102  0  4.063622  0  0  0.188648  0.283487  0  4.030631  0
C  C52  1  0.99969004  0.78572125  0.74361415  1  0  0.297823  0  3.802125  0  0  0.281517  0  4.06888  0  0  0.293916  0  4.089212  0  0  0.179879  0.273363  0  4.054989  0
C  C53  1  0.00031234  0.21434141  0.25639653  1  0  0.29721  0  3.802288  0  0  0.280935  0  4.069126  0  0  0.293335  0  4.089471  0  0  0.179782  0.272786  0  4.055232  0
C  C54  1  0.33066493  0.53981429  0.65156899  1  0  0.131088  0  3.766023  0  0  0.122778  0  4.011988  0  0  0.138377  0  4.029645  0  0  0.024606  0.113003  0  3.999366  0
C  C55  1  0.66931873  0.46018281  0.34843071  1  0  0.131052  0  3.765986  0  0  0.122854  0  4.011808  0  0  0.138443  0  4.029486  0  0  0.024642  0.113081  0  3.999189  0
C  C56  1  0.29040541  0.42899606  0.70877021  1  0  -0.27349  0  3.710417  0  0  -0.296343  0  3.97111  0  0  -0.314644  0  3.993132  0  0  -0.123817  -0.284308  0  3.955717  0
C  C57  1  0.70960275  0.57100020  0.29122278  1  0  -0.273569  0  3.710349  0  0  -0.296441  0  3.971046  0  0  -0.31474  0  3.993069  0  0  -0.123928  -0.284406  0  3.955663  0
C  C58  1  0.23143609  0.35696214  0.65234777  1  0  0.124541  0  3.778725  0  0  0.117315  0  4.026221  0  0  0.132346  0  4.044559  0  0  0.02316  0.107961  0  4.013164  0
C  C59  1  0.76857341  0.64303413  0.34764507  1  0  0.12448  0  3.778586  0  0  0.117243  0  4.02611  0  0  0.132277  0  4.044442  0  0  0.023186  0.107888  0  4.013058  0
C  C60  1  0.22908969  0.42677638  0.55448074  1  0  -0.011118  0  3.769764  0  0  0.003385  0  4.000918  0  0  -0.00082  0  4.025239  0  0  -0.013281  0.00595  0  3.984608  0
C  C61  1  0.77089686  0.57321544  0.44551748  1  0  -0.011084  0  3.769888  0  0  0.003498  0  4.000982  0  0  -0.000704  0  4.025299  0  0  -0.013214  0.006061  0  3.984673  0
C  C62  1  0.18015410  0.39995661  0.47231352  1  0  -0.082853  0  3.7232  0  0  -0.106503  0  3.975039  0  0  -0.106366  0  3.994312  0  0  -0.081901  -0.106401  0  3.961869  0
C  C63  1  0.81982413  0.60003096  0.52768922  1  0  -0.082776  0  3.722894  0  0  -0.106479  0  3.974665  0  0  -0.106344  0  3.993945  0  0  -0.081889  -0.106374  0  3.961493  0
C  C64  1  0.18755158  0.48832399  0.38978141  1  0  -0.066198  0  3.757818  0  0  -0.084826  0  4.018843  0  0  -0.086063  0  4.038288  0  0  -0.08878  -0.083916  0  4.005561  0
C  C65  1  0.81242100  0.51166628  0.61022428  1  0  -0.065851  0  3.757477  0  0  -0.08447  0  4.018489  0  0  -0.085717  0  4.037931  0  0  -0.088631  -0.083556  0  4.0052  0
C  C66  1  0.24253130  0.59999070  0.39051705  1  0  -0.061022  0  3.739448  0  0  -0.076842  0  3.996488  0  0  -0.07797  0  4.016244  0  0  -0.088275  -0.075899  0  3.982879  0
C  C67  1  0.75745006  0.39999926  0.60948064  1  0  -0.061083  0  3.739494  0  0  -0.076881  0  3.996475  0  0  -0.078013  0  4.016227  0  0  -0.088373  -0.07594  0  3.982869  0
C  C68  1  0.29383021  0.62756004  0.47316210  1  0  -0.075697  0  3.694357  0  0  -0.099329  0  3.941877  0  0  -0.099261  0  3.959814  0  0  -0.081272  -0.099214  0  3.929622  0
C  C69  1  0.70615768  0.37243352  0.52683566  1  0  -0.075766  0  3.694282  0  0  -0.099402  0  3.941855  0  0  -0.099324  0  3.959799  0  0  -0.081324  -0.099299  0  3.929586  0
C  C70  1  0.28769264  0.54053755  0.55455640  1  0  -0.003732  0  3.754581  0  0  0.013434  0  3.982741  0  0  0.009665  0  4.006444  0  0  -0.00962  0.015683  0  3.967086  0
C  C71  1  0.71230193  0.45945523  0.44544081  1  0  -0.003709  0  3.754896  0  0  0.013363  0  3.983084  0  0  0.0096  0  4.006783  0  0  -0.009671  0.015616  0  3.967419  0
C  C72  1  0.40831348  0.63048762  0.68195522  1  0  -0.169095  0  3.926699  0  0  -0.144776  0  4.16053  0  0  -0.161252  0  4.182301  0  0  -0.013905  -0.13417  0  4.146064  0
C  C73  1  0.59166044  0.36951044  0.31804890  1  0  -0.169294  0  3.926694  0  0  -0.144936  0  4.160402  0  0  -0.161423  0  4.182189  0  0  -0.013887  -0.134339  0  4.14595  0
C  C74  1  0.45266485  0.73942342  0.62297505  1  0  0.351074  0  3.791322  0  0  0.329869  0  4.047178  0  0  0.344785  0  4.068299  0  0  0.22093  0.319858  0  4.032945  0
C  C75  1  0.54728911  0.26057785  0.37702989  1  0  0.351271  0  3.79131  0  0  0.330042  0  4.04715  0  0  0.344969  0  4.068265  0  0  0.221047  0.320031  0  4.032919  0
C  C76  1  0.45298526  0.60807125  0.77465036  1  0  0.332936  0  3.775641  0  0  0.314548  0  4.03289  0  0  0.32832  0  4.053798  0  0  0.209425  0.305283  0  4.018876  0
C  C77  1  0.54701370  0.39191964  0.22534316  1  0  0.333128  0  3.775742  0  0  0.314713  0  4.032971  0  0  0.328488  0  4.053884  0  0  0.209399  0.305454  0  4.018951  0
C  C78  1  0.18686750  0.23894462  0.68586402  1  0  -0.151047  0  3.92298  0  0  -0.125819  0  4.153527  0  0  -0.140988  0  4.174247  0  0  -0.011219  -0.116208  0  4.139796  0
C  C79  1  0.81316120  0.76105316  0.31413436  1  0  -0.150876  0  3.922685  0  0  -0.125724  0  4.153358  0  0  -0.140895  0  4.174081  0  0  -0.011182  -0.116108  0  4.139627  0
C  C80  1  0.13167193  0.16661060  0.62927500  1  0  0.340443  0  3.792112  0  0  0.320006  0  4.044992  0  0  0.335275  0  4.064298  0  0  0.215688  0.309787  0  4.032063  0
C  C81  1  0.86834509  0.83337894  0.37073540  1  0  0.340162  0  3.792056  0  0  0.319752  0  4.044971  0  0  0.335021  0  4.064276  0  0  0.215649  0.30953  0  4.032046  0
C  C82  1  0.20207573  0.18611466  0.78152767  1  0  0.305742  0  3.786573  0  0  0.288636  0  4.048298  0  0  0.301255  0  4.068257  0  0  0.191562  0.280396  0  4.034836  0
C  C83  1  0.79795103  0.81389552  0.21847436  1  0  0.305604  0  3.786537  0  0  0.288521  0  4.048256  0  0  0.301138  0  4.068217  0  0  0.191459  0.280282  0  4.034799  0
N  N84  1  0.83556711  0.98799627  0.90300700  1  0  -0.457209  0  3.004863  0  0  -0.40424  0  3.313644  0  0  -0.42201  0  3.321938  0  0  -0.362773  -0.392484  0  3.307815  0
N  N85  1  0.16443824  0.01202856  0.09698248  1  0  -0.457072  0  3.004657  0  0  -0.404127  0  3.31349  0  0  -0.421892  0  3.321784  0  0  -0.362599  -0.392374  0  3.307665  0
N  N86  1  0.63145957  0.08649228  0.63645698  1  0  -0.471549  0  2.690847  0  0  -0.439271  0  2.956742  0  0  -0.452503  0  2.963278  0  0  -0.328756  -0.430527  0  2.952482  0
N  N87  1  0.36858801  0.91349107  0.36352778  1  0  -0.471421  0  2.690853  0  0  -0.439086  0  2.95672  0  0  -0.452338  0  2.963292  0  0  -0.328667  -0.430334  0  2.952454  0
N  N88  1  0.80010967  0.60698739  0.96433248  1  0  -0.438352  0  2.703586  0  0  -0.405564  0  2.964128  0  0  -0.417996  0  2.972652  0  0  -0.322977  -0.397374  0  2.958446  0
N  N89  1  0.19985850  0.39303087  0.03566000  1  0  -0.438585  0  2.704237  0  0  -0.40578  0  2.964896  0  0  -0.41822  0  2.973395  0  0  -0.323158  -0.397585  0  2.959222  0
N  N90  1  0.97774468  0.81154122  0.66305965  1  0  -0.442273  0  2.610591  0  0  -0.411066  0  2.852197  0  0  -0.423698  0  2.861701  0  0  -0.322033  -0.402597  0  2.845732  0
N  N91  1  0.02230758  0.18857345  0.33694479  1  0  -0.441619  0  2.609668  0  0  -0.410509  0  2.851028  0  0  -0.423121  0  2.860561  0  0  -0.321945  -0.402049  0  2.844528  0
N  N92  1  0.49088985  0.83063112  0.57415863  1  0  -0.454958  0  3.025295  0  0  -0.394437  0  3.339887  0  0  -0.412833  0  3.344509  0  0  -0.365889  -0.382239  0  3.336869  0
N  N93  1  0.50904846  0.16937065  0.42584431  1  0  -0.454918  0  3.025464  0  0  -0.394383  0  3.340033  0  0  -0.412781  0  3.344655  0  0  -0.365918  -0.382182  0  3.337012  0
N  N94  1  0.48698977  0.58016623  0.85183720  1  0  -0.433918  0  2.942722  0  0  -0.382212  0  3.240829  0  0  -0.398657  0  3.2488  0  0  -0.341139  -0.371403  0  3.235516  0
N  N95  1  0.51304194  0.41982206  0.14814691  1  0  -0.433952  0  2.942952  0  0  -0.382245  0  3.241098  0  0  -0.398696  0  3.249073  0  0  -0.341001  -0.371428  0  3.235777  0
N  N96  1  0.08631253  0.10321853  0.58425172  1  0  -0.455047  0  3.055593  0  0  -0.394085  0  3.377462  0  0  -0.41106  0  3.378609  0  0  -0.36666  -0.382999  0  3.376922  0
N  N97  1  0.91370449  0.89676582  0.41575963  1  0  -0.454762  0  3.055494  0  0  -0.393792  0  3.377372  0  0  -0.410766  0  3.37852  0  0  -0.36667  -0.382707  0  3.376835  0
N  N98  1  0.21666360  0.14420062  0.86103115  1  0  -0.431466  0  2.717229  0  0  -0.397954  0  2.981981  0  0  -0.410691  0  2.992064  0  0  -0.311877  -0.389753  0  2.975215  0
N  N99  1  0.78335163  0.85581766  0.13897845  1  0  -0.431333  0  2.71713  0  0  -0.3978  0  2.981849  0  0  -0.410541  0  2.991935  0  0  -0.311741  -0.389601  0  2.975087  0
