# generated using pymatgen
data_Zn3H42C54(N5O6)2
_symmetry_space_group_name_H-M   'P 1'
_cell_length_a   10.51262366
_cell_length_b   10.60776098
_cell_length_c   12.30724252
_cell_angle_alpha   79.95364605
_cell_angle_beta   83.63070243
_cell_angle_gamma   76.95259174
_symmetry_Int_Tables_number   1
_chemical_formula_structural   Zn3H42C54(N5O6)2
_chemical_formula_sum   'Zn3 H42 C54 N10 O12'
_cell_volume   1312.84703871
_cell_formula_units_Z   1
loop_
 _symmetry_equiv_pos_site_id
 _symmetry_equiv_pos_as_xyz
  1  'x, y, z'
loop_
 _atom_site_type_symbol
 _atom_site_label
 _atom_site_symmetry_multiplicity
 _atom_site_fract_x
 _atom_site_fract_y
 _atom_site_fract_z
 _atom_site_occupancy
 _atom_site_hle17_bader_spin_density
 _atom_site_hle17_ddec_charge
 _atom_site_hle17_ddec_spin_density
 _atom_site_hle17_ddec_sum_bond_order
 _atom_site_hle17_magmom
 _atom_site_hse06_10hf_bader_spin_density
 _atom_site_hse06_10hf_ddec_charge
 _atom_site_hse06_10hf_ddec_spin_density
 _atom_site_hse06_10hf_ddec_sum_bond_order
 _atom_site_hse06_10hf_magmom
 _atom_site_hse06_bader_spin_density
 _atom_site_hse06_ddec_charge
 _atom_site_hse06_ddec_spin_density
 _atom_site_hse06_ddec_sum_bond_order
 _atom_site_hse06_magmom
 _atom_site_pbe_bader_spin_density
 _atom_site_pbe_cm5_charge
 _atom_site_pbe_ddec_charge
 _atom_site_pbe_ddec_spin_density
 _atom_site_pbe_ddec_sum_bond_order
 _atom_site_pbe_magmom
Zn  Zn0  1  0.27753611  0.65278898  0.16566149  1  0  1.078126  0  1.801003  0  0  0.897622  0  2.273831  0  0  0.946188  0  2.214297  0  0  0.698032  0.86351  0  2.315161  0
Zn  Zn1  1  0.72246408  0.34720823  0.83434042  1  0  1.078058  0  1.801079  0  0  0.897565  0  2.27391  0  0  0.946133  0  2.214374  0  0  0.698029  0.863449  0  2.315233  0
Zn  Zn2  1  0.49999904  0.50000084  0.00000072  1  0  1.20454  0  1.771897  0  0  1.054462  0  2.220834  0  0  1.099941  0  2.15969  0  0  0.699602  1.021886  0  2.262959  0
H  H3  1  0.45112042  0.01900656  0.87947377  1  0  0.118813  0  0.944102  0  0  0.12763  0  1.004357  0  0  0.131179  0  1.002009  0  0  0.112091  0.124975  0  1.00625  0
H  H4  1  0.54888533  0.98099160  0.12052507  1  0  0.118814  0  0.944175  0  0  0.127633  0  1.004424  0  0  0.131181  0  1.002076  0  0  0.112097  0.124977  0  1.006316  0
H  H5  1  0.48126920  0.09886573  0.67606085  1  0  0.104478  0  0.963083  0  0  0.111348  0  1.02853  0  0  0.114356  0  1.027356  0  0  0.107084  0.109082  0  1.029735  0
H  H6  1  0.51873156  0.90113344  0.32393829  1  0  0.104468  0  0.963215  0  0  0.111374  0  1.028618  0  0  0.114382  0  1.027445  0  0  0.107093  0.109105  0  1.029821  0
H  H7  1  0.37834795  0.75303670  0.60476429  1  0  0.103357  0  0.939398  0  0  0.113532  0  0.99928  0  0  0.116768  0  0.998163  0  0  0.106081  0.111048  0  1.000471  0
H  H8  1  0.62164646  0.24696544  0.39523497  1  0  0.103322  0  0.939451  0  0  0.113502  0  0.999334  0  0  0.116743  0  0.998206  0  0  0.106068  0.11101  0  1.000528  0
H  H9  1  0.34222132  0.67648491  0.80823839  1  0  0.101488  0  0.988828  0  0  0.108146  0  1.056883  0  0  0.111059  0  1.055395  0  0  0.103165  0.106037  0  1.058036  0
H  H10  1  0.65777575  0.32351819  0.19176131  1  0  0.10152  0  0.988818  0  0  0.108197  0  1.056852  0  0  0.111113  0  1.055359  0  0  0.103177  0.106082  0  1.058007  0
H  H11  1  0.35386864  0.18748033  0.02970155  1  0  0.111588  0  0.958151  0  0  0.11809  0  1.023506  0  0  0.121043  0  1.022167  0  0  0.106362  0.116101  0  1.024263  0
H  H12  1  0.64612788  0.81252082  0.97029849  1  0  0.111604  0  0.958232  0  0  0.118098  0  1.023581  0  0  0.121052  0  1.022241  0  0  0.106364  0.116106  0  1.024343  0
H  H13  1  0.23345990  0.02553151  0.99021046  1  0  0.103525  0  1.00563  0  0  0.10428  0  1.083376  0  0  0.107326  0  1.081966  0  0  0.102639  0.102312  0  1.08388  0
H  H14  1  0.76653682  0.97446866  0.00979052  1  0  0.103526  0  1.005604  0  0  0.104279  0  1.083362  0  0  0.107319  0  1.081968  0  0  0.102607  0.102313  0  1.083863  0
H  H15  1  0.86684105  0.27314614  0.08040608  1  0  0.111567  0  0.963027  0  0  0.117078  0  1.032669  0  0  0.120471  0  1.030916  0  0  0.103466  0.114467  0  1.03444  0
H  H16  1  0.13315645  0.72685010  0.91959703  1  0  0.11152  0  0.963005  0  0  0.117018  0  1.032677  0  0  0.120411  0  1.03092  0  0  0.103427  0.114412  0  1.034451  0
H  H17  1  0.98961770  0.43593527  0.12247959  1  0  0.095192  0  0.973199  0  0  0.105583  0  1.0366  0  0  0.10815  0  1.035517  0  0  0.102462  0.1039  0  1.036785  0
H  H18  1  0.01037634  0.56406394  0.87752177  1  0  0.095245  0  0.97323  0  0  0.105624  0  1.036634  0  0  0.10819  0  1.035551  0  0  0.102452  0.103953  0  1.036803  0
H  H19  1  0.51377055  0.63011014  0.44022420  1  0  0.100379  0  0.948033  0  0  0.108145  0  1.01303  0  0  0.111585  0  1.010754  0  0  0.10412  0.105773  0  1.01432  0
H  H20  1  0.48623424  0.36988803  0.55977554  1  0  0.100393  0  0.94803  0  0  0.10818  0  1.013001  0  0  0.111608  0  1.010739  0  0  0.104137  0.105806  0  1.014295  0
H  H21  1  0.69673743  0.60591927  0.56382915  1  0  0.113199  0  0.930158  0  0  0.121729  0  0.989871  0  0  0.12578  0  0.987436  0  0  0.109179  0.118635  0  0.991905  0
H  H22  1  0.30326498  0.39408575  0.43617060  1  0  0.113152  0  0.930213  0  0  0.121713  0  0.989897  0  0  0.125761  0  0.987462  0  0  0.109173  0.118617  0  0.991926  0
H  H23  1  0.97727910  0.45844477  0.30968715  1  0  0.10877  0  0.969891  0  0  0.108558  0  1.047754  0  0  0.11327  0  1.043542  0  0  0.104295  0.105108  0  1.051115  0
H  H24  1  0.02272561  0.54155828  0.69031594  1  0  0.108702  0  0.969806  0  0  0.108501  0  1.047677  0  0  0.113212  0  1.043467  0  0  0.104274  0.105049  0  1.051045  0
H  H25  1  0.79356291  0.48401499  0.18660202  1  0  0.102341  0  0.960193  0  0  0.112354  0  1.02104  0  0  0.115642  0  1.018964  0  0  0.105361  0.109992  0  1.022449  0
H  H26  1  0.20644360  0.51597924  0.81340302  1  0  0.102308  0  0.960149  0  0  0.112313  0  1.021011  0  0  0.1156  0  1.018936  0  0  0.105334  0.109952  0  1.022428  0
H  H27  1  0.28815899  0.90413623  0.36037338  1  0  0.123476  0  0.951182  0  0  0.136126  0  1.025699  0  0  0.138968  0  1.023159  0  0  0.094808  0.134043  0  1.027657  0
H  H28  1  0.71184019  0.09586588  0.63962709  1  0  0.12349  0  0.951151  0  0  0.136139  0  1.025663  0  0  0.138984  0  1.023121  0  0  0.094813  0.134059  0  1.027613  0
H  H29  1  0.24002584  0.04346910  0.25913579  1  0  0.126831  0  0.948206  0  0  0.145736  0  1.008561  0  0  0.147349  0  1.009167  0  0  0.097788  0.144701  0  1.008032  0
H  H30  1  0.75997182  0.95653106  0.74086592  1  0  0.126834  0  0.948166  0  0  0.145732  0  1.008526  0  0  0.147346  0  1.009132  0  0  0.097783  0.144702  0  1.007995  0
H  H31  1  0.33206749  0.89633708  0.21693379  1  0  0.151149  0  0.964165  0  0  0.170059  0  1.022909  0  0  0.172498  0  1.021804  0  0  0.105268  0.168253  0  1.023618  0
H  H32  1  0.66793149  0.10366600  0.78306655  1  0  0.151167  0  0.9642  0  0  0.17008  0  1.022924  0  0  0.17252  0  1.02182  0  0  0.105292  0.168277  0  1.023636  0
H  H33  1  0.97287714  0.69344265  0.19981997  1  0  0.108258  0  0.956908  0  0  0.120514  0  1.012679  0  0  0.122259  0  1.013092  0  0  0.119468  0.119138  0  1.0128  0
H  H34  1  0.02712265  0.30655653  0.80018006  1  0  0.108255  0  0.956916  0  0  0.120515  0  1.012677  0  0  0.122261  0  1.013088  0  0  0.119463  0.119138  0  1.012796  0
H  H35  1  0.81929932  0.90908320  0.28609399  1  0  0.114088  0  0.96694  0  0  0.124065  0  1.028854  0  0  0.125764  0  1.029846  0  0  0.120069  0.123099  0  1.027885  0
H  H36  1  0.18070008  0.09091794  0.71390579  1  0  0.114089  0  0.967017  0  0  0.124056  0  1.028936  0  0  0.125756  0  1.029929  0  0  0.12007  0.123089  0  1.027971  0
H  H37  1  0.88340228  0.13081443  0.30497595  1  0  0.075201  0  0.935898  0  0  0.0895  0  1.002316  0  0  0.089328  0  1.003935  0  0  0.109183  0.089507  0  1.001327  0
H  H38  1  0.11659447  0.86918575  0.69502015  1  0  0.075244  0  0.935903  0  0  0.089556  0  1.00231  0  0  0.089385  0  1.003929  0  0  0.109225  0.089563  0  1.00132  0
H  H39  1  0.04894209  0.12531002  0.32402612  1  0  0.077851  0  0.922881  0  0  0.098065  0  0.97674  0  0  0.098289  0  0.977389  0  0  0.115673  0.097786  0  0.976465  0
H  H40  1  0.95105383  0.87469407  0.67597191  1  0  0.077837  0  0.922922  0  0  0.098057  0  0.976785  0  0  0.098281  0  0.977434  0  0  0.115664  0.097783  0  0.976506  0
H  H41  1  0.90791305  0.13573598  0.49951857  1  0  0.080059  0  0.922761  0  0  0.102452  0  0.972863  0  0  0.102689  0  0.974242  0  0  0.099276  0.10221  0  0.971968  0
H  H42  1  0.09208253  0.86426518  0.50047830  1  0  0.080042  0  0.922719  0  0  0.102426  0  0.97281  0  0  0.102665  0  0.974187  0  0  0.09927  0.102181  0  0.971919  0
H  H43  1  0.85835937  0.99075583  0.48689218  1  0  0.073362  0  0.92744  0  0  0.092505  0  0.986275  0  0  0.092966  0  0.986869  0  0  0.094473  0.091787  0  0.986463  0
H  H44  1  0.14163718  0.00924533  0.51310379  1  0  0.073329  0  0.927364  0  0  0.092428  0  0.986236  0  0  0.092884  0  0.986829  0  0  0.094443  0.091713  0  0.986423  0
C  C45  1  0.38313932  0.79314980  0.97699045  1  0  0.646158  0  3.878079  0  0  0.588183  0  4.184624  0  0  0.623171  0  4.174412  0  0  0.211827  0.565092  0  4.189364  0
C  C46  1  0.61686123  0.20685035  0.02301019  1  0  0.646223  0  3.878091  0  0  0.588282  0  4.184577  0  0  0.623275  0  4.174357  0  0  0.211852  0.565183  0  4.189328  0
C  C47  1  0.39645038  0.84181011  0.85563473  1  0  -0.046051  0  3.719669  0  0  -0.026545  0  3.959062  0  0  -0.034381  0  3.980711  0  0  -0.008915  -0.021346  0  3.943463  0
C  C48  1  0.60355306  0.15819003  0.14436322  1  0  -0.04612  0  3.719706  0  0  -0.026613  0  3.95909  0  0  -0.03445  0  3.980736  0  0  -0.008937  -0.021411  0  3.943479  0
C  C49  1  0.43436886  0.96196540  0.81876346  1  0  -0.057429  0  3.705211  0  0  -0.0779  0  3.946616  0  0  -0.077922  0  3.967178  0  0  -0.073193  -0.07761  0  3.932138  0
C  C50  1  0.56563614  0.03803179  0.18123559  1  0  -0.057351  0  3.705122  0  0  -0.077827  0  3.946546  0  0  -0.077847  0  3.967105  0  0  -0.073138  -0.07754  0  3.932066  0
C  C51  1  0.45315239  0.00557588  0.70631683  1  0  -0.129954  0  3.713346  0  0  -0.145127  0  3.953292  0  0  -0.149248  0  3.975288  0  0  -0.082653  -0.14236  0  3.938383  0
C  C52  1  0.54684952  0.99442230  0.29368317  1  0  -0.130091  0  3.713341  0  0  -0.145295  0  3.953294  0  0  -0.149416  0  3.975287  0  0  -0.082733  -0.142525  0  3.938385  0
C  C53  1  0.43723680  0.92757709  0.62924359  1  0  0.156737  0  3.830217  0  0  0.161226  0  4.080124  0  0  0.162112  0  4.104232  0  0  0.08529  0.160413  0  4.064087  0
C  C54  1  0.56276354  0.07242403  0.37075773  1  0  0.15682  0  3.830096  0  0  0.161295  0  4.080026  0  0  0.162181  0  4.10413  0  0  0.085318  0.160467  0  4.063994  0
C  C55  1  0.39271217  0.81090626  0.66578335  1  0  -0.13441  0  3.720303  0  0  -0.152718  0  3.96929  0  0  -0.157322  0  3.990603  0  0  -0.084349  -0.149576  0  3.95516  0
C  C56  1  0.60728530  0.18909489  0.33421742  1  0  -0.134383  0  3.72031  0  0  -0.152692  0  3.969275  0  0  -0.157295  0  3.990592  0  0  -0.084358  -0.149538  0  3.955134  0
C  C57  1  0.37259999  0.76863153  0.77846763  1  0  -0.054006  0  3.722022  0  0  -0.080401  0  3.973525  0  0  -0.079321  0  3.993621  0  0  -0.083364  -0.080997  0  3.959728  0
C  C58  1  0.62739960  0.23136862  0.22153310  1  0  -0.05407  0  3.721982  0  0  -0.080473  0  3.973472  0  0  -0.079393  0  3.993566  0  0  -0.083375  -0.081058  0  3.959656  0
C  C59  1  0.25122641  0.41410863  0.10985716  1  0  0.672038  0  3.868641  0  0  0.62244  0  4.152346  0  0  0.65867  0  4.143519  0  0  0.218644  0.597633  0  4.157733  0
C  C60  1  0.74876993  0.58589351  0.89014031  1  0  0.67187  0  3.868767  0  0  0.622239  0  4.152505  0  0  0.658468  0  4.143682  0  0  0.21853  0.597425  0  4.157893  0
C  C61  1  0.17847365  0.31944232  0.08227254  1  0  -0.066236  0  3.746615  0  0  -0.042871  0  3.97617  0  0  -0.052363  0  4.000525  0  0  -0.016371  -0.036319  0  3.959323  0
C  C62  1  0.82152136  0.68055688  0.91772792  1  0  -0.065971  0  3.746592  0  0  -0.042617  0  3.97613  0  0  -0.052107  0  4.000487  0  0  -0.016316  -0.036065  0  3.959289  0
C  C63  1  0.24753517  0.20502793  0.04200808  1  0  -0.052601  0  3.707721  0  0  -0.072857  0  3.948746  0  0  -0.072446  0  3.969224  0  0  -0.079482  -0.073216  0  3.934818  0
C  C64  1  0.75246194  0.79497027  0.95799315  1  0  -0.052641  0  3.707786  0  0  -0.072878  0  3.948802  0  0  -0.07247  0  3.969283  0  0  -0.079486  -0.073238  0  3.934869  0
C  C65  1  0.18070829  0.11544651  0.01885271  1  0  -0.124953  0  3.710437  0  0  -0.14345  0  3.95536  0  0  -0.147627  0  3.97729  0  0  -0.083722  -0.140536  0  3.940465  0
C  C66  1  0.81928977  0.88455168  0.98115006  1  0  -0.124891  0  3.710331  0  0  -0.143414  0  3.955273  0  0  -0.147588  0  3.977201  0  0  -0.083644  -0.140494  0  3.940372  0
C  C67  1  0.04337661  0.13875412  0.03555754  1  0  0.155043  0  3.814206  0  0  0.160116  0  4.06458  0  0  0.161551  0  4.087686  0  0  0.086222  0.159194  0  4.049286  0
C  C68  1  0.95662240  0.86124407  0.96444677  1  0  0.154854  0  3.81435  0  0  0.159946  0  4.064719  0  0  0.161379  0  4.087829  0  0  0.086139  0.159023  0  4.049439  0
C  C69  1  0.97352187  0.25499420  0.07214460  1  0  -0.126155  0  3.698235  0  0  -0.146632  0  3.951973  0  0  -0.150683  0  3.972653  0  0  -0.083785  -0.144371  0  3.938738  0
C  C70  1  0.02647584  0.74500106  0.92785864  1  0  -0.126008  0  3.698185  0  0  -0.146465  0  3.951871  0  0  -0.150513  0  3.972551  0  0  -0.083748  -0.144215  0  3.938656  0
C  C71  1  0.04124749  0.34458987  0.09511531  1  0  -0.072577  0  3.750528  0  0  -0.096913  0  3.998277  0  0  -0.09692  0  4.020435  0  0  -0.086579  -0.096394  0  3.982435  0
C  C72  1  0.95874907  0.65540638  0.90488706  1  0  -0.072792  0  3.750728  0  0  -0.097127  0  3.998489  0  0  -0.097133  0  4.020645  0  0  -0.086553  -0.096611  0  3.982643  0
C  C73  1  0.53894716  0.57058890  0.22970065  1  0  0.670804  0  3.872414  0  0  0.619467  0  4.16057  0  0  0.655038  0  4.152978  0  0  0.221715  0.595325  0  4.164886  0
C  C74  1  0.46105864  0.42940438  0.77029890  1  0  0.670785  0  3.87255  0  0  0.619366  0  4.160774  0  0  0.654938  0  4.153181  0  0  0.22172  0.595235  0  4.165085  0
C  C75  1  0.64389958  0.55776062  0.30643307  1  0  -0.060801  0  3.734131  0  0  -0.036109  0  3.96037  0  0  -0.045668  0  3.986224  0  0  -0.013669  -0.030398  0  3.943568  0
C  C76  1  0.35610519  0.44223754  0.69356911  1  0  -0.060767  0  3.734214  0  0  -0.036063  0  3.960477  0  0  -0.045625  0  3.986329  0  0  -0.013625  -0.030368  0  3.943691  0
C  C77  1  0.61525863  0.59276119  0.41252780  1  0  -0.06324  0  3.741491  0  0  -0.087017  0  3.990961  0  0  -0.087272  0  4.013207  0  0  -0.081913  -0.086478  0  3.975298  0
C  C78  1  0.38474309  0.40723797  0.58747207  1  0  -0.063289  0  3.741491  0  0  -0.087082  0  3.990956  0  0  -0.087328  0  4.013209  0  0  -0.081955  -0.086538  0  3.975293  0
C  C79  1  0.71616264  0.57970448  0.48080894  1  0  -0.117199  0  3.696838  0  0  -0.138844  0  3.94576  0  0  -0.143069  0  3.966686  0  0  -0.077173  -0.135479  0  3.931051  0
C  C80  1  0.28384018  0.42029859  0.51919025  1  0  -0.117183  0  3.696793  0  0  -0.13883  0  3.94577  0  0  -0.143047  0  3.966691  0  0  -0.07713  -0.135455  0  3.931051  0
C  C81  1  0.84635111  0.53103547  0.44350657  1  0  0.163038  0  3.818084  0  0  0.168868  0  4.064631  0  0  0.169741  0  4.089236  0  0  0.087614  0.168402  0  4.047799  0
C  C82  1  0.15365207  0.46897053  0.55649216  1  0  0.163015  0  3.818033  0  0  0.168739  0  4.064737  0  0  0.169605  0  4.089346  0  0  0.087515  0.168265  0  4.04791  0
C  C83  1  0.87540786  0.49445057  0.33735967  1  0  -0.137198  0  3.732536  0  0  -0.154993  0  3.979292  0  0  -0.159022  0  4.000422  0  0  -0.085903  -0.152885  0  3.965629  0
C  C84  1  0.12459707  0.50555151  0.66264030  1  0  -0.137162  0  3.732421  0  0  -0.15495  0  3.979217  0  0  -0.158977  0  4.000347  0  0  -0.08594  -0.152838  0  3.965561  0
C  C85  1  0.77455831  0.50870864  0.26996174  1  0  -0.065404  0  3.743999  0  0  -0.08635  0  3.985435  0  0  -0.086902  0  4.007336  0  0  -0.083711  -0.085473  0  3.970726  0
C  C86  1  0.22544953  0.49128853  0.73004112  1  0  -0.065296  0  3.744091  0  0  -0.086233  0  3.985526  0  0  -0.086782  0  4.007428  0  0  -0.083651  -0.085359  0  3.970824  0
C  C87  1  0.25472097  0.93639929  0.27647498  1  0  -0.407058  0  3.722967  0  0  -0.488883  0  3.96719  0  0  -0.493668  0  3.973797  0  0  -0.237099  -0.485249  0  3.962117  0
C  C88  1  0.74527822  0.06360282  0.72352549  1  0  -0.407113  0  3.722973  0  0  -0.48892  0  3.967174  0  0  -0.493708  0  3.973782  0  0  -0.237107  -0.485285  0  3.962093  0
C  C89  1  0.13436595  0.89139425  0.26403047  1  0  0.38484  0  3.669946  0  0  0.360389  0  3.935873  0  0  0.376573  0  3.951185  0  0  0.224206  0.349804  0  3.9249  0
C  C90  1  0.86563576  0.10860491  0.73596858  1  0  0.384837  0  3.67008  0  0  0.360373  0  3.935966  0  0  0.376555  0  3.951281  0  0  0.2242  0.349785  0  3.924996  0
C  C91  1  0.00066911  0.77310444  0.22906848  1  0  0.025806  0  3.753974  0  0  -0.01299  0  4.024716  0  0  -0.010801  0  4.046202  0  0  -0.001678  -0.014363  0  4.01042  0
C  C92  1  0.99933144  0.22689570  0.77093216  1  0  0.025785  0  3.753927  0  0  -0.013023  0  4.024686  0  0  -0.01083  0  4.046171  0  0  -0.001678  -0.014399  0  4.010382  0
C  C93  1  0.92447298  0.87829920  0.27170935  1  0  -0.061229  0  3.674016  0  0  -0.104423  0  3.937651  0  0  -0.10359  0  3.957289  0  0  -0.002603  -0.105075  0  3.924097  0
C  C94  1  0.07552970  0.12169996  0.72828880  1  0  -0.061172  0  3.673787  0  0  -0.104385  0  3.937405  0  0  -0.103556  0  3.957041  0  0  -0.002572  -0.105026  0  3.923846  0
C  C95  1  0.97034669  0.07050018  0.34424552  1  0  0.009276  0  3.628891  0  0  -0.05311  0  3.888146  0  0  -0.048933  0  3.900197  0  0  -0.050357  -0.055757  0  3.879769  0
C  C96  1  0.02965177  0.92950097  0.65575191  1  0  0.009261  0  3.628932  0  0  -0.053202  0  3.888196  0  0  -0.04903  0  3.900249  0  0  -0.050366  -0.055844  0  3.879818  0
C  C97  1  0.94118944  0.04090037  0.46945870  1  0  -0.128315  0  3.677752  0  0  -0.170928  0  3.944095  0  0  -0.172038  0  3.957654  0  0  -0.161967  -0.16998  0  3.934723  0
C  C98  1  0.05880709  0.95910079  0.53053889  1  0  -0.128171  0  3.677571  0  0  -0.170661  0  3.94384  0  0  -0.171763  0  3.957394  0  0  -0.161891  -0.169714  0  3.934466  0
N  N99  1  0.46334581  0.95894050  0.51402706  1  0  -0.157282  0  3.008914  0  0  -0.134745  0  3.291724  0  0  -0.133068  0  3.297264  0  0  -0.147754  -0.135471  0  3.287929  0
N  N100  1  0.53665073  0.04106066  0.48597054  1  0  -0.157108  0  3.008922  0  0  -0.134557  0  3.291728  0  0  -0.132878  0  3.297265  0  0  -0.147654  -0.135279  0  3.287936  0
N  N101  1  0.96722207  0.05110155  0.01810722  1  0  -0.147103  0  2.995342  0  0  -0.126785  0  3.287278  0  0  -0.125321  0  3.294518  0  0  -0.146019  -0.128547  0  3.282784  0
N  N102  1  0.03277563  0.94889371  0.98189683  1  0  -0.147101  0  2.995516  0  0  -0.126803  0  3.28745  0  0  -0.125338  0  3.294688  0  0  -0.146032  -0.128568  0  3.282962  0
N  N103  1  0.94217000  0.52516887  0.51699461  1  0  -0.149958  0  2.993854  0  0  -0.130385  0  3.276771  0  0  -0.128179  0  3.281141  0  0  -0.148392  -0.131768  0  3.273498  0
N  N104  1  0.05783522  0.47484103  0.48300743  1  0  -0.149752  0  2.993913  0  0  -0.130109  0  3.276829  0  0  -0.127901  0  3.281199  0  0  -0.148196  -0.131494  0  3.273557  0
N  N105  1  0.13038259  0.78249651  0.22405214  1  0  -0.450462  0  3.252079  0  0  -0.372951  0  3.552122  0  0  -0.395734  0  3.563176  0  0  -0.362858  -0.357414  0  3.544253  0
N  N106  1  0.86961775  0.21750461  0.77595000  1  0  -0.450437  0  3.252051  0  0  -0.37292  0  3.552086  0  0  -0.395705  0  3.563142  0  0  -0.36287  -0.357375  0  3.544205  0
N  N107  1  0.00971244  0.95184944  0.29329099  1  0  -0.117367  0  3.525817  0  0  -0.025581  0  3.74186  0  0  -0.041214  0  3.767642  0  0  -0.241013  -0.014893  0  3.724007  0
N  N108  1  0.99028485  0.04815269  0.70670721  1  0  -0.117428  0  3.525777  0  0  -0.025562  0  3.741754  0  0  -0.041189  0  3.767532  0  0  -0.241025  -0.014883  0  3.723909  0
O  O109  1  0.34553231  0.68034050  0.00516384  1  0  -0.707511  0  2.146119  0  0  -0.619663  0  2.43693  0  0  -0.649538  0  2.416645  0  0  -0.330022  -0.598883  0  2.450014  0
O  O110  1  0.65446919  0.31965964  0.99483753  1  0  -0.707538  0  2.146109  0  0  -0.6197  0  2.4369  0  0  -0.649586  0  2.416625  0  0  -0.330043  -0.598913  0  2.449981  0
O  O111  1  0.40471867  0.85709172  0.04590230  1  0  -0.571388  0  1.934046  0  0  -0.521798  0  2.160855  0  0  -0.543732  0  2.15143  0  0  -0.292675  -0.50639  0  2.166072  0
O  O112  1  0.59527916  0.14291235  0.95409800  1  0  -0.571347  0  1.934056  0  0  -0.521797  0  2.160904  0  0  -0.543727  0  2.151465  0  0  -0.292664  -0.506394  0  2.166127  0
O  O113  1  0.37493205  0.39042434  0.09244096  1  0  -0.654158  0  2.109459  0  0  -0.588738  0  2.371181  0  0  -0.617366  0  2.359204  0  0  -0.315027  -0.569832  0  2.379045  0
O  O114  1  0.62506431  0.60957780  0.90755407  1  0  -0.654142  0  2.109461  0  0  -0.588678  0  2.37116  0  0  -0.617303  0  2.359181  0  0  -0.315006  -0.569769  0  2.379024  0
O  O115  1  0.18323857  0.51365676  0.15109155  1  0  -0.634293  0  2.037297  0  0  -0.56171  0  2.303657  0  0  -0.590433  0  2.288177  0  0  -0.318549  -0.541103  0  2.314099  0
O  O116  1  0.81675661  0.48634636  0.84890588  1  0  -0.634243  0  2.037353  0  0  -0.561616  0  2.303682  0  0  -0.590337  0  2.288198  0  0  -0.318502  -0.541004  0  2.314118  0
O  O117  1  0.57668713  0.53875066  0.13505668  1  0  -0.640468  0  2.129316  0  0  -0.577574  0  2.39432  0  0  -0.60561  0  2.381811  0  0  -0.305606  -0.558169  0  2.402146  0
O  O118  1  0.42331962  0.46124261  0.86494280  1  0  -0.640681  0  2.129569  0  0  -0.577584  0  2.39447  0  0  -0.605624  0  2.381964  0  0  -0.305616  -0.558172  0  2.402276  0
O  O119  1  0.42022773  0.61170329  0.26604299  1  0  -0.634437  0  2.044132  0  0  -0.562258  0  2.312898  0  0  -0.59058  0  2.296175  0  0  -0.319401  -0.542158  0  2.323675  0
O  O120  1  0.57977732  0.38828901  0.73395597  1  0  -0.634259  0  2.044097  0  0  -0.562171  0  2.312998  0  0  -0.590494  0  2.296273  0  0  -0.319379  -0.542071  0  2.323765  0
