# generated using pymatgen
data_CoH25C26N3O4
_symmetry_space_group_name_H-M   'P 1'
_cell_length_a   11.37674347
_cell_length_b   14.29246501
_cell_length_c   15.56662529
_cell_angle_alpha   97.08380833
_cell_angle_beta   111.45269622
_cell_angle_gamma   89.99252297
_symmetry_Int_Tables_number   1
_chemical_formula_structural   CoH25C26N3O4
_chemical_formula_sum   'Co4 H100 C104 N12 O16'
_cell_volume   2335.04550941
_cell_formula_units_Z   4
loop_
 _symmetry_equiv_pos_site_id
 _symmetry_equiv_pos_as_xyz
  1  'x, y, z'
loop_
 _atom_site_type_symbol
 _atom_site_label
 _atom_site_symmetry_multiplicity
 _atom_site_fract_x
 _atom_site_fract_y
 _atom_site_fract_z
 _atom_site_occupancy
 _atom_site_pbe_bader_charge
 _atom_site_pbe_bader_spin_density
 _atom_site_pbe_cm5_charge
 _atom_site_pbe_ddec_charge
 _atom_site_pbe_ddec_spin_density
 _atom_site_pbe_ddec_sum_bond_order
 _atom_site_pbe_magmom
Co  Co0  1  0.40779606  0.73596493  0.43131102  1  1.175494  2.591647  0.6073  0.740555  2.807621  2.773638  2.574
Co  Co1  1  0.97668710  0.26417704  0.56852055  1  1.173855  2.591619  0.607133  0.740388  2.806142  2.774957  2.574
Co  Co2  1  0.00494931  0.21600260  0.43356826  1  1.178954  2.595171  0.608702  0.736319  2.812418  2.778142  2.578
Co  Co3  1  0.57115926  0.78401415  0.56631994  1  1.180175  2.595062  0.608425  0.735469  2.812797  2.780279  2.578
H  H4  1  0.19173205  0.54422244  0.09834051  1  0.141483  0.000472  0.109846  0.11342  0.000193  1.038424  0.0
H  H5  1  0.09388038  0.45580992  0.90189472  1  0.141826  0.000472  0.109918  0.113271  0.000193  1.039028  0.0
H  H6  1  0.36845324  0.62079816  0.24261733  1  0.128686  0.000899  0.116793  0.090627  0.000286  1.024275  0.001
H  H7  1  0.12664739  0.37925019  0.75774846  1  0.096344  0.00091  0.116911  0.090664  0.000285  1.024723  0.001
H  H8  1  0.12164608  0.70033971  0.37428258  1  0.113253  0.000876  0.118012  0.089633  0.000253  1.024057  0.001
H  H9  1  0.74812347  0.29982110  0.62555064  1  0.119652  0.000869  0.118124  0.089848  0.000252  1.022948  0.001
H  H10  1  0.93394108  0.62564245  0.23667456  1  0.086463  0.000494  0.108968  0.113005  0.000193  1.03474  0.0
H  H11  1  0.69777025  0.37428373  0.76306293  1  0.104675  0.000485  0.109558  0.113633  0.000192  1.033457  0.0
H  H12  1  0.63287976  0.62942990  0.09438164  1  0.092556  2e-06  0.10874  0.112938  -1e-06  1.017494  0.0
H  H13  1  0.53816183  0.37039483  0.90527084  1  0.099877  2e-06  0.109365  0.113658  -1e-06  1.017817  0.0
H  H14  1  0.41053592  0.62468797  0.09056133  1  0.075609  2e-05  0.112183  0.078801  8e-06  0.996321  0.0
H  H15  1  0.31985078  0.37513009  0.90933042  1  0.056129  2e-05  0.112064  0.078176  8e-06  0.996913  0.0
H  H16  1  0.88999634  0.04948027  0.09225433  1  0.127635  0.000508  0.111008  0.115135  0.000211  1.034641  0.0
H  H17  1  0.79784360  0.95012286  0.90783469  1  0.158227  0.000495  0.110985  0.115417  0.000211  1.033856  0.0
H  H18  1  0.85462447  0.11685625  0.23781811  1  0.121864  0.000911  0.117738  0.091004  0.000282  1.015631  0.001
H  H19  1  0.61690129  0.88289556  0.76219174  1  0.135743  0.000907  0.117488  0.089736  0.000283  1.017303  0.001
H  H20  1  0.23522818  0.18218720  0.38066292  1  0.098072  0.000888  0.119604  0.0939  0.00026  1.026081  0.001
H  H21  1  0.85457445  0.81803518  0.61927282  1  0.133744  0.000877  0.119831  0.093815  0.00026  1.025656  0.001
H  H22  1  0.28746298  0.11967710  0.24070772  1  0.083507  0.000516  0.106274  0.105154  0.000215  1.052734  0.0
H  H23  1  0.04678281  0.88041620  0.75925916  1  0.096583  0.000516  0.106266  0.105259  0.000215  1.051814  0.0
H  H24  1  0.58623542  0.86488245  0.92830666  1  0.057166  5e-06  0.111462  0.076205  -3e-06  0.991049  0.0
H  H25  1  0.65807724  0.13524757  0.07179969  1  0.05752  5e-06  0.111468  0.075521  -3e-06  0.990998  0.0
H  H26  1  0.36418957  0.85996802  0.92419984  1  0.104505  2.5e-05  0.110337  0.116229  1e-05  1.014223  0.0
H  H27  1  0.44013527  0.14015691  0.07603863  1  0.099416  2.5e-05  0.110254  0.115931  1e-05  1.014571  0.0
H  H28  1  0.44241112  0.38804360  0.75833901  1  -0.012834  0.000113  0.083164  0.08004  2.2e-05  1.022847  0.0
H  H29  1  0.68329441  0.61188490  0.24139319  1  -0.000414  0.00011  0.082812  0.080103  2.2e-05  1.023125  0.0
H  H30  1  0.30437872  0.45139865  0.71822274  1  0.023318  0.000432  0.087582  0.085992  0.000235  1.018386  0.0
H  H31  1  0.58538052  0.54866481  0.28157978  1  0.052701  0.000421  0.087619  0.086072  0.000235  1.018175  0.0
H  H32  1  0.42644018  0.58315788  0.71858344  1  0.019069  0.000237  0.086168  0.082978  4.1e-05  0.993522  0.0
H  H33  1  0.70688934  0.41674189  0.28128004  1  0.0076  0.000237  0.086077  0.083075  4e-05  0.993657  0.0
H  H34  1  0.56507488  0.51963520  0.75220488  1  0.041399  0.000304  0.084654  0.08307  0.000141  1.01909  0.0
H  H35  1  0.81179247  0.48008801  0.24740315  1  0.047741  0.000303  0.084733  0.083053  0.00014  1.019542  0.0
H  H36  1  0.54640621  0.46950812  0.59763471  1  0.039598  -0.000692  0.1044  0.092389  -0.000633  0.98332  -0.001
H  H37  1  0.94804529  0.53046833  0.40184389  1  0.042242  -0.000687  0.104388  0.091656  -0.000629  0.982832  -0.001
H  H38  1  0.54240950  0.33068323  0.62502854  1  0.020291  0.000228  0.087663  0.118008  7.2e-05  1.036441  0.0
H  H39  1  0.91673309  0.66935687  0.37467892  1  0.003128  0.000227  0.087694  0.117533  7.1e-05  1.035968  0.0
H  H40  1  0.45602832  0.24961647  0.65952560  1  0.01989  8.1e-05  0.086014  0.119167  -1.6e-05  1.008944  0.0
H  H41  1  0.79571452  0.75033746  0.34017827  1  -0.00292  8.1e-05  0.085999  0.118597  -1.6e-05  1.009564  0.0
H  H42  1  0.42208915  0.25420929  0.53950026  1  0.049738  0.000237  0.091221  0.127865  0.000133  1.051741  0.0
H  H43  1  0.88191086  0.74577745  0.46021208  1  0.050861  0.000236  0.091198  0.12739  0.000134  1.052485  0.0
H  H44  1  0.43307545  0.37060609  0.45149168  1  0.026741  5.1e-05  0.081841  0.112184  -0.0  1.040379  0.0
H  H45  1  0.98133281  0.62928596  0.54815062  1  0.023954  5.2e-05  0.08144  0.111222  -0.0  1.041034  0.0
H  H46  1  0.26504915  0.35591516  0.40834277  1  0.059365  0.000239  0.085704  0.124409  8e-05  1.037399  0.0
H  H47  1  0.85663020  0.64407700  0.59140085  1  0.035541  0.000247  0.085196  0.123568  8.1e-05  1.038439  0.0
H  H48  1  0.33937269  0.46427267  0.40370550  1  0.055915  0.000243  0.087034  0.13342  0.000117  1.018201  0.0
H  H49  1  0.93551003  0.53568894  0.59600838  1  0.04862  0.000247  0.087193  0.132883  0.000118  1.019378  0.0
H  H50  1  0.21390317  0.52980704  0.59241569  1  0.019269  8.9e-05  0.085787  0.123401  1.8e-05  1.007341  0.0
H  H51  1  0.62104740  0.47019817  0.40744481  1  0.031722  8.9e-05  0.085232  0.122475  1.8e-05  1.0078  0.0
H  H52  1  0.22169357  0.56025018  0.48707637  1  0.064999  0.000178  0.086653  0.131179  6.5e-05  1.037735  0.0
H  H53  1  0.73432140  0.43974677  0.51273954  1  0.067689  0.00018  0.086519  0.130744  6.5e-05  1.037292  0.0
H  H54  1  0.13989951  0.45425600  0.48634590  1  0.040771  4.3e-05  0.087659  0.123489  -0.000175  1.047486  0.0
H  H55  1  0.65330341  0.54574429  0.51350576  1  0.031595  4.1e-05  0.087258  0.123007  -0.000175  1.047587  0.0
H  H56  1  0.57977267  0.24284810  0.47526929  1  0.040151  0.000494  0.091935  0.093277  0.000232  1.023723  0.0
H  H57  1  0.10401717  0.75716776  0.52466113  1  0.044051  0.000493  0.091475  0.092753  0.000233  1.024527  0.0
H  H58  1  0.44379824  0.20496682  0.37584327  1  0.01205  0.000499  0.087668  0.084468  0.000165  1.008954  0.0
H  H59  1  0.06776202  0.79511607  0.62422685  1  0.02923  0.000495  0.08773  0.08429  0.000165  1.009919  0.0
H  H60  1  0.41965525  0.10767592  0.48685881  1  0.039839  0.000126  0.091429  0.089938  1.9e-05  1.023356  0.0
H  H61  1  0.93243165  0.89239981  0.51313000  1  0.024126  0.000126  0.091898  0.090977  1.9e-05  1.022922  0.0
H  H62  1  0.58440080  0.09226690  0.53449055  1  0.048953  0.000303  0.093281  0.094995  0.000177  1.016849  0.0
H  H63  1  0.04956502  0.90777455  0.46550275  1  0.029775  0.000302  0.093055  0.095048  0.000178  1.016624  0.0
H  H64  1  0.40514342  0.01625898  0.33732002  1  0.044265  0.001355  0.098351  0.087827  0.000591  0.986144  0.001
H  H65  1  0.06761864  0.98390727  0.66266142  1  0.018702  0.001373  0.098615  0.087813  0.000586  0.986701  0.001
H  H66  1  0.46910467  0.15187938  0.23365490  1  0.037533  0.000559  0.082585  0.107567  0.00021  1.054505  0.0
H  H67  1  0.23543404  0.84807378  0.76619606  1  0.03187  0.000559  0.08295  0.107985  0.000209  1.054053  0.0
H  H68  1  0.57027718  0.25498332  0.28293070  1  -0.019687  2.5e-05  0.08756  0.123687  -5.8e-05  0.992567  0.0
H  H69  1  0.28724038  0.74495972  0.71691947  1  -0.022166  2.6e-05  0.087615  0.123668  -5.8e-05  0.993002  0.0
H  H70  1  0.62600966  0.15389737  0.23378888  1  0.044191  0.000296  0.085072  0.116573  0.000175  1.042074  0.0
H  H71  1  0.39214311  0.84596691  0.76599311  1  0.053989  0.000287  0.085074  0.116882  0.000175  1.041389  0.0
H  H72  1  0.65476732  0.98922454  0.24299317  1  0.021777  3.2e-05  0.085492  0.119222  1.3e-05  1.016827  0.0
H  H73  1  0.41181046  0.01068897  0.75676825  1  0.025569  3.3e-05  0.085187  0.119078  1.4e-05  1.017114  0.0
H  H74  1  0.57028207  0.89992764  0.27022803  1  0.015856  4.4e-05  0.087072  0.124507  -7e-06  0.99919  0.0
H  H75  1  0.30011359  0.10004319  0.72963035  1  0.012988  4.4e-05  0.086659  0.124308  -6e-06  0.99927  0.0
H  H76  1  0.48903761  0.99567922  0.21634016  1  0.03452  1.1e-05  0.081136  0.113604  2e-06  1.043443  0.0
H  H77  1  0.27291137  0.00435649  0.78364680  1  0.015585  1.2e-05  0.081118  0.113409  2e-06  1.044207  0.0
H  H78  1  0.80745629  0.00660273  0.40982346  1  0.058969  0.000203  0.089582  0.131553  3.1e-05  1.024262  0.0
H  H79  1  0.39734495  0.99330247  0.58999049  1  0.06186  0.000202  0.089344  0.130746  2.9e-05  1.023322  0.0
H  H80  1  0.75288815  0.02385697  0.50382538  1  0.035948  0.000202  0.090655  0.136117  7.5e-05  0.998934  0.0
H  H81  1  0.24866264  0.97609101  0.49606313  1  0.036172  0.000204  0.090326  0.135233  7.5e-05  1.000328  0.0
H  H82  1  0.71746906  0.91548755  0.42918178  1  0.041886  -3.9e-05  0.087312  0.126684  -0.000102  1.017922  0.0
H  H83  1  0.28800952  0.08445604  0.57071416  1  0.041084  -4.3e-05  0.087196  0.126383  -0.000103  1.018043  0.0
H  H84  1  0.27713013  0.31713279  0.11500415  1  0.048395  6e-06  0.097841  0.097086  5e-06  0.998614  0.0
H  H85  1  0.16225140  0.68296192  0.88577946  1  0.047692  6e-06  0.097794  0.096747  5e-06  0.998627  0.0
H  H86  1  0.19955640  0.37619729  0.24094806  1  0.069507  2e-06  0.101733  0.101721  -1.4e-05  1.007638  0.0
H  H87  1  0.95889079  0.62380628  0.75966158  1  0.066956  2e-06  0.101789  0.102121  -1.4e-05  1.006536  0.0
H  H88  1  0.97117238  0.35425773  0.21503482  1  0.075091  0.000193  0.102128  0.11092  0.000101  1.004328  0.0
H  H89  1  0.75620423  0.64583236  0.78522405  1  0.082642  0.000191  0.101944  0.11059  0.000101  1.004374  0.0
H  H90  1  0.82124106  0.27895927  0.06397035  1  0.027969  3e-06  0.09549  0.091709  -1e-06  1.021276  0.0
H  H91  1  0.75705911  0.72126458  0.93616377  1  0.022362  3e-06  0.095579  0.091728  -1e-06  1.02047  0.0
H  H92  1  0.70373743  0.21766931  0.94007692  1  0.025805  3e-06  0.093442  0.085039  1e-06  1.040331  0.0
H  H93  1  0.76320364  0.78246859  0.06008802  1  0.066026  3e-06  0.093118  0.08467  1e-06  1.040862  0.0
H  H94  1  0.56553931  0.13706554  0.78798941  1  0.035013  3e-06  0.096786  0.091111  -1e-06  1.020334  0.0
H  H95  1  0.77698134  0.86290712  0.21218150  1  0.044953  3e-06  0.09627  0.09029  -1e-06  1.021278  0.0
H  H96  1  0.65451130  0.07613503  0.66842780  1  0.060493  7.6e-05  0.101686  0.104373  2.7e-05  1.020683  0.0
H  H97  1  0.98545474  0.92388443  0.33192364  1  0.057409  7.6e-05  0.101804  0.104329  2.8e-05  1.021249  0.0
H  H98  1  0.88476679  0.10113199  0.70250600  1  0.102129  6e-05  0.102481  0.110876  -3e-06  1.013184  0.0
H  H99  1  0.18178955  0.89903168  0.29795743  1  0.114429  5.8e-05  0.102424  0.110828  -4e-06  1.01353  0.0
H  H100  1  0.09446456  0.15514359  0.80756085  1  0.0915  0.000113  0.103413  0.115762  5.3e-05  1.002882  0.0
H  H101  1  0.28648705  0.84512560  0.19309461  1  0.076573  0.000112  0.103118  0.115385  5.3e-05  1.003786  0.0
H  H102  1  0.24060933  0.23453612  0.96095898  1  0.025772  2e-06  0.095092  0.092012  0.0  1.017688  0.0
H  H103  1  0.27954261  0.76572677  0.03979200  1  0.025096  2e-06  0.095453  0.092454  0.0  1.017148  0.0
C  C104  1  0.94196183  0.53850380  0.07358013  1  1.096307  -0.000326  0.267596  0.377795  -0.000378  4.012557  0.0
C  C105  1  0.86856114  0.46140760  0.92630312  1  1.112665  -0.000323  0.267187  0.37717  -0.000377  4.013998  0.0
C  C106  1  0.73259435  0.49989140  0.99979219  1  1.096451  1.3e-05  0.261322  0.374667  -4e-05  4.020371  0.0
C  C107  1  0.04915456  0.57982740  0.15714756  1  -0.097933  -0.001296  0.014246  0.041229  -0.001517  3.959809  -0.001
C  C108  1  0.89248650  0.42012809  0.84284145  1  -0.002092  -0.001301  0.013375  0.040819  -0.001513  3.957682  -0.001
C  C109  1  0.17281963  0.57764561  0.15848113  1  -0.020931  0.002315  -0.069958  -0.138659  0.00112  3.931992  0.002
C  C110  1  0.01492238  0.42237042  0.84168130  1  -0.064186  0.002323  -0.069848  -0.138653  0.001119  3.931582  0.002
C  C111  1  0.27031962  0.62007433  0.23757443  1  0.471803  0.000161  0.051236  0.088396  -0.000469  3.921036  0.0
C  C112  1  0.03347959  0.38000898  0.76264358  1  0.512209  0.000131  0.05102  0.087274  -0.000467  3.922539  0.0
C  C113  1  0.13222306  0.66380967  0.31196893  1  0.461613  -0.000229  0.05232  0.089956  -0.000813  3.93567  0.0
C  C114  1  0.82096930  0.33631008  0.68793640  1  0.469698  -0.000276  0.051437  0.088222  -0.000813  3.936069  0.0
C  C115  1  0.02922795  0.62269793  0.23619440  1  0.087522  0.002311  -0.073614  -0.148228  0.001131  3.941773  0.002
C  C116  1  0.79360299  0.37726531  0.76368068  1  -0.00944  0.00232  -0.073751  -0.147952  0.001121  3.939698  0.002
C  C117  1  0.60230096  0.49994311  0.99980127  1  -0.021634  2e-06  0.010547  0.050076  1e-06  3.95543  0.0
C  C118  1  0.56530583  0.57220753  0.05246856  1  -0.02817  -1e-06  -0.077133  -0.151207  -1e-05  3.941267  0.0
C  C119  1  0.51267357  0.42766338  0.94720160  1  -0.04234  -1e-06  -0.077885  -0.152526  -1e-05  3.945097  0.0
C  C120  1  0.44155007  0.56901968  0.04997044  1  0.505739  1.2e-05  0.041162  0.080923  2e-06  4.002203  0.0
C  C121  1  0.39149935  0.43078447  0.94983035  1  0.52184  1.2e-05  0.041435  0.082221  2e-06  4.002629  0.0
C  C122  1  0.11868226  0.03999523  0.07311119  1  1.080136  -0.000692  0.269308  0.384092  -0.000786  4.001957  0.0
C  C123  1  0.04567454  0.95980632  0.92700981  1  1.115576  -0.000677  0.268665  0.38302  -0.000784  4.006227  0.0
C  C124  1  0.25462431  0.99999722  0.00010173  1  1.127101  1.7e-05  0.262518  0.374408  -7.5e-05  4.024298  0.0
C  C125  1  0.09256321  0.08014067  0.15587588  1  0.019013  -0.002159  0.015829  0.043315  -0.002469  3.953837  -0.001
C  C126  1  0.93678764  0.91964435  0.84420168  1  -0.017602  -0.002184  0.01503  0.042191  -0.002481  3.956335  -0.001
C  C127  1  0.96881025  0.07926956  0.15451963  1  -0.080414  0.002618  -0.067313  -0.134297  0.001241  3.925489  0.002
C  C128  1  0.81439691  0.92039035  0.84557063  1  -0.057652  0.002601  -0.0666  -0.13408  0.001242  3.925451  0.002
C  C129  1  0.94882524  0.11588614  0.23468967  1  0.542067  -0.000652  0.053261  0.089424  -0.001171  3.921455  0.0
C  C130  1  0.71419417  0.88398562  0.76528529  1  0.488722  -0.000621  0.053805  0.091091  -0.001176  3.922347  0.0
C  C131  1  0.16229421  0.15207072  0.31512224  1  0.542326  -0.00097  0.052382  0.088792  -0.001485  3.917622  0.0
C  C132  1  0.84717762  0.84799054  0.68483859  1  0.495094  -0.000951  0.051731  0.088181  -0.001498  3.916152  0.0
C  C133  1  0.19062212  0.11769470  0.23795865  1  -0.0307  0.002473  -0.073868  -0.147552  0.001179  3.953701  0.002
C  C134  1  0.95269094  0.88232666  0.76203904  1  -0.035951  0.002463  -0.073323  -0.146655  0.001183  3.952925  0.002
C  C135  1  0.38502052  0.00008988  0.00009203  1  -0.077254  -7e-06  0.014019  0.051925  -7e-06  3.953352  0.0
C  C136  1  0.55100691  0.92525822  0.96049806  1  0.487805  1.4e-05  0.042477  0.081254  2e-06  4.002352  0.0
C  C137  1  0.59061640  0.07488730  0.03959346  1  0.520381  1.4e-05  0.043375  0.083601  2e-06  4.000184  0.0
C  C138  1  0.42729950  0.92190145  0.95810408  1  -0.003923  2e-05  -0.076505  -0.154241  4e-06  3.941163  0.0
C  C139  1  0.46932408  0.07827983  0.04203063  1  -0.012581  2e-05  -0.076499  -0.154649  4e-06  3.941423  0.0
C  C140  1  0.34983298  0.37040709  0.60710234  1  0.055522  0.009586  -0.012293  0.018565  0.005234  3.733371  0.008
C  C141  1  0.74219122  0.62952532  0.39266172  1  0.037414  0.009602  -0.012061  0.017011  0.005231  3.736627  0.008
C  C142  1  0.38863462  0.43011453  0.70382535  1  0.008427  0.002362  -0.169704  -0.19432  0.001376  3.886667  0.002
C  C143  1  0.68404481  0.56984399  0.29592122  1  -0.029737  0.002365  -0.169469  -0.19387  0.001376  3.885806  0.002
C  C144  1  0.46777012  0.51727018  0.70156361  1  -0.031635  0.001317  -0.164907  -0.154013  0.000709  3.888884  0.001
C  C145  1  0.76532389  0.48257139  0.29815507  1  -0.031109  0.001302  -0.165062  -0.155042  0.0007  3.888599  0.001
C  C146  1  0.46425551  0.50893920  0.60067516  1  -0.001689  0.009268  -0.083393  -0.165762  0.005096  3.80634  0.007
C  C147  1  0.86300800  0.49097482  0.39898513  1  -0.00119  0.00926  -0.082985  -0.16337  0.005092  3.801191  0.007
C  C148  1  0.34362135  0.44685975  0.54037044  1  0.062642  0.001698  -0.005726  0.206773  0.000883  3.693108  0.001
C  C149  1  0.80285711  0.55310547  0.45936010  1  0.059326  0.001713  -0.006264  0.205441  0.00089  3.693904  0.001
C  C150  1  0.22221301  0.31657713  0.57563249  1  1.507527  -0.009515  0.223474  0.574052  -0.013656  4.073085  -0.009
C  C151  1  0.64622388  0.68339444  0.42423806  1  1.536523  -0.009565  0.223337  0.575915  -0.013625  4.072276  -0.009
C  C152  1  0.44842489  0.29703006  0.60741677  1  -0.082412  2e-05  -0.243332  -0.399154  -0.000194  3.902485  0.0
C  C153  1  0.84032317  0.70294449  0.39229716  1  -0.030705  1.6e-05  -0.243275  -0.397361  -0.000198  3.902772  0.0
C  C154  1  0.48052655  0.60187058  0.56788392  1  1.536202  -0.009168  0.21734  0.592004  -0.012883  4.106068  -0.009
C  C155  1  0.91238893  0.39810885  0.43187277  1  1.524585  -0.009164  0.217798  0.593573  -0.012953  4.105077  -0.009
C  C156  1  0.34551551  0.40648763  0.44520600  1  -0.130408  0.00069  -0.254098  -0.429829  0.000451  3.902004  0.0
C  C157  1  0.90009399  0.59345945  0.55449868  1  -0.088736  0.000686  -0.253341  -0.426998  0.000454  3.902896  0.0
C  C158  1  0.22280016  0.50153580  0.52628816  1  -0.109312  0.000285  -0.25402  -0.426624  3e-05  3.867261  0.0
C  C159  1  0.69617711  0.49846734  0.47352760  1  -0.1182  0.000286  -0.252675  -0.424299  3e-05  3.866307  0.0
C  C160  1  0.61492656  0.14264085  0.36971128  1  0.037233  0.009851  -0.006616  0.022988  0.005298  3.67529  0.008
C  C161  1  0.24494880  0.85728730  0.63012630  1  0.029987  0.009867  -0.006852  0.024426  0.005298  3.675292  0.008
C  C162  1  0.53241968  0.18146343  0.42472189  1  -0.02688  0.00202  -0.169476  -0.196457  0.001184  3.910674  0.001
C  C163  1  0.10733038  0.81854401  0.57522668  1  -0.05399  0.002037  -0.168792  -0.195937  0.001185  3.913891  0.001
C  C164  1  0.50485937  0.09995427  0.46994079  1  -0.043413  0.001139  -0.169451  -0.170176  0.000661  3.946341  0.001
C  C165  1  0.03457412  0.90009676  0.53003685  1  -0.005033  0.00115  -0.169843  -0.1713  0.000668  3.947438  0.001
C  C166  1  0.49340248  0.01439584  0.39792780  1  -0.014848  0.009085  -0.087098  -0.163754  0.004899  3.821781  0.007
C  C167  1  0.09528810  0.98563586  0.60205880  1  0.014305  0.009069  -0.086887  -0.162627  0.004906  3.820889  0.007
C  C168  1  0.60598697  0.02933031  0.36519996  1  0.046759  -0.001964  0.000377  0.204087  -0.002371  3.648258  -0.002
C  C169  1  0.24061844  0.97060729  0.63474047  1  0.050731  -0.001963  0.000259  0.202372  -0.00236  3.647885  -0.002
C  C170  1  0.75307814  0.17758334  0.42010996  1  1.547679  -0.010336  0.222273  0.576284  -0.014479  4.068771  -0.01
C  C171  1  0.33261066  0.82232030  0.57967520  1  1.53233  -0.010484  0.222681  0.575904  -0.014534  4.070397  -0.01
C  C172  1  0.56737916  0.17727570  0.27385514  1  -0.047742  0.001166  -0.245832  -0.399111  0.00068  3.94087  0.001
C  C173  1  0.29340149  0.82265106  0.72595368  1  -0.048709  0.001163  -0.246422  -0.400394  0.000677  3.942224  0.001
C  C174  1  0.48977077  0.92098135  0.43328949  1  1.532378  -0.010216  0.218172  0.600128  -0.014119  4.094974  -0.01
C  C175  1  0.05642902  0.07905752  0.56664291  1  1.522353  -0.010095  0.217928  0.599858  -0.014051  4.095844  -0.01
C  C176  1  0.57801984  0.97622073  0.26773761  1  -0.06382  0.000208  -0.248105  -0.417148  0.000115  3.916222  0.0
C  C177  1  0.31033115  0.02375294  0.73216728  1  -0.047075  0.000209  -0.24733  -0.416272  0.000117  3.917026  0.0
C  C178  1  0.72822118  0.99213225  0.43121529  1  -0.110093  0.000796  -0.254431  -0.435885  0.000228  3.895814  0.001
C  C179  1  0.29670506  0.00779729  0.56866775  1  -0.116289  0.000791  -0.253883  -0.433527  0.000226  3.894179  0.001
C  C180  1  0.17708429  0.30865523  0.10412311  1  -0.117697  2.5e-05  -0.090918  -0.127603  9e-06  3.978236  0.0
C  C181  1  0.07301288  0.69143338  0.89654575  1  -0.100312  2.4e-05  -0.091565  -0.127697  9e-06  3.980067  0.0
C  C182  1  0.13405103  0.34167848  0.17407876  1  0.007429  -0.000109  -0.093843  -0.079588  -0.000144  4.02089  0.0
C  C183  1  0.96010583  0.65832873  0.82649932  1  0.000208  -0.000109  -0.093595  -0.080007  -0.000143  4.022697  0.0
C  C184  1  0.00472136  0.33033324  0.15904030  1  -0.060743  6.5e-05  -0.094392  -0.080268  -3.4e-05  4.000176  0.0
C  C185  1  0.84568403  0.66977368  0.84131983  1  -0.06769  6.4e-05  -0.093828  -0.079713  -3.5e-05  3.999706  0.0
C  C186  1  0.92090735  0.28696029  0.07399980  1  -0.035238  1.7e-05  -0.097172  -0.13325  -3e-06  3.997638  0.0
C  C187  1  0.84677031  0.71314672  0.92630285  1  0.020606  1.7e-05  -0.09697  -0.132753  -3e-06  3.997641  0.0
C  C188  1  0.96180484  0.25187134  0.00105379  1  0.024282  1e-05  -0.008774  0.023187  -6e-06  3.941425  0.0
C  C189  1  0.96051372  0.74822814  0.99934729  1  -0.060216  1e-05  -0.008875  0.023456  -6e-06  3.941354  0.0
C  C190  1  0.87663705  0.20488855  0.91158534  1  -0.043265  -7e-06  -0.006738  0.028925  -9e-06  3.943409  0.0
C  C191  1  0.96466363  0.79526465  0.08873657  1  -0.040563  -7e-06  -0.007083  0.028824  -8e-06  3.942893  0.0
C  C192  1  0.74502836  0.19212708  0.88904252  1  -0.054454  4.5e-05  -0.094884  -0.131928  2.7e-05  4.00545  0.0
C  C193  1  0.85554973  0.80794820  0.11124249  1  -0.071332  4.4e-05  -0.094477  -0.132372  2.7e-05  4.006844  0.0
C  C194  1  0.66653819  0.14699891  0.80304216  1  0.000506  -4e-06  -0.095664  -0.086064  -1.2e-05  4.037599  0.0
C  C195  1  0.86302220  0.85302156  0.19725585  1  -0.026844  -4e-06  -0.095763  -0.085539  -1.1e-05  4.037621  0.0
C  C196  1  0.71645422  0.11310460  0.73532420  1  -0.03099  7.9e-05  -0.09416  -0.08475  4e-06  4.016199  0.0
C  C197  1  0.98062637  0.88696369  0.26507029  1  -0.003997  7.9e-05  -0.093229  -0.083173  4e-06  4.014203  0.0
C  C198  1  0.84459496  0.12534344  0.75469894  1  -0.059589  -3e-05  -0.087945  -0.123054  -0.00012  3.960933  0.0
C  C199  1  0.08941014  0.87479580  0.24574600  1  -0.071485  -3.1e-05  -0.088147  -0.123735  -0.000121  3.96068  0.0
C  C200  1  0.92672178  0.17039307  0.84239556  1  0.002941  5e-06  -0.011859  0.067331  -2.9e-05  3.997512  0.0
C  C201  1  0.08388083  0.82981280  0.15803481  1  -0.055566  4e-06  -0.011786  0.067604  -2.9e-05  3.996291  0.0
C  C202  1  0.05961242  0.18172519  0.86217586  1  -0.025054  -0.00014  -0.093142  -0.127455  -0.000216  3.994843  0.0
C  C203  1  0.19707518  0.81849825  0.13837705  1  -0.006748  -0.00014  -0.092697  -0.126706  -0.000217  3.993594  0.0
C  C204  1  0.13941553  0.22589568  0.94623217  1  -0.087466  8.1e-05  -0.100056  -0.143582  3.3e-05  4.033003  0.0
C  C205  1  0.19298234  0.77428765  0.05439300  1  -0.067428  8.1e-05  -0.100696  -0.144796  3.3e-05  4.032335  0.0
C  C206  1  0.09356186  0.26263681  0.01734962  1  -0.031641  -8.7e-05  -0.013239  0.070426  -9.9e-05  4.008763  0.0
C  C207  1  0.07606289  0.73749564  0.98322109  1  -0.002178  -8.8e-05  -0.012962  0.070668  -0.0001  4.009327  0.0
N  N208  1  0.82504712  0.54251703  0.07629954  1  -1.178832  -0.000651  -0.300501  -0.402638  -0.000712  3.212921  0.0
N  N209  1  0.74877949  0.45729896  0.92337334  1  -1.183883  -0.000653  -0.299338  -0.402199  -0.000714  3.211401  0.0
N  N210  1  0.96794563  0.49998264  0.99999444  1  -1.20732  -0.000584  -0.287542  -0.37423  -0.000618  3.233791  0.0
N  N211  1  0.25077160  0.66335970  0.31263963  1  -1.205433  0.044587  -0.310117  -0.19309  0.025476  3.46011  0.034
N  N212  1  0.93892536  0.33679691  0.68744477  1  -1.21035  0.044392  -0.309485  -0.190673  0.025377  3.460295  0.034
N  N213  1  0.35475434  0.49988565  0.99990913  1  -1.188065  2.5e-05  -0.318808  -0.261233  7e-06  3.307385  0.0
N  N214  1  0.23833815  0.04474763  0.07572014  1  -1.186535  -0.001237  -0.301787  -0.407695  -0.001313  3.211549  -0.001
N  N215  1  0.16276186  0.95512485  0.92447807  1  -1.19345  -0.001238  -0.301832  -0.407796  -0.001315  3.213679  -0.001
N  N216  1  0.01994351  0.99990573  0.00003722  1  -1.206881  -0.00089  -0.288501  -0.373965  -0.000901  3.23704  -0.001
N  N217  1  0.04339772  0.15176948  0.31360859  1  -1.224078  0.045746  -0.310992  -0.189103  0.026199  3.472183  0.035
N  N218  1  0.72977024  0.84821723  0.68632029  1  -1.233654  0.045757  -0.310961  -0.188738  0.026174  3.471203  0.035
N  N219  1  0.63255052  0.00006609  0.00001786  1  -1.189357  2.5e-05  -0.315118  -0.254473  8e-06  3.309427  0.0
O  O220  1  0.18504056  0.26564021  0.49594767  1  -1.1531  0.086065  -0.303629  -0.527211  0.044679  2.4237  0.077
O  O221  1  0.68886411  0.73415597  0.50399515  1  -1.152215  0.086023  -0.30362  -0.527205  0.044717  2.423824  0.077
O  O222  1  0.15643447  0.32396419  0.62666725  1  -1.118213  0.091923  -0.297234  -0.511713  0.047461  2.380062  0.083
O  O223  1  0.52936960  0.67618737  0.37313898  1  -1.146989  0.091909  -0.297169  -0.512775  0.04751  2.379388  0.083
O  O224  1  0.40647106  0.61649436  0.48728772  1  -1.141688  0.077446  -0.298858  -0.521466  0.039762  2.458458  0.072
O  O225  1  0.91898706  0.38350075  0.51247728  1  -1.137207  0.077563  -0.299238  -0.522769  0.039817  2.459851  0.072
O  O226  1  0.57025503  0.66035703  0.62085523  1  -1.142555  0.093552  -0.309911  -0.520786  0.048702  2.294484  0.082
O  O227  1  0.94934049  0.33966382  0.37900688  1  -1.136287  0.093453  -0.309686  -0.521462  0.048694  2.294573  0.082
O  O228  1  0.82328771  0.17064304  0.37200026  1  -1.152517  0.090781  -0.30205  -0.512744  0.047271  2.411656  0.081
O  O229  1  0.45099341  0.82926839  0.62774895  1  -1.130972  0.090877  -0.302506  -0.513277  0.047262  2.413986  0.081
O  O230  1  0.79372204  0.21045337  0.50629597  1  -1.147484  0.086176  -0.298697  -0.518031  0.04461  2.368724  0.078
O  O231  1  0.28695838  0.78951329  0.49348258  1  -1.146863  0.086272  -0.298689  -0.517366  0.044722  2.368574  0.078
O  O232  1  0.41293660  0.85510445  0.37770979  1  -1.139212  0.09267  -0.310745  -0.528605  0.048812  2.346768  0.08
O  O233  1  0.03545318  0.14506130  0.62221682  1  -1.141618  0.092595  -0.311161  -0.529119  0.048843  2.348393  0.08
O  O234  1  0.56248796  0.91167499  0.51589126  1  -1.141115  0.083174  -0.298635  -0.527328  0.0425  2.374131  0.077
O  O235  1  0.04619524  0.08823483  0.48395362  1  -1.131264  0.083231  -0.298151  -0.527213  0.042523  2.374219  0.077
