# generated using pymatgen
data_CuH14C6(NCl)2
_symmetry_space_group_name_H-M   'P 1'
_cell_length_a   5.69283742
_cell_length_b   6.62464722
_cell_length_c   24.65691792
_cell_angle_alpha   90.00065949
_cell_angle_beta   90.00044877
_cell_angle_gamma   89.99921453
_symmetry_Int_Tables_number   1
_chemical_formula_structural   CuH14C6(NCl)2
_chemical_formula_sum   'Cu4 H56 C24 N8 Cl8'
_cell_volume   929.88732192
_cell_formula_units_Z   4
loop_
 _symmetry_equiv_pos_site_id
 _symmetry_equiv_pos_as_xyz
  1  'x, y, z'
loop_
 _atom_site_type_symbol
 _atom_site_label
 _atom_site_symmetry_multiplicity
 _atom_site_fract_x
 _atom_site_fract_y
 _atom_site_fract_z
 _atom_site_occupancy
 _atom_site_pbe_cm5_charge
 _atom_site_pbe_ddec_charge
 _atom_site_pbe_ddec_spin_density
 _atom_site_pbe_ddec_sum_bond_order
 _atom_site_pbe_magmom
Cu  Cu0  1  0.25664589  0.40133909  0.98749776  1  0.554782  0.68534  0.679801  2.353498  0.517
Cu  Cu1  1  0.24335447  0.59867183  0.48749680  1  0.554781  0.685284  0.679805  2.353629  0.517
Cu  Cu2  1  0.74336140  0.90133167  0.51250451  1  0.554776  0.685283  0.679798  2.353609  0.517
Cu  Cu3  1  0.75665019  0.09866083  0.01250283  1  0.554817  0.685341  0.679808  2.353539  0.517
H  H4  1  0.51834446  0.45193719  0.87767211  1  0.104174  0.069608  0.000194  0.964525  0.0
H  H5  1  0.98165978  0.54806485  0.37767103  1  0.104192  0.069582  0.000195  0.964556  0.0
H  H6  1  0.48164795  0.95193594  0.62232788  1  0.104175  0.069564  0.000193  0.964538  0.0
H  H7  1  0.01833693  0.04806242  0.12232722  1  0.104204  0.069598  0.000194  0.964592  0.0
H  H8  1  0.10977876  0.27895531  0.81134809  1  0.090157  0.086174  -5.7e-05  0.997832  0.0
H  H9  1  0.39022637  0.72103149  0.31134778  1  0.090166  0.086152  -5.6e-05  0.997897  0.0
H  H10  1  0.89021122  0.77895072  0.68865218  1  0.090069  0.086032  -5.7e-05  0.997771  0.0
H  H11  1  0.60977628  0.22104628  0.18865142  1  0.090148  0.086142  -5.6e-05  0.997818  0.0
H  H12  1  0.40834394  0.20611342  0.80739480  1  0.091807  0.09201  7.4e-05  1.00763  0.0
H  H13  1  0.09166808  0.79388680  0.30739619  1  0.091803  0.091956  7.5e-05  1.007724  0.0
H  H14  1  0.59164197  0.70610636  0.69260200  1  0.091785  0.091983  7.4e-05  1.007598  0.0
H  H15  1  0.90834391  0.29389081  0.19260283  1  0.091795  0.091999  7.4e-05  1.007643  0.0
H  H16  1  0.51958740  0.54932585  0.77533952  1  0.086351  0.074163  -6.3e-05  1.007114  0.0
H  H17  1  0.98041173  0.45066730  0.27534057  1  0.086337  0.074163  -6.3e-05  1.007195  0.0
H  H18  1  0.48039231  0.04933610  0.72465436  1  0.086397  0.074183  -6.3e-05  1.006976  0.0
H  H19  1  0.01959768  0.95067719  0.22465731  1  0.086374  0.074201  -6.3e-05  1.007034  0.0
H  H20  1  0.30175415  0.44798039  0.73214155  1  0.088614  0.083605  0.000777  0.994745  0.001
H  H21  1  0.19823081  0.55201208  0.23213954  1  0.088603  0.08364  0.000777  0.994703  0.001
H  H22  1  0.69819440  0.94798288  0.76785925  1  0.088599  0.083597  0.000777  0.994707  0.001
H  H23  1  0.80177989  0.05202806  0.26785831  1  0.088597  0.083618  0.000777  0.994812  0.001
H  H24  1  0.99295877  0.64357888  0.78230084  1  0.08568  0.074883  3.3e-05  0.99951  0.0
H  H25  1  0.50703532  0.35642060  0.28230071  1  0.085682  0.074858  3.3e-05  0.999536  0.0
H  H26  1  0.00702290  0.14356556  0.71770226  1  0.08567  0.07485  3.3e-05  0.999537  0.0
H  H27  1  0.49297389  0.85643083  0.21769850  1  0.085693  0.074914  3.3e-05  0.999506  0.0
H  H28  1  0.20957260  0.80727603  0.75601646  1  0.086782  0.077774  0.000517  1.011593  0.001
H  H29  1  0.29042896  0.19272199  0.25601432  1  0.08675  0.077721  0.000518  1.011602  0.001
H  H30  1  0.79041341  0.30725791  0.74398715  1  0.086771  0.077758  0.000517  1.011686  0.001
H  H31  1  0.70958294  0.69273390  0.24398519  1  0.086743  0.077686  0.000517  1.01163  0.001
H  H32  1  0.40700801  0.82325505  0.84656894  1  0.082017  0.085082  0.000731  1.014243  0.0
H  H33  1  0.09297895  0.17675137  0.34656395  1  0.082075  0.085084  0.000732  1.014149  0.0
H  H34  1  0.59297949  0.32326400  0.65343714  1  0.082058  0.085079  0.000731  1.014111  0.0
H  H35  1  0.90702267  0.67674659  0.15343267  1  0.082066  0.085082  0.000732  1.01422  0.0
H  H36  1  0.10717110  0.89402141  0.85240081  1  0.081778  0.089497  0.00084  1.023351  0.0
H  H37  1  0.39280727  0.10597771  0.35239697  1  0.081807  0.08961  0.00084  1.023467  0.0
H  H38  1  0.89281348  0.39401461  0.64760631  1  0.081786  0.08954  0.00084  1.023418  0.0
H  H39  1  0.60719376  0.60598818  0.14760106  1  0.081764  0.089468  0.00084  1.023548  0.0
H  H40  1  0.99877372  0.55815914  0.88511810  1  0.099625  0.064188  0.000588  0.975468  0.0
H  H41  1  0.50123252  0.44183568  0.38511741  1  0.099605  0.064138  0.000589  0.975403  0.0
H  H42  1  0.00121287  0.05815809  0.61488676  1  0.099612  0.064122  0.000588  0.975534  0.0
H  H43  1  0.49877879  0.94183391  0.11488206  1  0.099635  0.064174  0.000588  0.975517  0.0
H  H44  1  0.40872560  0.15385185  0.91736507  1  0.268149  0.27343  0.000121  1.003735  0.0
H  H45  1  0.09128827  0.84614702  0.41736459  1  0.268186  0.273457  0.000121  1.00367  0.0
H  H46  1  0.59126995  0.65384916  0.58263278  1  0.268069  0.273336  0.00012  1.003485  0.0
H  H47  1  0.90873515  0.34615086  0.08263459  1  0.268072  0.273371  0.000119  1.003397  0.0
H  H48  1  0.11999215  0.19191723  0.90900737  1  0.280816  0.274933  4.5e-05  0.971204  0.0
H  H49  1  0.38001969  0.80808431  0.40900691  1  0.280854  0.274941  4.6e-05  0.971203  0.0
H  H50  1  0.87999750  0.69192670  0.59099466  1  0.280883  0.274928  4.7e-05  0.97146  0.0
H  H51  1  0.62000437  0.30808274  0.09099053  1  0.280898  0.274966  4.8e-05  0.971394  0.0
H  H52  1  0.11543693  0.75785783  0.95606157  1  0.272832  0.283173  0.000419  0.977102  0.0
H  H53  1  0.38456767  0.24215175  0.45606138  1  0.272812  0.283136  0.000419  0.976956  0.0
H  H54  1  0.88458150  0.25785123  0.54394228  1  0.272791  0.28321  0.000418  0.976797  0.0
H  H55  1  0.61543288  0.74214110  0.04393625  1  0.272766  0.283065  0.000419  0.977017  0.0
H  H56  1  0.40013679  0.73330822  0.94370137  1  0.269784  0.278022  0.000592  0.983323  0.0
H  H57  1  0.09987092  0.26669781  0.44370073  1  0.269794  0.278017  0.000592  0.983256  0.0
H  H58  1  0.59988907  0.23331144  0.55629794  1  0.269854  0.278098  0.000592  0.983314  0.0
H  H59  1  0.90012922  0.76669501  0.05629820  1  0.269814  0.277965  0.000593  0.983421  0.0
C  C60  1  0.33146776  0.41245227  0.87251835  1  -0.004522  0.132017  0.001546  3.817004  0.0
C  C61  1  0.16853761  0.58755676  0.37251924  1  -0.004509  0.132102  0.001546  3.816891  0.0
C  C62  1  0.66851124  0.91244609  0.62747828  1  -0.004384  0.132366  0.001545  3.8165  0.0
C  C63  1  0.83147953  0.08754981  0.12747873  1  -0.004412  0.132241  0.001546  3.816774  0.0
C  C64  1  0.29155414  0.33519433  0.81493922  1  -0.166226  -0.204933  0.004862  3.922425  0.005
C  C65  1  0.20845637  0.66480319  0.31494002  1  -0.16623  -0.204854  0.004862  3.922406  0.005
C  C66  1  0.70842613  0.83519769  0.68506041  1  -0.166255  -0.204997  0.004862  3.922255  0.005
C  C67  1  0.79155774  0.16480821  0.18505819  1  -0.166261  -0.204977  0.004863  3.922353  0.005
C  C68  1  0.33340291  0.50348745  0.77358845  1  -0.165782  -0.146571  0.001723  3.959183  0.002
C  C69  1  0.16658692  0.49650076  0.27358784  1  -0.16582  -0.146695  0.001723  3.959194  0.002
C  C70  1  0.66657404  0.00349415  0.72641056  1  -0.165824  -0.146644  0.001723  3.959237  0.002
C  C71  1  0.83342349  0.99651805  0.22641100  1  -0.165829  -0.146733  0.001724  3.959072  0.002
C  C72  1  0.17947485  0.68702289  0.78601715  1  -0.165043  -0.137522  0.001305  3.944504  0.002
C  C73  1  0.32053120  0.31297339  0.28601585  1  -0.164974  -0.137344  0.001305  3.944447  0.002
C  C74  1  0.82051313  0.18701372  0.71398851  1  -0.165036  -0.137375  0.001305  3.944618  0.002
C  C75  1  0.67948223  0.81298285  0.21398241  1  -0.165008  -0.137399  0.001305  3.944433  0.002
C  C76  1  0.22508156  0.76703416  0.84333349  1  -0.172389  -0.208494  0.005348  3.906731  0.005
C  C77  1  0.27491759  0.23295703  0.34333063  1  -0.172509  -0.208711  0.005349  3.906841  0.005
C  C78  1  0.77490686  0.26703966  0.65667161  1  -0.172388  -0.208555  0.005349  3.906587  0.005
C  C79  1  0.72509014  0.73296503  0.15666657  1  -0.17242  -0.208473  0.005347  3.906792  0.005
C  C80  1  0.18607847  0.60042414  0.88529748  1  -0.00674  0.131768  0.001997  3.805303  0.001
C  C81  1  0.31391503  0.39958091  0.38529481  1  -0.00671  0.131787  0.001997  3.805194  0.001
C  C82  1  0.81390743  0.10042288  0.61470751  1  -0.006802  0.131615  0.001996  3.805455  0.001
C  C83  1  0.68607766  0.89957398  0.11470250  1  -0.006752  0.131781  0.001997  3.805144  0.001
N  N84  1  0.27925144  0.26190658  0.91468636  1  -0.641113  -0.558689  0.085046  3.445301  0.104
N  N85  1  0.22075883  0.73810425  0.41468741  1  -0.641213  -0.558734  0.085031  3.44533  0.104
N  N86  1  0.72077571  0.76190404  0.58531102  1  -0.641174  -0.55862  0.085039  3.445354  0.104
N  N87  1  0.77922422  0.23809156  0.08531306  1  -0.641189  -0.558774  0.085043  3.445486  0.104
N  N88  1  0.24071950  0.65977612  0.94181928  1  -0.637808  -0.568078  0.074214  3.38681  0.09
N  N89  1  0.25928639  0.34022833  0.44181674  1  -0.637759  -0.567997  0.074216  3.386761  0.09
N  N90  1  0.75927069  0.15977609  0.55818792  1  -0.637706  -0.568007  0.074222  3.386698  0.09
N  N91  1  0.74074064  0.84022893  0.05818080  1  -0.637767  -0.567887  0.074212  3.386694  0.09
Cl  Cl92  1  0.25570526  0.08253781  0.02480842  1  -0.286843  -0.530525  0.073318  1.481968  0.093
Cl  Cl93  1  0.24430804  0.91746998  0.52480974  1  -0.286818  -0.53045  0.073325  1.481952  0.093
Cl  Cl94  1  0.74431724  0.58253503  0.47519116  1  -0.286819  -0.530454  0.073324  1.48199  0.093
Cl  Cl95  1  0.75570776  0.41746514  0.97519096  1  -0.286836  -0.530494  0.073321  1.481937  0.093
Cl  Cl96  1  0.24654503  0.55261973  0.07138836  1  -0.296894  -0.500838  0.066022  1.246962  0.076
Cl  Cl97  1  0.25346453  0.44738853  0.57138621  1  -0.296895  -0.500852  0.066031  1.247003  0.076
Cl  Cl98  1  0.75346391  0.05261444  0.42861356  1  -0.296911  -0.50088  0.066017  1.246981  0.076
Cl  Cl99  1  0.74653673  0.94738223  0.92861134  1  -0.296904  -0.500889  0.066025  1.247013  0.076
