# generated using pymatgen
data_ZnH10C12Br2(NO)2
_symmetry_space_group_name_H-M   'P 1'
_cell_length_a   9.22826780
_cell_length_b   11.25510952
_cell_length_c   16.02300310
_cell_angle_alpha   69.92053161
_cell_angle_beta   73.27270648
_cell_angle_gamma   65.80655114
_symmetry_Int_Tables_number   1
_chemical_formula_structural   ZnH10C12Br2(NO)2
_chemical_formula_sum   'Zn4 H40 C48 Br8 N8 O8'
_cell_volume   1404.60686830
_cell_formula_units_Z   4
loop_
 _symmetry_equiv_pos_site_id
 _symmetry_equiv_pos_as_xyz
  1  'x, y, z'
loop_
 _atom_site_type_symbol
 _atom_site_label
 _atom_site_symmetry_multiplicity
 _atom_site_fract_x
 _atom_site_fract_y
 _atom_site_fract_z
 _atom_site_occupancy
 _atom_site_hle17_bader_spin_density
 _atom_site_hle17_ddec_charge
 _atom_site_hle17_ddec_spin_density
 _atom_site_hle17_ddec_sum_bond_order
 _atom_site_hle17_magmom
 _atom_site_hse06_10hf_bader_spin_density
 _atom_site_hse06_10hf_ddec_charge
 _atom_site_hse06_10hf_ddec_spin_density
 _atom_site_hse06_10hf_ddec_sum_bond_order
 _atom_site_hse06_10hf_magmom
 _atom_site_hse06_bader_spin_density
 _atom_site_hse06_ddec_charge
 _atom_site_hse06_ddec_spin_density
 _atom_site_hse06_ddec_sum_bond_order
 _atom_site_hse06_magmom
 _atom_site_pbe_bader_spin_density
 _atom_site_pbe_cm5_charge
 _atom_site_pbe_ddec_charge
 _atom_site_pbe_ddec_spin_density
 _atom_site_pbe_ddec_sum_bond_order
 _atom_site_pbe_magmom
Zn  Zn0  1  0.10308432  0.67296038  0.95901279  1  0  0.856137  0  2.059647  0  0  0.685662  0  2.547619  0  0  0.731104  0  2.496673  0  0  0.509851  0.654098  0  2.582392  0
Zn  Zn1  1  0.73510989  0.82692368  0.54087239  1  0  0.856007  0  2.060205  0  0  0.685329  0  2.54851  0  0  0.730829  0  2.497515  0  0  0.510032  0.653865  0  2.583282  0
Zn  Zn2  1  0.89692287  0.32703858  0.04098969  1  0  0.856146  0  2.059733  0  0  0.685688  0  2.547709  0  0  0.731129  0  2.49676  0  0  0.50987  0.654119  0  2.582483  0
Zn  Zn3  1  0.26488275  0.17308139  0.45912523  1  0  0.855943  0  2.060252  0  0  0.685284  0  2.54855  0  0  0.730785  0  2.497556  0  0  0.510017  0.65382  0  2.583319  0
H  H4  1  0.39024387  0.35314704  0.17003020  1  0  0.122611  0  0.930889  0  0  0.130607  0  0.997114  0  0  0.133681  0  0.994689  0  0  0.113403  0.128325  0  0.999097  0
H  H5  1  0.91373661  0.14633332  0.32977334  1  0  0.121641  0  0.932232  0  0  0.13031  0  0.997722  0  0  0.13335  0  0.995345  0  0  0.11311  0.128088  0  0.999571  0
H  H6  1  0.60974934  0.64684180  0.82997635  1  0  0.122586  0  0.930776  0  0  0.130586  0  0.99699  0  0  0.133671  0  0.994552  0  0  0.113397  0.128305  0  0.998972  0
H  H7  1  0.08626686  0.85366770  0.67022601  1  0  0.121611  0  0.932218  0  0  0.130277  0  0.997717  0  0  0.133317  0  0.995341  0  0  0.11309  0.128054  0  0.999566  0
H  H8  1  0.19299653  0.38962713  0.23765827  1  0  0.119066  0  0.960144  0  0  0.125525  0  1.034127  0  0  0.128112  0  1.032577  0  0  0.10326  0.123646  0  1.035329  0
H  H9  1  0.82058252  0.10986161  0.26214464  1  0  0.118143  0  0.959601  0  0  0.124904  0  1.033572  0  0  0.127492  0  1.03203  0  0  0.103174  0.123015  0  1.03472  0
H  H10  1  0.80699741  0.61036674  0.76234801  1  0  0.119098  0  0.960092  0  0  0.125534  0  1.034092  0  0  0.128118  0  1.032548  0  0  0.103274  0.123654  0  1.035294  0
H  H11  1  0.17942282  0.89014245  0.73785332  1  0  0.118158  0  0.959562  0  0  0.124915  0  1.033538  0  0  0.127504  0  1.032  0  0  0.103192  0.123026  0  1.034686  0
H  H12  1  0.11000069  0.57904605  0.30750451  1  0  0.116394  0  0.92377  0  0  0.124909  0  0.982717  0  0  0.12852  0  0.978343  0  0  0.133177  0.122099  0  0.986136  0
H  H13  1  0.99707579  0.92035236  0.19227960  1  0  0.117394  0  0.923361  0  0  0.126092  0  0.981919  0  0  0.129682  0  0.977555  0  0  0.133531  0.123294  0  0.985346  0
H  H14  1  0.88999685  0.42094587  0.69249816  1  0  0.116429  0  0.923737  0  0  0.124978  0  0.982643  0  0  0.128592  0  0.978274  0  0  0.13321  0.122168  0  0.986058  0
H  H15  1  0.00292801  0.07964864  0.80772056  1  0  0.117339  0  0.923389  0  0  0.126059  0  0.981925  0  0  0.129648  0  0.977562  0  0  0.133496  0.12326  0  0.985353  0
H  H16  1  0.58460973  0.36655906  0.21210517  1  0  0.100455  0  0.96565  0  0  0.102081  0  1.040825  0  0  0.105718  0  1.036949  0  0  0.115912  0.099203  0  1.043917  0
H  H17  1  0.16336424  0.13315472  0.28774780  1  0  0.098737  0  0.965216  0  0  0.100555  0  1.040353  0  0  0.104117  0  1.036569  0  0  0.115169  0.097666  0  1.04351  0
H  H18  1  0.41538859  0.63343693  0.78789433  1  0  0.100465  0  0.965659  0  0  0.102073  0  1.040833  0  0  0.105711  0  1.036954  0  0  0.115914  0.099193  0  1.043926  0
H  H19  1  0.83663943  0.86684732  0.71225075  1  0  0.098718  0  0.965334  0  0  0.100532  0  1.040472  0  0  0.104089  0  1.036691  0  0  0.115157  0.097644  0  1.043628  0
H  H20  1  0.19359572  0.67392225  0.39569407  1  0  0.133917  0  0.968711  0  0  0.138014  0  1.035228  0  0  0.142585  0  1.032706  0  0  0.111939  0.134601  0  1.037293  0
H  H21  1  0.26381594  0.82555700  0.10418233  1  0  0.133666  0  0.96753  0  0  0.137559  0  1.034458  0  0  0.142126  0  1.031911  0  0  0.11141  0.13413  0  1.036649  0
H  H22  1  0.80640278  0.32607780  0.60430288  1  0  0.133894  0  0.968736  0  0  0.137994  0  1.035233  0  0  0.142567  0  1.032709  0  0  0.111929  0.134579  0  1.037304  0
H  H23  1  0.73618755  0.17444097  0.89581877  1  0  0.133684  0  0.967514  0  0  0.137583  0  1.034434  0  0  0.142153  0  1.031885  0  0  0.111411  0.134155  0  1.036623  0
H  H24  1  0.69037687  0.44894133  0.29643692  1  0  0.119558  0  0.988489  0  0  0.126494  0  1.051734  0  0  0.130779  0  1.049132  0  0  0.099065  0.123341  0  1.053904  0
H  H25  1  0.43588624  0.05086683  0.20350948  1  0  0.120534  0  0.988477  0  0  0.127858  0  1.051262  0  0  0.132116  0  1.04869  0  0  0.099305  0.124701  0  1.053393  0
H  H26  1  0.30961955  0.55106072  0.70356095  1  0  0.119505  0  0.988477  0  0  0.126436  0  1.051729  0  0  0.130721  0  1.049127  0  0  0.099057  0.12328  0  1.053907  0
H  H27  1  0.56411843  0.94913725  0.79648685  1  0  0.120588  0  0.988467  0  0  0.127916  0  1.051244  0  0  0.132177  0  1.048664  0  0  0.099349  0.124758  0  1.053377  0
H  H28  1  0.28384436  0.73469315  0.47487768  1  0  0.117108  0  0.952108  0  0  0.125975  0  1.013549  0  0  0.129823  0  1.011722  0  0  0.105243  0.123131  0  1.015171  0
H  H29  1  0.49393582  0.76518441  0.02500570  1  0  0.116578  0  0.951374  0  0  0.12492  0  1.013588  0  0  0.128639  0  1.01189  0  0  0.104794  0.12211  0  1.015105  0
H  H30  1  0.71615553  0.26530284  0.52512137  1  0  0.117152  0  0.952112  0  0  0.125968  0  1.013601  0  0  0.129817  0  1.011775  0  0  0.105249  0.123122  0  1.015225  0
H  H31  1  0.50606983  0.23481663  0.97499257  1  0  0.116527  0  0.951479  0  0  0.124883  0  1.013689  0  0  0.128598  0  1.011991  0  0  0.104764  0.122071  0  1.015204  0
H  H32  1  0.76694529  0.55129748  0.33785577  1  0  0.11453  0  0.971243  0  0  0.124959  0  1.029782  0  0  0.128423  0  1.028128  0  0  0.100706  0.122339  0  1.031282  0
H  H33  1  0.65647578  0.94846862  0.16225316  1  0  0.114602  0  0.971923  0  0  0.124646  0  1.030887  0  0  0.128119  0  1.029234  0  0  0.100736  0.12212  0  1.03227  0
H  H34  1  0.23305496  0.44870360  0.66213995  1  0  0.114485  0  0.971362  0  0  0.124877  0  1.029937  0  0  0.128341  0  1.028288  0  0  0.100676  0.122257  0  1.031434  0
H  H35  1  0.34352430  0.05153838  0.83774950  1  0  0.114649  0  0.971811  0  0  0.124658  0  1.030832  0  0  0.128131  0  1.02918  0  0  0.100762  0.122132  0  1.032216  0
H  H36  1  0.40452784  0.83082386  0.54292347  1  0  0.09313  0  0.986358  0  0  0.097108  0  1.055314  0  0  0.100722  0  1.051931  0  0  0.107086  0.094378  0  1.057889  0
H  H37  1  0.77872005  0.66904353  0.95703464  1  0  0.09364  0  0.986675  0  0  0.096886  0  1.056053  0  0  0.100306  0  1.052923  0  0  0.107519  0.094141  0  1.05872  0
H  H38  1  0.59546257  0.16917914  0.45707762  1  0  0.093232  0  0.986346  0  0  0.097185  0  1.055327  0  0  0.100766  0  1.051983  0  0  0.107114  0.094454  0  1.057903  0
H  H39  1  0.22129141  0.33095646  0.04296636  1  0  0.09356  0  0.98671  0  0  0.09683  0  1.056066  0  0  0.10025  0  1.052935  0  0  0.107499  0.094087  0  1.058731  0
H  H40  1  0.86652015  0.64519571  0.41873698  1  0  0.088964  0  0.952129  0  0  0.09533  0  1.018652  0  0  0.098341  0  1.015347  0  0  0.115176  0.092984  0  1.021252  0
H  H41  1  0.93083339  0.85471289  0.08127726  1  0  0.08764  0  0.953075  0  0  0.093798  0  1.020161  0  0  0.096797  0  1.016855  0  0  0.113904  0.091468  0  1.022813  0
H  H42  1  0.13347459  0.35481037  0.58126023  1  0  0.088966  0  0.952099  0  0  0.09532  0  1.01864  0  0  0.098333  0  1.01533  0  0  0.115178  0.092974  0  1.021239  0
H  H43  1  0.06916923  0.14529107  0.91872690  1  0  0.087682  0  0.952989  0  0  0.093815  0  1.020118  0  0  0.096816  0  1.016809  0  0  0.113928  0.09148  0  1.022767  0
C  C44  1  0.21567037  0.55345283  0.12223778  1  0  0.674737  0  3.877145  0  0  0.629287  0  4.173789  0  0  0.662845  0  4.167608  0  0  0.201167  0.606424  0  4.176831  0
C  C45  1  0.89187825  0.94602036  0.37752466  1  0  0.674077  0  3.877368  0  0  0.627478  0  4.175784  0  0  0.661015  0  4.16964  0  0  0.200675  0.604665  0  4.178753  0
C  C46  1  0.78432803  0.44654007  0.87776572  1  0  0.674672  0  3.877306  0  0  0.629185  0  4.173996  0  0  0.662741  0  4.167821  0  0  0.201136  0.606319  0  4.177037  0
C  C47  1  0.10812176  0.05398066  0.62247475  1  0  0.673985  0  3.877425  0  0  0.627392  0  4.17584  0  0  0.660929  0  4.1697  0  0  0.20064  0.604578  0  4.17881  0
C  C48  1  0.28869600  0.43112668  0.19759480  1  0  -0.186708  0  3.591334  0  0  -0.244635  0  3.833658  0  0  -0.2469  0  3.840316  0  0  -0.060543  -0.242763  0  3.829136  0
C  C49  1  0.91775905  0.06835794  0.30217832  1  0  -0.184464  0  3.592242  0  0  -0.24279  0  3.835055  0  0  -0.245083  0  3.841874  0  0  -0.059563  -0.240965  0  3.83042  0
C  C50  1  0.71129831  0.56886321  0.80240889  1  0  -0.186575  0  3.591195  0  0  -0.244462  0  3.833522  0  0  -0.246737  0  3.840175  0  0  -0.060569  -0.242591  0  3.828994  0
C  C51  1  0.08224366  0.93164411  0.69782004  1  0  -0.184371  0  3.59213  0  0  -0.242688  0  3.83495  0  0  -0.244978  0  3.84175  0  0  -0.059505  -0.240863  0  3.830314  0
C  C52  1  0.23615307  0.55456931  0.30828896  1  0  0.120914  0  3.570541  0  0  0.07462  0  3.828427  0  0  0.085782  0  3.839592  0  0  0.070332  0.067004  0  3.821253  0
C  C53  1  0.09946635  0.94492783  0.19150537  1  0  0.118883  0  3.572153  0  0  0.072879  0  3.829913  0  0  0.084034  0  3.841149  0  0  0.069334  0.065249  0  3.82286  0
C  C54  1  0.76384467  0.44542363  0.69171292  1  0  0.120871  0  3.570588  0  0  0.074512  0  3.828514  0  0  0.085663  0  3.83969  0  0  0.070228  0.066897  0  3.821333  0
C  C55  1  0.90053930  0.05507321  0.80849290  1  0  0.118927  0  3.572165  0  0  0.072901  0  3.829956  0  0  0.084057  0  3.841192  0  0  0.069335  0.065271  0  3.822901  0
C  C56  1  0.50446011  0.43396940  0.25448595  1  0  0.103891  0  3.598606  0  0  0.063681  0  3.84694  0  0  0.072281  0  3.8612  0  0  0.064028  0.057883  0  3.838026  0
C  C57  1  0.19308531  0.06568319  0.24537557  1  0  0.108645  0  3.595079  0  0  0.06847  0  3.843741  0  0  0.077168  0  3.857943  0  0  0.067541  0.062767  0  3.834665  0
C  C58  1  0.49553782  0.56602455  0.74551513  1  0  0.103842  0  3.598732  0  0  0.063691  0  3.847002  0  0  0.072294  0  3.861256  0  0  0.063964  0.057891  0  3.83809  0
C  C59  1  0.80691551  0.93431886  0.75462242  1  0  0.108718  0  3.595095  0  0  0.068539  0  3.843767  0  0  0.077242  0  3.857972  0  0  0.06756  0.062836  0  3.834692  0
C  C60  1  0.28707088  0.60599435  0.35723032  1  0  -0.136886  0  3.648862  0  0  -0.158345  0  3.905996  0  0  -0.166629  0  3.923793  0  0  -0.071732  -0.152935  0  3.894321  0
C  C61  1  0.25080232  0.89351327  0.14265400  1  0  -0.136657  0  3.649248  0  0  -0.157642  0  3.90662  0  0  -0.165974  0  3.924469  0  0  -0.071339  -0.152516  0  3.895353  0
C  C62  1  0.71292683  0.39400163  0.64276980  1  0  -0.136866  0  3.648904  0  0  -0.158283  0  3.906037  0  0  -0.166566  0  3.923837  0  0  -0.071694  -0.152875  0  3.894356  0
C  C63  1  0.74920408  0.10648674  0.85734526  1  0  -0.136703  0  3.64932  0  0  -0.1577  0  3.906718  0  0  -0.166034  0  3.924568  0  0  -0.071366  -0.15257  0  3.895449  0
C  C64  1  0.56023319  0.48244472  0.30241014  1  0  -0.141833  0  3.692935  0  0  -0.162263  0  3.943048  0  0  -0.170187  0  3.961781  0  0  -0.075807  -0.15788  0  3.931603  0
C  C65  1  0.34528640  0.01729810  0.19748071  1  0  -0.145573  0  3.693195  0  0  -0.166408  0  3.944395  0  0  -0.174327  0  3.963006  0  0  -0.078649  -0.161593  0  3.932446  0
C  C66  1  0.43976385  0.51755734  0.69758710  1  0  -0.141716  0  3.692869  0  0  -0.162162  0  3.943013  0  0  -0.170084  0  3.961743  0  0  -0.075771  -0.15778  0  3.931563  0
C  C67  1  0.65471514  0.98270597  0.80251650  1  0  -0.145733  0  3.693231  0  0  -0.166574  0  3.944464  0  0  -0.174495  0  3.96307  0  0  -0.078747  -0.16176  0  3.932519  0
C  C68  1  0.45252898  0.57354927  0.35339683  1  0  0.1127  0  3.711791  0  0  0.120765  0  3.944639  0  0  0.128166  0  3.963254  0  0  0.022606  0.11587  0  3.932265  0
C  C69  1  0.37988698  0.92611036  0.14652982  1  0  0.115646  0  3.711336  0  0  0.123043  0  3.945589  0  0  0.130526  0  3.96398  0  0  0.025504  0.118171  0  3.933057  0
C  C70  1  0.54746744  0.42645278  0.64660104  1  0  0.112733  0  3.711809  0  0  0.120761  0  3.944711  0  0  0.128162  0  3.963322  0  0  0.022596  0.115867  0  3.932333  0
C  C71  1  0.62012037  0.07388965  0.85346962  1  0  0.115749  0  3.711374  0  0  0.123137  0  3.945635  0  0  0.13062  0  3.964029  0  0  0.025559  0.118259  0  3.933107  0
C  C72  1  0.51449821  0.63271790  0.39895869  1  0  0.09022  0  3.744408  0  0  0.103827  0  3.973874  0  0  0.106576  0  3.995699  0  0  0.014786  0.102198  0  3.959093  0
C  C73  1  0.54662108  0.86706146  0.10104400  1  0  0.087547  0  3.745213  0  0  0.101037  0  3.975412  0  0  0.103838  0  3.997041  0  0  0.011478  0.099308  0  3.960637  0
C  C74  1  0.48549958  0.36728314  0.60103953  1  0  0.090171  0  3.744514  0  0  0.10376  0  3.973996  0  0  0.106512  0  3.99582  0  0  0.014705  0.102133  0  3.959215  0
C  C75  1  0.45338798  0.13294053  0.89895710  1  0  0.08751  0  3.745224  0  0  0.101053  0  3.975379  0  0  0.103853  0  3.997007  0  0  0.011511  0.099332  0  3.960591  0
C  C76  1  0.41383750  0.71279077  0.45833482  1  0  -0.138787  0  3.661773  0  0  -0.157813  0  3.907573  0  0  -0.165205  0  3.927973  0  0  -0.077232  -0.153404  0  3.894426  0
C  C77  1  0.58545916  0.78703523  0.04162404  1  0  -0.138011  0  3.660196  0  0  -0.156424  0  3.905712  0  0  -0.163762  0  3.926131  0  0  -0.076242  -0.151682  0  3.892237  0
C  C78  1  0.58616325  0.28720622  0.54166507  1  0  -0.13881  0  3.661745  0  0  -0.157761  0  3.907519  0  0  -0.165153  0  3.927908  0  0  -0.077214  -0.153346  0  3.894366  0
C  C79  1  0.41454575  0.21296984  0.95837376  1  0  -0.138041  0  3.660315  0  0  -0.156493  0  3.905845  0  0  -0.163824  0  3.926259  0  0  -0.076273  -0.15175  0  3.892361  0
C  C80  1  0.68023125  0.61041497  0.38359016  1  0  -0.14376  0  3.684243  0  0  -0.162663  0  3.927013  0  0  -0.169924  0  3.947576  0  0  -0.08155  -0.157751  0  3.913139  0
C  C81  1  0.67464986  0.88939144  0.11647077  1  0  -0.144018  0  3.68409  0  0  -0.162286  0  3.92667  0  0  -0.169669  0  3.947375  0  0  -0.081738  -0.157716  0  3.913455  0
C  C82  1  0.31976528  0.38958304  0.61640882  1  0  -0.143726  0  3.684438  0  0  -0.162576  0  3.927171  0  0  -0.169844  0  3.947741  0  0  -0.081483  -0.157665  0  3.913297  0
C  C83  1  0.32535438  0.11061458  0.88353055  1  0  -0.144049  0  3.683996  0  0  -0.162326  0  3.926596  0  0  -0.169709  0  3.947304  0  0  -0.081804  -0.157759  0  3.913374  0
C  C84  1  0.48064184  0.76532117  0.49861918  1  0  0.129753  0  3.685836  0  0  0.09725  0  3.93799  0  0  0.104304  0  3.955646  0  0  0.043823  0.092684  0  3.926433  0
C  C85  1  0.74501613  0.73456658  0.00132732  1  0  0.130904  0  3.685281  0  0  0.099611  0  3.936825  0  0  0.106777  0  3.95448  0  0  0.045065  0.094752  0  3.925312  0
C  C86  1  0.51935337  0.23467782  0.50138169  1  0  0.129596  0  3.685896  0  0  0.097106  0  3.938081  0  0  0.104185  0  3.955746  0  0  0.043795  0.092541  0  3.926527  0
C  C87  1  0.25499335  0.26543441  0.99867396  1  0  0.131166  0  3.685419  0  0  0.099887  0  3.93694  0  0  0.107054  0  3.954598  0  0  0.045199  0.095027  0  3.925426  0
C  C88  1  0.73848884  0.66301781  0.42815303  1  0  0.141422  0  3.694123  0  0  0.107591  0  3.946996  0  0  0.115423  0  3.963977  0  0  0.048183  0.10241  0  3.93539  0
C  C89  1  0.83003596  0.83688653  0.07185390  1  0  0.145678  0  3.692849  0  0  0.111935  0  3.945217  0  0  0.119773  0  3.962361  0  0  0.051471  0.106589  0  3.934545  0
C  C90  1  0.26150546  0.33698627  0.57184350  1  0  0.141413  0  3.69426  0  0  0.107618  0  3.947104  0  0  0.115453  0  3.964085  0  0  0.048183  0.10244  0  3.935499  0
C  C91  1  0.16996978  0.16311443  0.92814888  1  0  0.145671  0  3.692855  0  0  0.111971  0  3.945231  0  0  0.119806  0  3.962379  0  0  0.05151  0.106635  0  3.934549  0
Br  Br92  1  0.08048995  0.59677814  0.84272028  1  0  -0.531864  0  1.010171  0  0  -0.47412  0  1.3184  0  0  -0.492946  0  1.295153  0  0  -0.268904  -0.459743  0  1.334704  0
Br  Br93  1  0.52049529  0.90351024  0.65716730  1  0  -0.531677  0  1.01001  0  0  -0.473956  0  1.318421  0  0  -0.492961  0  1.295208  0  0  -0.269423  -0.460269  0  1.334497  0
Br  Br94  1  0.91951168  0.40322586  0.15728144  1  0  -0.531877  0  1.010206  0  0  -0.474136  0  1.318458  0  0  -0.492961  0  1.295209  0  0  -0.268913  -0.459761  0  1.334761  0
Br  Br95  1  0.47949573  0.09648279  0.34282876  1  0  -0.531663  0  1.009997  0  0  -0.473939  0  1.318421  0  0  -0.492937  0  1.295199  0  0  -0.269409  -0.460248  0  1.334492  0
Br  Br96  1  0.25817002  0.82133849  0.90286391  1  0  -0.557411  0  0.972799  0  0  -0.499464  0  1.273533  0  0  -0.518042  0  1.248062  0  0  -0.271568  -0.485013  0  1.291052  0
Br  Br97  1  0.98250961  0.67909142  0.59713004  1  0  -0.557293  0  0.971876  0  0  -0.499206  0  1.272559  0  0  -0.517907  0  1.247071  0  0  -0.271728  -0.485067  0  1.290069  0
Br  Br98  1  0.74183005  0.17866971  0.09712669  1  0  -0.557401  0  0.97281  0  0  -0.499474  0  1.2736  0  0  -0.518052  0  1.248124  0  0  -0.27159  -0.485021  0  1.291115  0
Br  Br99  1  0.01748287  0.32091352  0.40287578  1  0  -0.557292  0  0.971941  0  0  -0.499203  0  1.272637  0  0  -0.517908  0  1.247152  0  0  -0.271722  -0.485066  0  1.290148  0
N  N100  1  0.86563066  0.75990137  0.01540735  1  0  -0.31584  0  3.321323  0  0  -0.232449  0  3.596511  0  0  -0.252228  0  3.612834  0  0  -0.329895  -0.219164  0  3.585535  0
N  N101  1  0.64066090  0.73997739  0.48460498  1  0  -0.312153  0  3.319256  0  0  -0.228252  0  3.594036  0  0  -0.248059  0  3.610561  0  0  -0.326988  -0.214893  0  3.582803  0
N  N102  1  0.13437886  0.24009958  0.98459617  1  0  -0.315982  0  3.32158  0  0  -0.232639  0  3.596805  0  0  -0.25242  0  3.613134  0  0  -0.330003  -0.219357  0  3.585834  0
N  N103  1  0.35933468  0.26002668  0.51539255  1  0  -0.312013  0  3.319225  0  0  -0.228179  0  3.594058  0  0  -0.247987  0  3.610572  0  0  -0.326957  -0.214816  0  3.582814  0
N  N104  1  0.34428160  0.47150486  0.25686665  1  0  0.020469  0  3.572907  0  0  0.116546  0  3.774583  0  0  0.103879  0  3.80023  0  0  -0.205795  0.124644  0  3.757565  0
N  N105  1  0.07293257  0.02809883  0.24290448  1  0  0.019157  0  3.576363  0  0  0.11448  0  3.779355  0  0  0.101782  0  3.804973  0  0  -0.207527  0.122413  0  3.762343  0
N  N106  1  0.65571281  0.52848704  0.74313690  1  0  0.020388  0  3.573098  0  0  0.11648  0  3.774739  0  0  0.103811  0  3.800392  0  0  -0.205683  0.12458  0  3.757715  0
N  N107  1  0.92707099  0.97190120  0.75709422  1  0  0.019132  0  3.57622  0  0  0.114461  0  3.779231  0  0  0.101765  0  3.804848  0  0  -0.207516  0.122394  0  3.762218  0
O  O108  1  0.22567591  0.52166275  0.05047689  1  0  -0.614234  0  2.086347  0  0  -0.535988  0  2.344529  0  0  -0.566464  0  2.332007  0  0  -0.325919  -0.514453  0  2.352252  0
O  O109  1  0.79789406  0.97795513  0.44913741  1  0  -0.613744  0  2.087033  0  0  -0.535044  0  2.345959  0  0  -0.56551  0  2.333401  0  0  -0.325389  -0.513586  0  2.353683  0
O  O110  1  0.77432892  0.47833726  0.94952280  1  0  -0.614175  0  2.08638  0  0  -0.535943  0  2.344629  0  0  -0.566418  0  2.332108  0  0  -0.325854  -0.514399  0  2.352346  0
O  O111  1  0.20210152  0.02204894  0.55086013  1  0  -0.613674  0  2.086982  0  0  -0.534997  0  2.345932  0  0  -0.565468  0  2.333379  0  0  -0.325391  -0.513539  0  2.353658  0
O  O112  1  0.15040998  0.66747874  0.13657165  1  0  -0.612451  0  1.952302  0  0  -0.566593  0  2.178694  0  0  -0.592337  0  2.172682  0  0  -0.3129  -0.5476  0  2.181839  0
O  O113  1  0.95541157  0.83191462  0.36333123  1  0  -0.611757  0  1.952299  0  0  -0.565683  0  2.179415  0  0  -0.591439  0  2.173456  0  0  -0.313067  -0.54679  0  2.182396  0
O  O114  1  0.84958659  0.33251109  0.86343549  1  0  -0.612527  0  1.952356  0  0  -0.566636  0  2.178746  0  0  -0.592371  0  2.17272  0  0  -0.312923  -0.547642  0  2.181891  0
O  O115  1  0.04459001  0.16808641  0.63666774  1  0  -0.611742  0  1.952313  0  0  -0.565668  0  2.179436  0  0  -0.591427  0  2.173477  0  0  -0.313067  -0.546774  0  2.182417  0
