# generated using pymatgen
data_AlAgH18C19SN3(O3F)3
_symmetry_space_group_name_H-M   'P 1'
_cell_length_a   10.26688249
_cell_length_b   12.19794533
_cell_length_c   13.42084864
_cell_angle_alpha   114.44003887
_cell_angle_beta   107.03411542
_cell_angle_gamma   93.69982457
_symmetry_Int_Tables_number   1
_chemical_formula_structural   AlAgH18C19SN3(O3F)3
_chemical_formula_sum   'Al2 Ag2 H36 C38 S2 N6 O18 F6'
_cell_volume   1429.33446688
_cell_formula_units_Z   2
loop_
 _symmetry_equiv_pos_site_id
 _symmetry_equiv_pos_as_xyz
  1  'x, y, z'
loop_
 _atom_site_type_symbol
 _atom_site_label
 _atom_site_symmetry_multiplicity
 _atom_site_fract_x
 _atom_site_fract_y
 _atom_site_fract_z
 _atom_site_occupancy
 _atom_site_hle17_bader_spin_density
 _atom_site_hle17_ddec_charge
 _atom_site_hle17_ddec_spin_density
 _atom_site_hle17_ddec_sum_bond_order
 _atom_site_hle17_magmom
 _atom_site_hse06_10hf_bader_spin_density
 _atom_site_hse06_10hf_ddec_charge
 _atom_site_hse06_10hf_ddec_spin_density
 _atom_site_hse06_10hf_ddec_sum_bond_order
 _atom_site_hse06_10hf_magmom
 _atom_site_hse06_bader_spin_density
 _atom_site_hse06_ddec_charge
 _atom_site_hse06_ddec_spin_density
 _atom_site_hse06_ddec_sum_bond_order
 _atom_site_hse06_magmom
 _atom_site_pbe_bader_spin_density
 _atom_site_pbe_cm5_charge
 _atom_site_pbe_ddec_charge
 _atom_site_pbe_ddec_spin_density
 _atom_site_pbe_ddec_sum_bond_order
 _atom_site_pbe_magmom
Al  Al0  1  0.43265702  0.66216426  0.76708512  1  0  1.676018  0  2.369283  0  0  1.517231  0  2.746927  0  0  1.557546  0  2.694663  0  0  0.394912  1.488612  0  2.783541  0
Al  Al1  1  0.56734194  0.33784160  0.23292165  1  0  1.676061  0  2.369124  0  0  1.517252  0  2.746792  0  0  1.557566  0  2.694526  0  0  0.394916  1.488621  0  2.783385  0
Ag  Ag2  1  0.07254589  0.95457339  0.36531649  1  0  0.686046  0  1.635347  0  0  0.570956  0  2.141023  0  0  0.586846  0  2.090742  0  0  0.55662  0.561114  0  2.175435  0
Ag  Ag3  1  0.92744725  0.04540752  0.63468302  1  0  0.686015  0  1.635249  0  0  0.570922  0  2.14089  0  0  0.586834  0  2.090574  0  0  0.556259  0.560543  0  2.175572  0
H  H4  1  0.97560633  0.63088053  0.51767887  1  0  0.137957  0  0.925318  0  0  0.159518  0  0.980163  0  0  0.161207  0  0.980986  0  0  0.105252  0.158362  0  0.979583  0
H  H5  1  0.02438380  0.36911336  0.48231824  1  0  0.138006  0  0.925317  0  0  0.159566  0  0.980164  0  0  0.161255  0  0.980987  0  0  0.105254  0.158394  0  0.979599  0
H  H6  1  0.98679801  0.77496468  0.63228576  1  0  0.134831  0  0.945388  0  0  0.153364  0  1.00944  0  0  0.155813  0  1.008671  0  0  0.103845  0.151653  0  1.010046  0
H  H7  1  0.01319824  0.22502926  0.36771279  1  0  0.134831  0  0.945369  0  0  0.15335  0  1.009438  0  0  0.155799  0  1.008669  0  0  0.103815  0.151603  0  1.010054  0
H  H8  1  0.98878663  0.64136503  0.65787244  1  0  0.142885  0  0.924132  0  0  0.163031  0  0.97684  0  0  0.165718  0  0.97567  0  0  0.106298  0.161067  0  0.977851  0
H  H9  1  0.01120170  0.35862978  0.34212313  1  0  0.142956  0  0.924108  0  0  0.1631  0  0.976806  0  0  0.165787  0  0.975637  0  0  0.106318  0.161126  0  0.977824  0
H  H10  1  0.57548180  0.92333454  0.65574394  1  0  0.156153  0  0.922576  0  0  0.174902  0  0.977583  0  0  0.178035  0  0.975846  0  0  0.105234  0.172727  0  0.97885  0
H  H11  1  0.42451183  0.07665667  0.34424997  1  0  0.156129  0  0.922547  0  0  0.174857  0  0.977583  0  0  0.17799  0  0.975844  0  0  0.105184  0.172659  0  0.978874  0
H  H12  1  0.41368309  0.96329889  0.60328294  1  0  0.156533  0  0.927744  0  0  0.178034  0  0.980563  0  0  0.180449  0  0.980107  0  0  0.107719  0.176284  0  0.98102  0
H  H13  1  0.58631678  0.03669703  0.39671052  1  0  0.156571  0  0.927613  0  0  0.178036  0  0.980464  0  0  0.18045  0  0.980009  0  0  0.107729  0.176285  0  0.980923  0
H  H14  1  0.45053727  0.82611678  0.51163477  1  0  0.162658  0  0.935351  0  0  0.182304  0  0.993864  0  0  0.18474  0  0.993301  0  0  0.109532  0.180514  0  0.9943  0
H  H15  1  0.54946384  0.17388392  0.48835187  1  0  0.162763  0  0.935261  0  0  0.182389  0  0.993771  0  0  0.184826  0  0.993207  0  0  0.109584  0.180604  0  0.994204  0
H  H16  1  0.32136771  0.40609188  0.89092596  1  0  0.149995  0  0.939702  0  0  0.161726  0  1.005881  0  0  0.165124  0  1.003476  0  0  0.097302  0.159311  0  1.007638  0
H  H17  1  0.67863842  0.59390950  0.10907775  1  0  0.15003  0  0.939728  0  0  0.161765  0  1.005895  0  0  0.165162  0  1.003491  0  0  0.097321  0.159345  0  1.007658  0
H  H18  1  0.37756669  0.28116031  0.79464609  1  0  0.158401  0  0.953995  0  0  0.17665  0  1.01496  0  0  0.179143  0  1.014414  0  0  0.10578  0.174888  0  1.015369  0
H  H19  1  0.62243437  0.71884107  0.20535422  1  0  0.158411  0  0.953967  0  0  0.176656  0  1.014939  0  0  0.179147  0  1.014394  0  0  0.105756  0.174863  0  1.015362  0
H  H20  1  0.20004545  0.29047045  0.75208453  1  0  0.138814  0  0.937055  0  0  0.15912  0  0.996495  0  0  0.161269  0  0.996027  0  0  0.102321  0.157638  0  0.99694  0
H  H21  1  0.79995920  0.70953360  0.24792360  1  0  0.138876  0  0.937056  0  0  0.159206  0  0.996451  0  0  0.161357  0  0.995978  0  0  0.102349  0.157688  0  0.996914  0
H  H22  1  0.26652696  0.41473656  0.39134047  1  0  0.146414  0  0.913401  0  0  0.168869  0  0.96692  0  0  0.171462  0  0.965568  0  0  0.110615  0.167027  0  0.967945  0
H  H23  1  0.73347355  0.58527125  0.60866219  1  0  0.14643  0  0.913329  0  0  0.168891  0  0.966855  0  0  0.171486  0  0.965495  0  0  0.110637  0.167051  0  0.967878  0
H  H24  1  0.27555380  0.26700312  0.38934958  1  0  0.131655  0  0.947898  0  0  0.153674  0  1.002624  0  0  0.155482  0  1.002497  0  0  0.101322  0.152345  0  1.00284  0
H  H25  1  0.72444584  0.73300553  0.61065694  1  0  0.131658  0  0.947989  0  0  0.153705  0  1.002663  0  0  0.155511  0  1.002539  0  0  0.101331  0.152382  0  1.002885  0
H  H26  1  0.42801772  0.37319817  0.42168464  1  0  0.1684  0  0.946227  0  0  0.184755  0  1.005381  0  0  0.188701  0  1.003219  0  0  0.115175  0.181906  0  1.007074  0
H  H27  1  0.57198133  0.62681233  0.57832171  1  0  0.168532  0  0.946109  0  0  0.184852  0  1.005291  0  0  0.188791  0  1.003136  0  0  0.1152  0.182009  0  1.006987  0
H  H28  1  0.85851356  0.61255937  0.84191832  1  0  0.152289  0  0.917386  0  0  0.172711  0  0.970888  0  0  0.175906  0  0.968702  0  0  0.10877  0.170352  0  0.972688  0
H  H29  1  0.14148162  0.38745130  0.15807601  1  0  0.15228  0  0.917405  0  0  0.172703  0  0.970916  0  0  0.175899  0  0.968732  0  0  0.108741  0.170335  0  0.972725  0
H  H30  1  0.89584029  0.65416379  0.99300053  1  0  0.149763  0  0.935018  0  0  0.166705  0  0.997914  0  0  0.169433  0  0.996369  0  0  0.103561  0.164712  0  0.999142  0
H  H31  1  0.10416356  0.34584048  0.00699557  1  0  0.149756  0  0.935113  0  0  0.166684  0  0.998029  0  0  0.169408  0  0.996492  0  0  0.103551  0.164685  0  0.999268  0
H  H32  1  0.93959633  0.76805924  0.95319015  1  0  0.145632  0  0.912288  0  0  0.1701  0  0.961411  0  0  0.172102  0  0.961218  0  0  0.110574  0.168621  0  0.961854  0
H  H33  1  0.06039551  0.23195042  0.04680675  1  0  0.145688  0  0.912114  0  0  0.170147  0  0.961266  0  0  0.172147  0  0.961073  0  0  0.11061  0.168666  0  0.961717  0
H  H34  1  0.45898401  0.97044381  0.09214320  1  0  0.152869  0  0.911632  0  0  0.174311  0  0.962125  0  0  0.177317  0  0.960659  0  0  0.108928  0.172162  0  0.963309  0
H  H35  1  0.54102735  0.02955846  0.90786580  1  0  0.152824  0  0.911588  0  0  0.174229  0  0.962123  0  0  0.177247  0  0.960643  0  0  0.108879  0.172068  0  0.963331  0
H  H36  1  0.64180099  0.99980831  0.17446111  1  0  0.125864  0  0.958077  0  0  0.14429  0  1.019252  0  0  0.145671  0  1.02045  0  0  0.096489  0.14342  0  1.018386  0
H  H37  1  0.35820644  0.00019933  0.82555501  1  0  0.125895  0  0.958081  0  0  0.144349  0  1.019199  0  0  0.145729  0  1.020398  0  0  0.09652  0.143444  0  1.018352  0
H  H38  1  0.52064286  0.88298058  0.16680277  1  0  0.165142  0  0.946671  0  0  0.183582  0  1.007571  0  0  0.186652  0  1.006247  0  0  0.11046  0.181229  0  1.008712  0
H  H39  1  0.47935974  0.11702800  0.83320962  1  0  0.165181  0  0.946552  0  0  0.183568  0  1.007507  0  0  0.186644  0  1.00618  0  0  0.110469  0.181206  0  1.008642  0
C  C40  1  0.02315055  0.68813897  0.61292143  1  0  -0.417203  0  3.671658  0  0  -0.493986  0  3.902126  0  0  -0.500873  0  3.906852  0  0  -0.235321  -0.489019  0  3.898597  0
C  C41  1  0.97684879  0.31185502  0.38707637  1  0  -0.417342  0  3.671462  0  0  -0.494145  0  3.901932  0  0  -0.501021  0  3.906629  0  0  -0.23542  -0.489171  0  3.898438  0
C  C42  1  0.17892727  0.71144020  0.65037407  1  0  0.539417  0  3.686238  0  0  0.516577  0  3.956612  0  0  0.544179  0  3.958144  0  0  0.169657  0.49828  0  3.954773  0
C  C43  1  0.82106412  0.28855464  0.34962222  1  0  0.539367  0  3.686181  0  0  0.516583  0  3.956465  0  0  0.544182  0  3.958  0  0  0.169701  0.49828  0  3.954641  0
C  C44  1  0.24944733  0.77762219  0.60840476  1  0  -0.356937  0  3.808553  0  0  -0.344597  0  4.061195  0  0  -0.368489  0  4.081799  0  0  -0.043822  -0.328775  0  4.047322  0
C  C45  1  0.75055830  0.22236817  0.39159310  1  0  -0.356931  0  3.808438  0  0  -0.344578  0  4.061089  0  0  -0.368456  0  4.081674  0  0  -0.043835  -0.328755  0  4.047271  0
C  C46  1  0.39832198  0.81284194  0.64731392  1  0  0.565203  0  3.667358  0  0  0.536374  0  3.946573  0  0  0.564645  0  3.94716  0  0  0.179387  0.517305  0  3.945734  0
C  C47  1  0.60168025  0.18715575  0.35268599  1  0  0.565266  0  3.666979  0  0  0.536347  0  3.946322  0  0  0.564616  0  3.946905  0  0  0.179358  0.517257  0  3.945532  0
C  C48  1  0.46441168  0.88679893  0.60358466  1  0  -0.437486  0  3.631324  0  0  -0.512187  0  3.85683  0  0  -0.520111  0  3.861063  0  0  -0.239708  -0.506457  0  3.853817  0
C  C49  1  0.53558738  0.11319790  0.39640896  1  0  -0.437631  0  3.631203  0  0  -0.512231  0  3.856765  0  0  -0.520154  0  3.860996  0  0  -0.239754  -0.5065  0  3.853787  0
C  C50  1  0.16706314  0.81573520  0.52963654  1  0  0.360187  0  3.817604  0  0  0.344052  0  4.081609  0  0  0.358414  0  4.104127  0  0  0.19852  0.334163  0  4.066832  0
C  C51  1  0.83293867  0.18424314  0.47035728  1  0  0.36024  0  3.818362  0  0  0.344094  0  4.082363  0  0  0.358444  0  4.104878  0  0  0.198517  0.334122  0  4.067652  0
C  C52  1  0.30709856  0.34603877  0.79976240  1  0  -0.439766  0  3.655744  0  0  -0.517014  0  3.887981  0  0  -0.524573  0  3.89167  0  0  -0.244201  -0.511532  0  3.885258  0
C  C53  1  0.69290560  0.65396267  0.20023641  1  0  -0.439847  0  3.65569  0  0  -0.517112  0  3.887941  0  0  -0.524666  0  3.891631  0  0  -0.24429  -0.51165  0  3.88527  0
C  C54  1  0.34015306  0.42129920  0.74323669  1  0  0.57765  0  3.640915  0  0  0.551282  0  3.913082  0  0  0.579983  0  3.912596  0  0  0.184293  0.532026  0  3.912938  0
C  C55  1  0.65983804  0.57869848  0.25675615  1  0  0.577719  0  3.640907  0  0  0.551332  0  3.913108  0  0  0.580027  0  3.912641  0  0  0.18427  0.532019  0  3.912999  0
C  C56  1  0.31842996  0.36241980  0.62067705  1  0  -0.3523  0  3.803433  0  0  -0.338663  0  4.05468  0  0  -0.362715  0  4.075431  0  0  -0.039972  -0.322674  0  4.040583  0
C  C57  1  0.68155503  0.63758240  0.37931761  1  0  -0.352333  0  3.803195  0  0  -0.338709  0  4.0545  0  0  -0.362767  0  4.075266  0  0  -0.039884  -0.322674  0  4.040444  0
C  C58  1  0.35102099  0.42697840  0.56082111  1  0  0.550192  0  3.679605  0  0  0.52488  0  3.950462  0  0  0.552492  0  3.952732  0  0  0.173227  0.506307  0  3.94834  0
C  C59  1  0.64896883  0.57302287  0.43917729  1  0  0.550337  0  3.67982  0  0  0.524989  0  3.950738  0  0  0.552596  0  3.953011  0  0  0.173249  0.506417  0  3.948632  0
C  C60  1  0.32695052  0.36440031  0.43319116  1  0  -0.421518  0  3.645922  0  0  -0.501882  0  3.882244  0  0  -0.508536  0  3.884998  0  0  -0.23775  -0.49708  0  3.880253  0
C  C61  1  0.67304921  0.63560843  0.56681020  1  0  -0.421801  0  3.645887  0  0  -0.502159  0  3.882264  0  0  -0.508806  0  3.885019  0  0  -0.237835  -0.49734  0  3.880277  0
C  C62  1  0.26265824  0.23478633  0.55522035  1  0  0.365459  0  3.822207  0  0  0.346355  0  4.087086  0  0  0.360679  0  4.110517  0  0  0.205163  0.336561  0  4.071479  0
C  C63  1  0.73734346  0.76521324  0.44477717  1  0  0.365454  0  3.822218  0  0  0.346358  0  4.087112  0  0  0.360685  0  4.110542  0  0  0.205098  0.336475  0  4.071591  0
C  C64  1  0.86148749  0.68527084  0.92537936  1  0  -0.427329  0  3.666281  0  0  -0.509647  0  3.902693  0  0  -0.515725  0  3.905072  0  0  -0.235993  -0.505269  0  3.901181  0
C  C65  1  0.13851395  0.31473617  0.07461724  1  0  -0.427335  0  3.666327  0  0  -0.509625  0  3.902862  0  0  -0.515705  0  3.905242  0  0  -0.236  -0.505242  0  3.901375  0
C  C66  1  0.71996197  0.71388535  0.91417954  1  0  0.558676  0  3.667831  0  0  0.53254  0  3.943372  0  0  0.560544  0  3.944475  0  0  0.179104  0.513657  0  3.941916  0
C  C67  1  0.28003636  0.28612159  0.08581855  1  0  0.558693  0  3.667867  0  0  0.532458  0  3.943535  0  0  0.560464  0  3.94464  0  0  0.179196  0.513579  0  3.942129  0
C  C68  1  0.69675928  0.80396375  0.01362284  1  0  -0.363136  0  3.81431  0  0  -0.350697  0  4.066116  0  0  -0.375236  0  4.087196  0  0  -0.045322  -0.33454  0  4.051575  0
C  C69  1  0.30324861  0.19604506  0.98638044  1  0  -0.362958  0  3.814245  0  0  -0.350463  0  4.066053  0  0  -0.375002  0  4.087134  0  0  -0.045222  -0.334248  0  4.051566  0
C  C70  1  0.56408319  0.83530791  0.01007244  1  0  0.558918  0  3.679098  0  0  0.532885  0  3.953034  0  0  0.56112  0  3.953726  0  0  0.177935  0.513919  0  3.951819  0
C  C71  1  0.43592146  0.16469158  0.98993170  1  0  0.558759  0  3.679526  0  0  0.532709  0  3.953481  0  0  0.56094  0  3.954182  0  0  0.177838  0.513712  0  3.952307  0
C  C72  1  0.54636644  0.92874691  0.11694776  1  0  -0.425999  0  3.643509  0  0  -0.503857  0  3.877707  0  0  -0.510936  0  3.880752  0  0  -0.240955  -0.498735  0  3.875583  0
C  C73  1  0.45363998  0.07125619  0.88306340  1  0  -0.426008  0  3.643571  0  0  -0.503769  0  3.87772  0  0  -0.510863  0  3.880751  0  0  -0.24098  -0.498648  0  3.875636  0
C  C74  1  0.80973776  0.86369195  0.12023580  1  0  0.360724  0  3.837975  0  0  0.34531  0  4.096709  0  0  0.359548  0  4.120723  0  0  0.200717  0.335461  0  4.080815  0
C  C75  1  0.19026348  0.13630119  0.87975839  1  0  0.360649  0  3.837868  0  0  0.345227  0  4.096607  0  0  0.359467  0  4.120621  0  0  0.200658  0.335286  0  4.080826  0
C  C76  1  0.25612121  0.64852109  0.10286389  1  0  0.583371  0  3.669236  0  0  0.516336  0  4.036482  0  0  0.543621  0  4.010385  0  0  0.283286  0.496624  0  4.05564  0
C  C77  1  0.74388297  0.35147196  0.89713765  1  0  0.583068  0  3.669673  0  0  0.516213  0  4.03671  0  0  0.543447  0  4.010706  0  0  0.283243  0.496465  0  4.055872  0
S  S78  1  0.32352677  0.76694270  0.25962339  1  0  1.130382  0  5.856778  0  0  1.031372  0  6.396564  0  0  1.074728  0  6.377665  0  0  0.480818  1.001565  0  6.408674  0
S  S79  1  0.67647428  0.23305410  0.74037365  1  0  1.130573  0  5.856906  0  0  1.031512  0  6.396712  0  0  1.074879  0  6.377824  0  0  0.480846  1.001717  0  6.40884  0
N  N80  1  0.09557595  0.84668004  0.46505993  1  0  -0.468488  0  2.90893  0  0  -0.431477  0  3.219918  0  0  -0.445722  0  3.222386  0  0  -0.353441  -0.422297  0  3.218709  0
N  N81  1  0.90441764  0.15331041  0.53492474  1  0  -0.468406  0  2.909576  0  0  -0.431391  0  3.220513  0  0  -0.445634  0  3.222988  0  0  -0.353444  -0.422181  0  3.219373  0
N  N82  1  0.21418638  0.12980447  0.49580527  1  0  -0.460194  0  2.914961  0  0  -0.415719  0  3.222655  0  0  -0.431135  0  3.226046  0  0  -0.352344  -0.405674  0  3.220652  0
N  N83  1  0.78580601  0.87019035  0.50419273  1  0  -0.460209  0  2.91511  0  0  -0.415735  0  3.222827  0  0  -0.431152  0  3.226212  0  0  -0.352344  -0.405581  0  3.22091  0
N  N84  1  0.90351220  0.91313659  0.20895216  1  0  -0.470498  0  2.968633  0  0  -0.425403  0  3.281253  0  0  -0.439982  0  3.283386  0  0  -0.363914  -0.416198  0  3.280258  0
N  N85  1  0.09648616  0.08686198  0.79104719  1  0  -0.470506  0  2.968816  0  0  -0.425407  0  3.281453  0  0  -0.439988  0  3.283584  0  0  -0.363926  -0.416112  0  3.280569  0
O  O86  1  0.24218231  0.67049210  0.72031791  1  0  -0.588308  0  2.107679  0  0  -0.530136  0  2.335181  0  0  -0.552385  0  2.325071  0  0  -0.222408  -0.514838  0  2.341876  0
O  O87  1  0.75781739  0.32950750  0.27967693  1  0  -0.588325  0  2.107677  0  0  -0.53015  0  2.335142  0  0  -0.552402  0  2.325033  0  0  -0.222467  -0.5149  0  2.34188  0
O  O88  1  0.47760936  0.78190970  0.71982778  1  0  -0.612222  0  2.126649  0  0  -0.550964  0  2.361229  0  0  -0.574861  0  2.353114  0  0  -0.224443  -0.534614  0  2.366651  0
O  O89  1  0.52238060  0.21810152  0.28018344  1  0  -0.612307  0  2.126204  0  0  -0.550996  0  2.360826  0  0  -0.574906  0  2.352725  0  0  -0.224449  -0.534686  0  2.366273  0
O  O90  1  0.38754857  0.53670312  0.80674935  1  0  -0.586273  0  2.098637  0  0  -0.528014  0  2.330245  0  0  -0.550469  0  2.319507  0  0  -0.21509  -0.51273  0  2.337445  0
O  O91  1  0.61245641  0.46329741  0.19324930  1  0  -0.58635  0  2.098807  0  0  -0.528051  0  2.330402  0  0  -0.550513  0  2.319678  0  0  -0.214939  -0.512547  0  2.337498  0
O  O92  1  0.40309509  0.54275284  0.61350134  1  0  -0.619866  0  2.168387  0  0  -0.553516  0  2.398276  0  0  -0.57877  0  2.391624  0  0  -0.225131  -0.536154  0  2.402643  0
O  O93  1  0.59690810  0.45725391  0.38651048  1  0  -0.61982  0  2.16859  0  0  -0.553483  0  2.398556  0  0  -0.578716  0  2.391891  0  0  -0.225163  -0.536156  0  2.402943  0
O  O94  1  0.62343300  0.65589829  0.81467535  1  0  -0.58038  0  2.114499  0  0  -0.519693  0  2.345573  0  0  -0.542443  0  2.336306  0  0  -0.212041  -0.504168  0  2.35176  0
O  O95  1  0.37656628  0.34410859  0.18532666  1  0  -0.580498  0  2.114465  0  0  -0.51975  0  2.345583  0  0  -0.542494  0  2.336298  0  0  -0.212297  -0.504419  0  2.351864  0
O  O96  1  0.45661186  0.78435646  0.91720709  1  0  -0.591926  0  2.124983  0  0  -0.532668  0  2.357749  0  0  -0.555334  0  2.347602  0  0  -0.218021  -0.517191  0  2.364598  0
O  O97  1  0.54339148  0.21564204  0.08280008  1  0  -0.591823  0  2.124899  0  0  -0.532601  0  2.357703  0  0  -0.555265  0  2.347563  0  0  -0.218052  -0.517168  0  2.364573  0
O  O98  1  0.30152487  0.69736067  0.32112467  1  0  -0.607081  0  1.940348  0  0  -0.577154  0  2.172429  0  0  -0.595588  0  2.161513  0  0  -0.353152  -0.564024  0  2.179463  0
O  O99  1  0.69847776  0.30263884  0.67887751  1  0  -0.607084  0  1.940337  0  0  -0.577152  0  2.172448  0  0  -0.595588  0  2.161529  0  0  -0.353144  -0.564025  0  2.179481  0
O  O100  1  0.46942508  0.80995805  0.27939019  1  0  -0.627216  0  2.0167  0  0  -0.58704  0  2.262705  0  0  -0.607861  0  2.253457  0  0  -0.338717  -0.572067  0  2.268453  0
O  O101  1  0.53057474  0.19002416  0.72059348  1  0  -0.627252  0  2.016716  0  0  -0.587072  0  2.262735  0  0  -0.607899  0  2.253487  0  0  -0.338815  -0.572221  0  2.268529  0
O  O102  1  0.23697975  0.85770148  0.25917185  1  0  -0.641255  0  2.035582  0  0  -0.59953  0  2.306021  0  0  -0.618131  0  2.288629  0  0  -0.357492  -0.58626  0  2.317564  0
O  O103  1  0.76302310  0.14229894  0.74083074  1  0  -0.641311  0  2.035668  0  0  -0.599583  0  2.306122  0  0  -0.618191  0  2.28873  0  0  -0.357533  -0.586305  0  2.317683  0
F  F104  1  0.26371762  0.69871299  0.03075449  1  0  -0.217771  0  1.170917  0  0  -0.183506  0  1.33403  0  0  -0.192165  0  1.31818  0  0  -0.098495  -0.177267  0  1.345507  0
F  F105  1  0.73629603  0.30129024  0.96925392  1  0  -0.21765  0  1.171118  0  0  -0.183449  0  1.334186  0  0  -0.192092  0  1.318356  0  0  -0.098458  -0.177215  0  1.345659  0
F  F106  1  0.33187968  0.55839265  0.08514010  1  0  -0.243082  0  1.189867  0  0  -0.19015  0  1.344366  0  0  -0.200296  0  1.329571  0  0  -0.096061  -0.182665  0  1.354675  0
F  F107  1  0.66813195  0.44160219  0.91486982  1  0  -0.243007  0  1.190014  0  0  -0.19008  0  1.344436  0  0  -0.200207  0  1.329659  0  0  -0.096047  -0.182618  0  1.354753  0
F  F108  1  0.12072205  0.59260134  0.06858090  1  0  -0.232271  0  1.200763  0  0  -0.196288  0  1.371846  0  0  -0.206234  0  1.355618  0  0  -0.09851  -0.189017  0  1.383333  0
F  F109  1  0.87928552  0.40738822  0.93141114  1  0  -0.232281  0  1.200796  0  0  -0.196367  0  1.371836  0  0  -0.206291  0  1.355624  0  0  -0.098613  -0.189105  0  1.383333  0
