# generated using pymatgen
data_GdH5C10O9
_symmetry_space_group_name_H-M   'P 1'
_cell_length_a   6.25297272
_cell_length_b   9.25069302
_cell_length_c   9.61201140
_cell_angle_alpha   87.87545180
_cell_angle_beta   73.77371318
_cell_angle_gamma   77.01165195
_symmetry_Int_Tables_number   1
_chemical_formula_structural   GdH5C10O9
_chemical_formula_sum   'Gd2 H10 C20 O18'
_cell_volume   519.99746037
_cell_formula_units_Z   2
loop_
 _symmetry_equiv_pos_site_id
 _symmetry_equiv_pos_as_xyz
  1  'x, y, z'
loop_
 _atom_site_type_symbol
 _atom_site_label
 _atom_site_symmetry_multiplicity
 _atom_site_fract_x
 _atom_site_fract_y
 _atom_site_fract_z
 _atom_site_occupancy
 _atom_site_hle17_bader_spin_density
 _atom_site_hle17_ddec_charge
 _atom_site_hle17_ddec_spin_density
 _atom_site_hle17_ddec_sum_bond_order
 _atom_site_hle17_magmom
 _atom_site_hse06_10hf_bader_spin_density
 _atom_site_hse06_10hf_ddec_charge
 _atom_site_hse06_10hf_ddec_spin_density
 _atom_site_hse06_10hf_ddec_sum_bond_order
 _atom_site_hse06_10hf_magmom
 _atom_site_hse06_bader_spin_density
 _atom_site_hse06_ddec_charge
 _atom_site_hse06_ddec_spin_density
 _atom_site_hse06_ddec_sum_bond_order
 _atom_site_hse06_magmom
 _atom_site_pbe_bader_spin_density
 _atom_site_pbe_cm5_charge
 _atom_site_pbe_ddec_charge
 _atom_site_pbe_ddec_spin_density
 _atom_site_pbe_ddec_sum_bond_order
 _atom_site_pbe_magmom
Gd  Gd0  1  0.34935327  0.94144575  0.21905095  1  0  2.219683  0  1.731643  0  0  2.129653  0  2.080614  0  0  2.183036  0  2.028509  0  0  1.483951  2.087011  0  2.126081  0
Gd  Gd1  1  0.65064831  0.05855552  0.78094703  1  0  2.219689  0  1.731534  0  0  2.129622  0  2.080543  0  0  2.183035  0  2.028389  0  0  1.483991  2.086985  0  2.126009  0
H  H2  1  0.23490573  0.98580777  0.72088088  1  0  0.465032  0  0.798178  0  0  0.439741  0  0.858445  0  0  0.449105  0  0.844736  0  0  0.328204  0.432811  0  0.868681  0
H  H3  1  0.76509290  0.01419238  0.27911767  1  0  0.465033  0  0.798183  0  0  0.439739  0  0.858449  0  0  0.449103  0  0.84474  0  0  0.328209  0.432808  0  0.868686  0
H  H4  1  0.23068818  0.93367863  0.87915863  1  0  0.456175  0  0.835653  0  0  0.424716  0  0.900023  0  0  0.434494  0  0.885782  0  0  0.313744  0.417796  0  0.910084  0
H  H5  1  0.76931378  0.06632152  0.12083931  1  0  0.456226  0  0.83558  0  0  0.424728  0  0.899995  0  0  0.43453  0  0.885732  0  0  0.31373  0.417808  0  0.910054  0
H  H6  1  0.81532187  0.34030513  0.39295139  1  0  0.130635  0  0.936903  0  0  0.139612  0  0.995457  0  0  0.144149  0  0.992062  0  0  0.118297  0.136002  0  0.998843  0
H  H7  1  0.18468215  0.65969391  0.60704725  1  0  0.130626  0  0.936876  0  0  0.139599  0  0.995441  0  0  0.144135  0  0.992047  0  0  0.118284  0.135988  0  0.998832  0
H  H8  1  0.29835179  0.43614699  0.12904137  1  0  0.118421  0  0.92392  0  0  0.131809  0  0.976526  0  0  0.135426  0  0.974779  0  0  0.118334  0.129167  0  0.97797  0
H  H9  1  0.70164814  0.56385426  0.87095900  1  0  0.118418  0  0.923956  0  0  0.13181  0  0.976552  0  0  0.13542  0  0.974821  0  0  0.118341  0.129168  0  0.977999  0
H  H10  1  0.47993828  0.57733327  0.23827074  1  0  0.424123  0  0.871072  0  0  0.391944  0  0.947456  0  0  0.404601  0  0.929558  0  0  0.318185  0.383115  0  0.95992  0
H  H11  1  0.52006037  0.42266686  0.76173198  1  0  0.424108  0  0.871117  0  0  0.391933  0  0.94748  0  0  0.404592  0  0.929579  0  0  0.318184  0.383106  0  0.959942  0
C  C12  1  0.89591733  0.40961269  0.44175440  1  0  -0.074137  0  3.660152  0  0  -0.114581  0  3.923901  0  0  -0.114179  0  3.941107  0  0  -0.073362  -0.114296  0  3.913178  0
C  C13  1  0.10408297  0.59038746  0.55824385  1  0  -0.07414  0  3.660133  0  0  -0.114605  0  3.923848  0  0  -0.114204  0  3.941058  0  0  -0.073339  -0.114319  0  3.913126  0
C  C14  1  0.83859123  0.79827807  0.91427295  1  0  0.695401  0  3.882342  0  0  0.642307  0  4.190317  0  0  0.677633  0  4.178596  0  0  0.219438  0.619814  0  4.194854  0
C  C15  1  0.16141162  0.20172431  0.08572372  1  0  0.695588  0  3.881986  0  0  0.642261  0  4.190355  0  0  0.677588  0  4.178629  0  0  0.219357  0.619769  0  4.194889  0
C  C16  1  0.19928376  0.72563226  0.08206151  1  0  0.679349  0  3.863183  0  0  0.624771  0  4.162548  0  0  0.659047  0  4.153215  0  0  0.217159  0.601776  0  4.167759  0
C  C17  1  0.80071449  0.27436899  0.91793708  1  0  0.679409  0  3.863054  0  0  0.624849  0  4.162409  0  0  0.659127  0  4.153075  0  0  0.217163  0.601854  0  4.167615  0
C  C18  1  0.83655070  0.56441236  0.42877176  1  0  -0.074483  0  3.711039  0  0  -0.063739  0  3.953053  0  0  -0.070122  0  3.973859  0  0  -0.00574  -0.059154  0  3.940248  0
C  C19  1  0.16344795  0.43558778  0.57122783  1  0  -0.074425  0  3.710944  0  0  -0.063587  0  3.95287  0  0  -0.069974  0  3.973666  0  0  -0.005677  -0.059005  0  3.940067  0
C  C20  1  0.92589275  0.64755644  0.96420438  1  0  -0.025096  0  3.679363  0  0  -0.014419  0  3.920741  0  0  -0.016434  0  3.937154  0  0  0.009281  -0.014264  0  3.910185  0
C  C21  1  0.07410756  0.35244371  0.03579491  1  0  -0.02507  0  3.67923  0  0  -0.014319  0  3.920691  0  0  -0.016336  0  3.937105  0  0  0.009288  -0.014163  0  3.91013  0
C  C22  1  0.89110143  0.82599474  0.47784402  1  0  0.757859  0  3.820615  0  0  0.711603  0  4.11497  0  0  0.747485  0  4.101492  0  0  0.252559  0.687092  0  4.123575  0
C  C23  1  0.10888726  0.17400536  0.52216364  1  0  0.757858  0  3.820597  0  0  0.71165  0  4.114879  0  0  0.747527  0  4.101414  0  0  0.252626  0.687138  0  4.12348  0
C  C24  1  0.16792110  0.46404046  0.07155584  1  0  -0.063637  0  3.672948  0  0  -0.100824  0  3.93127  0  0  -0.100752  0  3.948943  0  0  -0.067066  -0.100154  0  3.920846  0
C  C25  1  0.83207998  0.53595747  0.92844338  1  0  -0.063572  0  3.672922  0  0  -0.100749  0  3.931264  0  0  -0.100681  0  3.948938  0  0  -0.067051  -0.100083  0  3.920846  0
C  C26  1  0.09614224  0.61166839  0.03696512  1  0  -0.055403  0  3.703887  0  0  -0.044261  0  3.944986  0  0  -0.048766  0  3.962942  0  0  -0.002071  -0.042102  0  3.933918  0
C  C27  1  0.90385640  0.38833175  0.96303447  1  0  -0.055452  0  3.703792  0  0  -0.044352  0  3.944937  0  0  -0.048857  0  3.962895  0  0  -0.002082  -0.042191  0  3.933867  0
C  C28  1  0.94171050  0.65752857  0.48758249  1  0  -0.02941  0  3.628895  0  0  -0.019917  0  3.867436  0  0  -0.021299  0  3.884324  0  0  0.009267  -0.020349  0  3.856949  0
C  C29  1  0.05829313  0.34247159  0.51241515  1  0  -0.029462  0  3.628921  0  0  -0.020009  0  3.867444  0  0  -0.021394  0  3.884338  0  0  0.009252  -0.020438  0  3.856953  0
C  C30  1  0.66226857  0.62679478  0.35175888  1  0  0.686564  0  3.769398  0  0  0.635763  0  4.070067  0  0  0.669646  0  4.061018  0  0  0.250908  0.612153  0  4.076638  0
C  C31  1  0.33773601  0.37319314  0.64824418  1  0  0.686679  0  3.769372  0  0  0.635804  0  4.070115  0  0  0.669716  0  4.06102  0  0  0.250885  0.612196  0  4.076688  0
O  O32  1  0.13998166  0.86154058  0.05413414  1  0  -0.653319  0  2.050264  0  0  -0.596744  0  2.281488  0  0  -0.620703  0  2.272582  0  0  -0.322229  -0.580305  0  2.286763  0
O  O33  1  0.86001863  0.13845958  0.94586307  1  0  -0.65343  0  2.050202  0  0  -0.596829  0  2.281382  0  0  -0.620797  0  2.272478  0  0  -0.322253  -0.580409  0  2.286698  0
O  O34  1  0.34708006  0.68605685  0.15343530  1  0  -0.730054  0  2.164572  0  0  -0.679612  0  2.41462  0  0  -0.707489  0  2.406447  0  0  -0.364811  -0.660501  0  2.420045  0
O  O35  1  0.65292357  0.31394330  0.84656337  1  0  -0.73002  0  2.164581  0  0  -0.679571  0  2.414613  0  0  -0.707453  0  2.40644  0  0  -0.364804  -0.660464  0  2.420043  0
O  O36  1  0.95184265  0.84483634  0.79832271  1  0  -0.65306  0  2.02976  0  0  -0.610486  0  2.269709  0  0  -0.635537  0  2.260857  0  0  -0.348583  -0.592759  0  2.275197  0
O  O37  1  0.04815307  0.15516267  0.20168161  1  0  -0.653217  0  2.02947  0  0  -0.610574  0  2.269532  0  0  -0.635622  0  2.260682  0  0  -0.348591  -0.592845  0  2.275017  0
O  O38  1  0.63723186  0.87079899  0.98065463  1  0  -0.766537  0  2.122492  0  0  -0.724113  0  2.381723  0  0  -0.751214  0  2.372243  0  0  -0.399251  -0.703653  0  2.386411  0
O  O39  1  0.36276103  0.12920335  0.01934906  1  0  -0.766544  0  2.122542  0  0  -0.724035  0  2.381881  0  0  -0.751137  0  2.372402  0  0  -0.399189  -0.703578  0  2.386569  0
O  O40  1  0.59156325  0.76304037  0.34168768  1  0  -0.634093  0  2.016401  0  0  -0.595465  0  2.260476  0  0  -0.616778  0  2.250072  0  0  -0.323709  -0.580918  0  2.268434  0
O  O41  1  0.40843386  0.23696419  0.65831518  1  0  -0.634074  0  2.016596  0  0  -0.595428  0  2.260728  0  0  -0.616751  0  2.250306  0  0  -0.323684  -0.580882  0  2.268687  0
O  O42  1  0.73442515  0.89996465  0.57866228  1  0  -0.690329  0  2.026487  0  0  -0.651796  0  2.271451  0  0  -0.67767  0  2.259113  0  0  -0.381698  -0.63189  0  2.279662  0
O  O43  1  0.26558667  0.10003109  0.42133088  1  0  -0.690351  0  2.026119  0  0  -0.651836  0  2.271055  0  0  -0.677708  0  2.258724  0  0  -0.381738  -0.631926  0  2.279259  0
O  O44  1  0.59025194  0.52532191  0.29471033  1  0  -0.539076  0  2.091573  0  0  -0.48739  0  2.306479  0  0  -0.510237  0  2.291452  0  0  -0.313184  -0.471366  0  2.316931  0
O  O45  1  0.40974045  0.47467709  0.70529461  1  0  -0.539152  0  2.091544  0  0  -0.487461  0  2.306465  0  0  -0.510322  0  2.291428  0  0  -0.313193  -0.471431  0  2.316908  0
O  O46  1  0.01515299  0.88132183  0.37068741  1  0  -0.742161  0  2.058034  0  0  -0.70282  0  2.31112  0  0  -0.729141  0  2.298993  0  0  -0.386409  -0.682785  0  2.319578  0
O  O47  1  0.98485320  0.11868055  0.62930969  1  0  -0.742155  0  2.058394  0  0  -0.702821  0  2.311456  0  0  -0.729142  0  2.299331  0  0  -0.38645  -0.682792  0  2.319918  0
O  O48  1  0.67126512  0.03645082  0.21159626  1  0  -0.902537  0  1.889577  0  0  -0.865791  0  2.091221  0  0  -0.884368  0  2.060126  0  0  -0.651241  -0.852273  0  2.113557  0
O  O49  1  0.32873558  0.96354821  0.78840403  1  0  -0.902479  0  1.889626  0  0  -0.86578  0  2.091199  0  0  -0.884329  0  2.06017  0  0  -0.651232  -0.852261  0  2.113535  0
