# generated using pymatgen
data_NaH12C7N3
_symmetry_space_group_name_H-M   'P 1'
_cell_length_a   8.41126736
_cell_length_b   9.90818497
_cell_length_c   9.90822591
_cell_angle_alpha   98.60601469
_cell_angle_beta   90.00002856
_cell_angle_gamma   90.00021764
_symmetry_Int_Tables_number   1
_chemical_formula_structural   NaH12C7N3
_chemical_formula_sum   'Na4 H48 C28 N12'
_cell_volume   816.45799388
_cell_formula_units_Z   4
loop_
 _symmetry_equiv_pos_site_id
 _symmetry_equiv_pos_as_xyz
  1  'x, y, z'
loop_
 _atom_site_type_symbol
 _atom_site_label
 _atom_site_symmetry_multiplicity
 _atom_site_fract_x
 _atom_site_fract_y
 _atom_site_fract_z
 _atom_site_occupancy
 _atom_site_pbe_bader_spin_density
 _atom_site_pbe_cm5_charge
 _atom_site_pbe_ddec_charge
 _atom_site_pbe_ddec_spin_density
 _atom_site_pbe_ddec_sum_bond_order
 _atom_site_pbe_magmom
Na  Na0  1  0.33035363  0.61775766  0.38224307  1  0  0.635319  0.760503  0  0.575856  0
Na  Na1  1  0.83035016  0.88224433  0.11775514  1  0  0.635311  0.760449  0  0.575964  0
Na  Na2  1  0.16964796  0.11775565  0.88224476  1  0  0.63531  0.760459  0  0.57594  0
Na  Na3  1  0.66965043  0.38224334  0.61775596  1  0  0.635306  0.76046  0  0.575953  0
H  H4  1  0.63344069  0.44289589  0.23354230  1  0  0.094084  0.054703  0  1.050939  0
H  H5  1  0.13343313  0.05710405  0.26646073  1  0  0.094111  0.054751  0  1.050773  0
H  H6  1  0.86656088  0.26646753  0.05710836  1  0  0.094104  0.054714  0  1.05084  0
H  H7  1  0.36657086  0.23353418  0.44289201  1  0  0.094105  0.054751  0  1.050661  0
H  H8  1  0.36656574  0.55710414  0.76646466  1  0  0.094092  0.054731  0  1.050683  0
H  H9  1  0.86656023  0.94289897  0.73353557  1  0  0.094095  0.054731  0  1.050705  0
H  H10  1  0.13344080  0.73353450  0.94289183  1  0  0.094078  0.054657  0  1.050861  0
H  H11  1  0.63344390  0.76645665  0.55711162  1  0  0.094064  0.054687  0  1.050896  0
H  H12  1  0.88441459  0.35886696  0.30113369  1  0  0.088128  0.091316  0  1.059264  0
H  H13  1  0.38441213  0.14113380  0.19886755  1  0  0.088132  0.091297  0  1.059181  0
H  H14  1  0.61558668  0.19886936  0.14113536  1  0  0.088111  0.091264  0  1.059265  0
H  H15  1  0.11559336  0.30113253  0.35886289  1  0  0.088133  0.091268  0  1.059225  0
H  H16  1  0.11558828  0.64113200  0.69886505  1  0  0.088153  0.091326  0  1.059136  0
H  H17  1  0.61558361  0.85886926  0.80113480  1  0  0.088152  0.091331  0  1.059114  0
H  H18  1  0.38441619  0.80113269  0.85886887  1  0  0.088118  0.091283  0  1.059261  0
H  H19  1  0.88441903  0.69886233  0.64113324  1  0  0.088129  0.091323  0  1.059267  0
H  H20  1  0.03780233  0.75667185  0.44338289  1  0  0.273244  0.257782  0  1.028288  0
H  H21  1  0.53780176  0.74332713  0.05661475  1  0  0.27327  0.257821  0  1.028257  0
H  H22  1  0.46219466  0.05661512  0.74332887  1  0  0.273256  0.257802  0  1.028174  0
H  H23  1  0.96219511  0.44338585  0.75667126  1  0  0.273276  0.257815  0  1.02823  0
H  H24  1  0.96219459  0.24332914  0.55661412  1  0  0.273273  0.25781  0  1.028238  0
H  H25  1  0.46219398  0.25667184  0.94338601  1  0  0.273288  0.257839  0  1.02822  0
H  H26  1  0.53780346  0.94338283  0.25667174  1  0  0.273261  0.257802  0  1.028253  0
H  H27  1  0.03780301  0.55661617  0.24332792  1  0  0.273257  0.257784  0  1.028281  0
H  H28  1  0.14169768  0.84953626  0.35074492  1  0  0.275575  0.257183  0  1.029833  0
H  H29  1  0.64169792  0.65046308  0.14925382  1  0  0.275583  0.257203  0  1.029812  0
H  H30  1  0.35829968  0.14925448  0.65046573  1  0  0.275599  0.257205  0  1.029825  0
H  H31  1  0.85830213  0.35074513  0.84953517  1  0  0.275589  0.257205  0  1.029805  0
H  H32  1  0.85830043  0.15046372  0.64925295  1  0  0.275595  0.257219  0  1.029797  0
H  H33  1  0.35830019  0.34953692  0.85074809  1  0  0.275591  0.257232  0  1.029783  0
H  H34  1  0.64169725  0.85074347  0.34953589  1  0  0.275572  0.257181  0  1.029802  0
H  H35  1  0.14169717  0.64925486  0.15046473  1  0  0.275574  0.257179  0  1.029855  0
H  H36  1  0.10294067  0.00821517  0.54952913  1  0  0.092488  0.051709  0  1.02638  0
H  H37  1  0.60294025  0.49178461  0.95046966  1  0  0.09249  0.051716  0  1.026374  0
H  H38  1  0.39705662  0.95047219  0.49178544  1  0  0.092488  0.051673  0  1.026433  0
H  H39  1  0.89705751  0.54953004  0.00821384  1  0  0.092483  0.051688  0  1.026432  0
H  H40  1  0.89705745  0.99178480  0.45046875  1  0  0.092484  0.051644  0  1.026473  0
H  H41  1  0.39705667  0.50821539  0.04953125  1  0  0.092487  0.051653  0  1.02648  0
H  H42  1  0.60294150  0.04952780  0.50821446  1  0  0.092492  0.051719  0  1.026379  0
H  H43  1  0.10294061  0.45046995  0.99178605  1  0  0.092475  0.051687  0  1.026417  0
H  H44  1  0.10843173  0.87282593  0.64757288  1  0  0.10037  0.057077  0  1.013083  0
H  H45  1  0.60843198  0.62717326  0.85242566  1  0  0.100355  0.057072  0  1.013085  0
H  H46  1  0.39156499  0.85242520  0.62717222  1  0  0.100381  0.05712  0  1.012983  0
H  H47  1  0.89156415  0.64757594  0.87282572  1  0  0.100379  0.057128  0  1.012985  0
H  H48  1  0.89156520  0.12717405  0.35242500  1  0  0.100379  0.057119  0  1.012972  0
H  H49  1  0.39156495  0.37282572  0.14757611  1  0  0.100373  0.057124  0  1.012993  0
H  H50  1  0.60843194  0.14757273  0.37282536  1  0  0.100393  0.057113  0  1.013055  0
H  H51  1  0.10843158  0.35242507  0.12717432  1  0  0.100363  0.057086  0  1.013031  0
C  C52  1  0.69429137  0.49985039  0.32207065  1  0  -0.017955  0.02764  0  4.176136  0
C  C53  1  0.19430133  0.00015072  0.17792248  1  0  -0.018006  0.027648  0  4.176443  0
C  C54  1  0.80570063  0.17793251  0.00015359  1  0  -0.017991  0.027719  0  4.176347  0
C  C55  1  0.30569559  0.32207816  0.49984400  1  0  -0.018014  0.027655  0  4.176584  0
C  C56  1  0.30569248  0.50015259  0.67791857  1  0  -0.018012  0.027652  0  4.176627  0
C  C57  1  0.80568965  0.99985132  0.82207973  1  0  -0.018022  0.027663  0  4.176443  0
C  C58  1  0.19429868  0.82206951  0.99984660  1  0  -0.018  0.027737  0  4.176308  0
C  C59  1  0.69429301  0.67792794  0.50015476  1  0  -0.017919  0.027735  0  4.176008  0
C  C60  1  0.83866904  0.45260709  0.36028613  1  0  -0.14023  -0.25521  0  4.075008  0
C  C61  1  0.33864828  0.04738333  0.13971664  1  0  -0.140261  -0.255205  0  4.075386  0
C  C62  1  0.66134181  0.13971965  0.04739339  1  0  -0.140304  -0.255286  0  4.075243  0
C  C63  1  0.16135951  0.36028141  0.45261083  1  0  -0.140294  -0.255222  0  4.075499  0
C  C64  1  0.16135761  0.54738270  0.63971432  1  0  -0.140294  -0.255244  0  4.075557  0
C  C65  1  0.66135221  0.95261973  0.86028572  1  0  -0.140235  -0.255188  0  4.075449  0
C  C66  1  0.33865987  0.86028240  0.95261084  1  0  -0.140238  -0.255229  0  4.07515  0
C  C67  1  0.83867071  0.63971147  0.54739410  1  0  -0.140234  -0.255247  0  4.074986  0
C  C68  1  0.92659058  0.52157355  0.47842286  1  0  -0.076723  -0.028817  0  4.137895  0
C  C69  1  0.42658836  0.97842673  0.02157716  1  0  -0.076667  -0.028708  0  4.137504  0
C  C70  1  0.57341094  0.02157532  0.97842808  1  0  -0.076632  -0.02871  0  4.137483  0
C  C71  1  0.07341467  0.47842436  0.52157068  1  0  -0.076649  -0.028672  0  4.137216  0
C  C72  1  0.16252709  0.91085511  0.55932483  1  0  -0.079129  0.007534  0  3.97517  0
C  C73  1  0.66252721  0.58914528  0.94067391  1  0  -0.079131  0.0075  0  3.975126  0
C  C74  1  0.33746869  0.94067435  0.58914490  1  0  -0.079114  0.007538  0  3.975102  0
C  C75  1  0.83746986  0.55932559  0.91085386  1  0  -0.079111  0.007534  0  3.975086  0
C  C76  1  0.83746984  0.08914487  0.44067405  1  0  -0.079107  0.007573  0  3.975169  0
C  C77  1  0.33746972  0.41085471  0.05932700  1  0  -0.07911  0.007542  0  3.975191  0
C  C78  1  0.66252823  0.05932359  0.41085369  1  0  -0.079152  0.007459  0  3.975231  0
C  C79  1  0.16252707  0.44067439  0.08914604  1  0  -0.079096  0.007557  0  3.975082  0
N  N80  1  0.61458428  0.61378106  0.38622325  1  0  -0.50331  -0.507577  0  3.425067  0
N  N81  1  0.11457575  0.88621412  0.11377892  1  0  -0.503317  -0.507691  0  3.424574  0
N  N82  1  0.88542118  0.11378790  0.88622026  1  0  -0.503319  -0.507707  0  3.424446  0
N  N83  1  0.38543048  0.38621590  0.61378226  1  0  -0.503348  -0.507735  0  3.424205  0
N  N84  1  0.14381501  0.80668971  0.43871417  1  0  -0.714185  -0.661778  0  3.29773  0
N  N85  1  0.64381540  0.69331065  0.06128371  1  0  -0.714207  -0.661825  0  3.297743  0
N  N86  1  0.35617972  0.06128499  0.69331017  1  0  -0.714234  -0.661836  0  3.297632  0
N  N87  1  0.85618255  0.43871562  0.80668885  1  0  -0.714246  -0.661855  0  3.297708  0
N  N88  1  0.85618311  0.19331128  0.56128284  1  0  -0.714256  -0.66186  0  3.297746  0
N  N89  1  0.35618153  0.30668934  0.93871720  1  0  -0.714259  -0.661894  0  3.297725  0
N  N90  1  0.64381721  0.93871397  0.30668958  1  0  -0.71419  -0.661777  0  3.297761  0
N  N91  1  0.14381557  0.56128436  0.19331105  1  0  -0.71422  -0.661808  0  3.297772  0
