# generated using pymatgen
data_ZnH6C8O5
_symmetry_space_group_name_H-M   'P 1'
_cell_length_a   6.60582291
_cell_length_b   10.14800129
_cell_length_c   20.00079512
_cell_angle_alpha   78.59818037
_cell_angle_beta   88.62827692
_cell_angle_gamma   78.74462341
_symmetry_Int_Tables_number   1
_chemical_formula_structural   ZnH6C8O5
_chemical_formula_sum   'Zn4 H24 C32 O20'
_cell_volume   1288.88325262
_cell_formula_units_Z   4
loop_
 _symmetry_equiv_pos_site_id
 _symmetry_equiv_pos_as_xyz
  1  'x, y, z'
loop_
 _atom_site_type_symbol
 _atom_site_label
 _atom_site_symmetry_multiplicity
 _atom_site_fract_x
 _atom_site_fract_y
 _atom_site_fract_z
 _atom_site_occupancy
 _atom_site_hle17_bader_spin_density
 _atom_site_hle17_ddec_charge
 _atom_site_hle17_ddec_spin_density
 _atom_site_hle17_ddec_sum_bond_order
 _atom_site_hle17_magmom
 _atom_site_hse06_10hf_bader_spin_density
 _atom_site_hse06_10hf_ddec_charge
 _atom_site_hse06_10hf_ddec_spin_density
 _atom_site_hse06_10hf_ddec_sum_bond_order
 _atom_site_hse06_10hf_magmom
 _atom_site_hse06_bader_spin_density
 _atom_site_hse06_ddec_charge
 _atom_site_hse06_ddec_spin_density
 _atom_site_hse06_ddec_sum_bond_order
 _atom_site_hse06_magmom
 _atom_site_pbe_bader_spin_density
 _atom_site_pbe_cm5_charge
 _atom_site_pbe_ddec_charge
 _atom_site_pbe_ddec_spin_density
 _atom_site_pbe_ddec_sum_bond_order
 _atom_site_pbe_magmom
Zn  Zn0  1  0.64379458  0.68166446  0.71506924  1  0  1.116293  0  1.800369  0  0  0.95516  0  2.265454  0  0  1.007938  0  2.1954  0  0  0.668895  0.918244  0  2.313606  0
Zn  Zn1  1  0.35621022  0.31833211  0.28492967  1  0  1.116311  0  1.800308  0  0  0.955192  0  2.265395  0  0  1.007974  0  2.195338  0  0  0.668924  0.918273  0  2.313549  0
Zn  Zn2  1  0.95229076  0.76616800  0.78187767  1  0  1.114966  0  1.780342  0  0  0.949631  0  2.245808  0  0  1.003744  0  2.175766  0  0  0.662964  0.911727  0  2.293909  0
Zn  Zn3  1  0.04770991  0.23382754  0.21812197  1  0  1.114957  0  1.780369  0  0  0.949649  0  2.245822  0  0  1.00376  0  2.175783  0  0  0.66298  0.911745  0  2.293934  0
H  H4  1  0.32887976  0.50030652  0.89047715  1  0  0.107587  0  0.957791  0  0  0.11395  0  1.024937  0  0  0.117647  0  1.022379  0  0  0.107085  0.111283  0  1.026864  0
H  H5  1  0.67111334  0.49971053  0.10952104  1  0  0.107617  0  0.95769  0  0  0.113964  0  1.024858  0  0  0.117658  0  1.022301  0  0  0.107087  0.111292  0  1.026787  0
H  H6  1  0.81396560  0.60176471  0.99904909  1  0  0.106241  0  0.934188  0  0  0.11579  0  0.991964  0  0  0.119696  0  0.989568  0  0  0.107327  0.112971  0  0.993773  0
H  H7  1  0.18603413  0.39825027  0.00094911  1  0  0.106342  0  0.934039  0  0  0.115823  0  0.991888  0  0  0.119722  0  0.98949  0  0  0.107355  0.113007  0  0.993689  0
H  H8  1  0.73912113  0.85056576  0.50976241  1  0  0.111356  0  0.930888  0  0  0.122073  0  0.985242  0  0  0.125897  0  0.983013  0  0  0.111742  0.119265  0  0.986983  0
H  H9  1  0.26087516  0.14942069  0.49023376  1  0  0.111418  0  0.930925  0  0  0.122129  0  0.985291  0  0  0.125959  0  0.983049  0  0  0.111741  0.119307  0  0.987041  0
H  H10  1  0.20080970  0.00528228  0.60286302  1  0  0.104526  0  0.957719  0  0  0.111795  0  1.022371  0  0  0.115361  0  1.02002  0  0  0.104922  0.109198  0  1.024195  0
H  H11  1  0.79918224  0.99471027  0.39713468  1  0  0.104441  0  0.957784  0  0  0.111725  0  1.022433  0  0  0.11529  0  1.020083  0  0  0.10484  0.10913  0  1.024254  0
H  H12  1  0.16729705  0.03233252  0.71140113  1  0  0.110035  0  0.969202  0  0  0.11538  0  1.037695  0  0  0.119295  0  1.034748  0  0  0.103155  0.112566  0  1.039873  0
H  H13  1  0.83271095  0.96766286  0.28860431  1  0  0.110009  0  0.969193  0  0  0.11539  0  1.037658  0  0  0.119302  0  1.034716  0  0  0.103182  0.112576  0  1.039834  0
H  H14  1  0.92920757  0.25725685  0.70999537  1  0  0.107144  0  0.935854  0  0  0.11711  0  0.993225  0  0  0.120623  0  0.991311  0  0  0.109734  0.114579  0  0.994659  0
H  H15  1  0.07079146  0.74273126  0.29001609  1  0  0.107125  0  0.935894  0  0  0.117079  0  0.993289  0  0  0.120588  0  0.991374  0  0  0.109765  0.114552  0  0.994725  0
H  H16  1  0.41505585  0.40301713  0.79594676  1  0  0.100674  0  0.958815  0  0  0.108565  0  1.023942  0  0  0.111902  0  1.021873  0  0  0.102308  0.10613  0  1.025568  0
H  H17  1  0.58494179  0.59697824  0.20406000  1  0  0.100618  0  0.958868  0  0  0.108559  0  1.023932  0  0  0.111899  0  1.02186  0  0  0.102273  0.106121  0  1.025566  0
H  H18  1  0.65002579  0.17753880  0.79885443  1  0  0.106061  0  0.938986  0  0  0.114846  0  0.998809  0  0  0.118602  0  0.996438  0  0  0.107229  0.11217  0  1.000548  0
H  H19  1  0.34997808  0.82246283  0.20114649  1  0  0.106004  0  0.939106  0  0  0.114749  0  0.998964  0  0  0.118502  0  0.996598  0  0  0.107194  0.112077  0  1.0007  0
H  H20  1  0.29420404  0.74757297  0.66377105  1  0  0.430121  0  0.837337  0  0  0.404057  0  0.905718  0  0  0.4132  0  0.895929  0  0  0.311295  0.397538  0  0.912746  0
H  H21  1  0.70579450  0.25242364  0.33622703  1  0  0.43009  0  0.837421  0  0  0.404027  0  0.905804  0  0  0.413171  0  0.896014  0  0  0.311281  0.397508  0  0.912827  0
H  H22  1  0.29762674  0.60588504  0.70864580  1  0  0.42748  0  0.872259  0  0  0.395361  0  0.940102  0  0  0.405752  0  0.925304  0  0  0.298102  0.388025  0  0.950531  0
H  H23  1  0.70236934  0.39411250  0.29135628  1  0  0.427483  0  0.872326  0  0  0.395431  0  0.940023  0  0  0.405825  0  0.92522  0  0  0.298108  0.388091  0  0.950456  0
H  H24  1  0.15403188  0.76834447  0.88560176  1  0  0.42946  0  0.804027  0  0  0.414376  0  0.852488  0  0  0.421896  0  0.844993  0  0  0.332009  0.409049  0  0.857845  0
H  H25  1  0.84597485  0.23168792  0.11439397  1  0  0.429492  0  0.804181  0  0  0.41442  0  0.852612  0  0  0.42194  0  0.845117  0  0  0.331977  0.409094  0  0.857959  0
H  H26  1  0.32238668  0.73729140  0.83018435  1  0  0.431854  0  0.873038  0  0  0.397056  0  0.943015  0  0  0.407954  0  0.927543  0  0  0.297096  0.389374  0  0.953909  0
H  H27  1  0.67761773  0.26271744  0.16981383  1  0  0.431861  0  0.873014  0  0  0.397066  0  0.942994  0  0  0.407968  0  0.927515  0  0  0.297087  0.389383  0  0.953889  0
C  C28  1  0.66479308  0.62114743  0.87184441  1  0  0.670776  0  3.863357  0  0  0.617408  0  4.154075  0  0  0.652811  0  4.146061  0  0  0.220214  0.593414  0  4.158707  0
C  C29  1  0.33520005  0.37886350  0.12815339  1  0  0.670799  0  3.863317  0  0  0.617298  0  4.154254  0  0  0.652703  0  4.146246  0  0  0.220204  0.593306  0  4.158875  0
C  C30  1  0.58044175  0.55795856  0.93808214  1  0  -0.063253  0  3.75113  0  0  -0.040543  0  3.982683  0  0  -0.04763  0  4.005733  0  0  -0.016239  -0.035906  0  3.967123  0
C  C31  1  0.41955242  0.44205441  0.06191593  1  0  -0.063183  0  3.750917  0  0  -0.040519  0  3.98261  0  0  -0.047605  0  4.005652  0  0  -0.016182  -0.035877  0  3.967042  0
C  C32  1  0.40302570  0.50057780  0.93853769  1  0  -0.084102  0  3.735883  0  0  -0.107884  0  3.98682  0  0  -0.108858  0  4.007087  0  0  -0.086438  -0.107162  0  3.973141  0
C  C33  1  0.59696998  0.49943517  0.06146034  1  0  -0.084214  0  3.735741  0  0  -0.107975  0  3.986759  0  0  -0.108945  0  4.007026  0  0  -0.086529  -0.107251  0  3.973068  0
C  C34  1  0.67692235  0.55668405  0.99994619  1  0  -0.061357  0  3.72828  0  0  -0.084738  0  3.975486  0  0  -0.085777  0  3.995594  0  0  -0.078913  -0.083962  0  3.961866  0
C  C35  1  0.32307466  0.44332991  0.00005220  1  0  -0.061473  0  3.728156  0  0  -0.084776  0  3.97542  0  0  -0.085802  0  3.995519  0  0  -0.078945  -0.084005  0  3.961803  0
C  C36  1  0.92425986  0.83514434  0.63018992  1  0  0.661896  0  3.873207  0  0  0.608114  0  4.167439  0  0  0.644149  0  4.159364  0  0  0.21876  0.583691  0  4.172068  0
C  C37  1  0.07573165  0.16484826  0.36980578  1  0  0.66194  0  3.872746  0  0  0.608056  0  4.167123  0  0  0.644089  0  4.159048  0  0  0.218775  0.583643  0  4.171738  0
C  C38  1  0.96578263  0.91926237  0.56290120  1  0  -0.055962  0  3.74521  0  0  -0.034691  0  3.979408  0  0  -0.042448  0  4.003087  0  0  -0.013584  -0.029568  0  3.96336  0
C  C39  1  0.03420670  0.08072618  0.43709347  1  0  -0.055941  0  3.745372  0  0  -0.034613  0  3.979574  0  0  -0.042372  0  4.003256  0  0  -0.013561  -0.02949  0  3.963518  0
C  C40  1  0.85285999  0.91639634  0.50485437  1  0  -0.060169  0  3.721916  0  0  -0.08392  0  3.96778  0  0  -0.084976  0  3.9885  0  0  -0.076648  -0.083076  0  3.953699  0
C  C41  1  0.14713067  0.08359321  0.49514066  1  0  -0.060427  0  3.722107  0  0  -0.084194  0  3.967987  0  0  -0.085251  0  3.988698  0  0  -0.07674  -0.083337  0  3.953897  0
C  C42  1  0.11320994  0.00333707  0.55769210  1  0  -0.072372  0  3.725251  0  0  -0.094875  0  3.973188  0  0  -0.096115  0  3.994228  0  0  -0.081762  -0.093941  0  3.958892  0
C  C43  1  0.88678035  0.99665451  0.44230374  1  0  -0.072432  0  3.725519  0  0  -0.094968  0  3.973461  0  0  -0.096206  0  3.994502  0  0  -0.081753  -0.094041  0  3.959171  0
C  C44  1  0.56550431  0.95873202  0.75333275  1  0  0.667588  0  3.875345  0  0  0.617035  0  4.164981  0  0  0.653101  0  4.157233  0  0  0.217071  0.592606  0  4.169305  0
C  C45  1  0.43451133  0.04126961  0.24666631  1  0  0.667444  0  3.8751  0  0  0.616984  0  4.1646  0  0  0.653047  0  4.156866  0  0  0.217059  0.592554  0  4.168927  0
C  C46  1  0.42308394  0.09225990  0.75463378  1  0  -0.045131  0  3.730782  0  0  -0.024223  0  3.962441  0  0  -0.031034  0  3.984746  0  0  -0.009717  -0.019931  0  3.947717  0
C  C47  1  0.57692997  0.90773449  0.24536957  1  0  -0.044966  0  3.7308  0  0  -0.024054  0  3.96241  0  0  -0.030844  0  3.984675  0  0  -0.00966  -0.019767  0  3.947695  0
C  C48  1  0.21990262  0.11422622  0.72977791  1  0  -0.063586  0  3.703887  0  0  -0.087833  0  3.954674  0  0  -0.088906  0  3.974622  0  0  -0.080187  -0.087005  0  3.941147  0
C  C49  1  0.78010490  0.88577119  0.27022784  1  0  -0.063582  0  3.703949  0  0  -0.087874  0  3.954748  0  0  -0.088952  0  3.974704  0  0  -0.080183  -0.087039  0  3.941218  0
C  C50  1  0.08708555  0.23887678  0.72937148  1  0  -0.05766  0  3.71808  0  0  -0.08084  0  3.964201  0  0  -0.081671  0  3.984822  0  0  -0.075345  -0.080169  0  3.950165  0
C  C51  1  0.91290722  0.76111137  0.27063917  1  0  -0.057653  0  3.718002  0  0  -0.080767  0  3.96421  0  0  -0.081593  0  3.984827  0  0  -0.075367  -0.080095  0  3.950175  0
C  C52  1  0.15714257  0.34370458  0.75291308  1  0  -0.07104  0  3.765156  0  0  -0.048636  0  3.997853  0  0  -0.056905  0  4.021868  0  0  -0.018286  -0.04316  0  3.981548  0
C  C53  1  0.84285974  0.65628465  0.24709365  1  0  -0.070871  0  3.764609  0  0  -0.048675  0  3.997517  0  0  -0.056944  0  4.021529  0  0  -0.018304  -0.043196  0  3.981209  0
C  C54  1  0.36046866  0.32135544  0.77795105  1  0  -0.071561  0  3.729437  0  0  -0.095091  0  3.978533  0  0  -0.096167  0  3.999891  0  0  -0.08549  -0.094233  0  3.963985  0
C  C55  1  0.63953155  0.67864313  0.22205030  1  0  -0.071486  0  3.72918  0  0  -0.094977  0  3.978261  0  0  -0.096056  0  3.999623  0  0  -0.085412  -0.094112  0  3.963703  0
C  C56  1  0.49232339  0.19593838  0.77934349  1  0  -0.065922  0  3.727956  0  0  -0.089068  0  3.975773  0  0  -0.090301  0  3.996215  0  0  -0.079767  -0.088142  0  3.961855  0
C  C57  1  0.50767829  0.80406217  0.22066012  1  0  -0.066013  0  3.728154  0  0  -0.089119  0  3.97592  0  0  -0.090357  0  3.996372  0  0  -0.079788  -0.088194  0  3.962004  0
C  C58  1  0.01804150  0.47924492  0.75047423  1  0  0.675454  0  3.852038  0  0  0.621817  0  4.141713  0  0  0.657982  0  4.133454  0  0  0.223856  0.597271  0  4.146519  0
C  C59  1  0.98195629  0.52074846  0.24953072  1  0  0.67522  0  3.852199  0  0  0.621724  0  4.141765  0  0  0.657888  0  4.133509  0  0  0.223809  0.597179  0  4.146569  0
O  O60  1  0.54511193  0.64557186  0.81906419  1  0  -0.679087  0  2.139853  0  0  -0.604777  0  2.390995  0  0  -0.634215  0  2.377178  0  0  -0.310837  -0.584271  0  2.399826  0
O  O61  1  0.45488777  0.35444214  0.18093261  1  0  -0.679179  0  2.139786  0  0  -0.604816  0  2.391006  0  0  -0.634266  0  2.377194  0  0  -0.3109  -0.584312  0  2.399836  0
O  O62  1  0.84427947  0.64754575  0.87092808  1  0  -0.621133  0  2.028069  0  0  -0.562483  0  2.277024  0  0  -0.590579  0  2.264411  0  0  -0.306282  -0.543014  0  2.285035  0
O  O63  1  0.15572033  0.35245699  0.12906935  1  0  -0.621135  0  2.028069  0  0  -0.562411  0  2.27705  0  0  -0.590506  0  2.264439  0  0  -0.306288  -0.542942  0  2.285053  0
O  O64  1  0.79973307  0.75408372  0.63134249  1  0  -0.613658  0  2.050469  0  0  -0.548864  0  2.301597  0  0  -0.577359  0  2.286693  0  0  -0.307209  -0.529153  0  2.311199  0
O  O65  1  0.20026450  0.24589862  0.36865456  1  0  -0.613662  0  2.050384  0  0  -0.548817  0  2.301546  0  0  -0.577311  0  2.286644  0  0  -0.307235  -0.529111  0  2.311143  0
O  O66  1  0.01927314  0.85068126  0.68273749  1  0  -0.666803  0  2.087258  0  0  -0.59572  0  2.346862  0  0  -0.625342  0  2.332426  0  0  -0.312955  -0.575097  0  2.356091  0
O  O67  1  0.98071661  0.14931038  0.31725585  1  0  -0.666715  0  2.086953  0  0  -0.595646  0  2.34668  0  0  -0.625264  0  2.332243  0  0  -0.312905  -0.575023  0  2.355901  0
O  O68  1  0.51149013  0.88328322  0.71591943  1  0  -0.64524  0  2.083959  0  0  -0.580339  0  2.341582  0  0  -0.610236  0  2.328973  0  0  -0.314035  -0.559545  0  2.349466  0
O  O69  1  0.48853185  0.11672466  0.28407430  1  0  -0.64521  0  2.08377  0  0  -0.580391  0  2.341439  0  0  -0.610289  0  2.328836  0  0  -0.314083  -0.559595  0  2.349321  0
O  O70  1  0.73178216  0.92994108  0.78918660  1  0  -0.632826  0  2.034638  0  0  -0.566198  0  2.286746  0  0  -0.595957  0  2.272195  0  0  -0.318915  -0.545523  0  2.296  0
O  O71  1  0.26822333  0.07006053  0.21081478  1  0  -0.632726  0  2.034447  0  0  -0.56613  0  2.286511  0  0  -0.595894  0  2.271967  0  0  -0.318882  -0.545452  0  2.295768  0
O  O72  1  0.82721957  0.49230385  0.73744649  1  0  -0.602581  0  2.029792  0  0  -0.537223  0  2.281173  0  0  -0.566179  0  2.267496  0  0  -0.300041  -0.51721  0  2.289918  0
O  O73  1  0.17277861  0.50769146  0.26256276  1  0  -0.602535  0  2.029723  0  0  -0.537226  0  2.28107  0  0  -0.566183  0  2.267393  0  0  -0.300091  -0.517211  0  2.289816  0
O  O74  1  0.10283409  0.57707126  0.76174798  1  0  -0.689772  0  2.159573  0  0  -0.613743  0  2.416821  0  0  -0.643831  0  2.402156  0  0  -0.315062  -0.592835  0  2.426224  0
O  O75  1  0.89716745  0.42292831  0.23825372  1  0  -0.689696  0  2.15974  0  0  -0.613715  0  2.416913  0  0  -0.643803  0  2.402248  0  0  -0.315012  -0.592805  0  2.426314  0
O  O76  1  0.38259355  0.65565178  0.67406272  1  0  -0.778105  0  1.86915  0  0  -0.706919  0  2.061835  0  0  -0.729654  0  2.031309  0  0  -0.563702  -0.691033  0  2.083063  0
O  O77  1  0.61740714  0.34434475  0.32593831  1  0  -0.778111  0  1.869315  0  0  -0.706962  0  2.061832  0  0  -0.7297  0  2.031302  0  0  -0.563696  -0.691078  0  2.083069  0
O  O78  1  0.18585303  0.79747396  0.83779952  1  0  -0.778061  0  1.879537  0  0  -0.710753  0  2.074758  0  0  -0.733254  0  2.045034  0  0  -0.552269  -0.695005  0  2.095277  0
O  O79  1  0.81415088  0.20254006  0.16219564  1  0  -0.778093  0  1.879701  0  0  -0.710806  0  2.074891  0  0  -0.7333  0  2.045143  0  0  -0.552207  -0.695064  0  2.095408  0
