# generated using pymatgen
data_HgH6C10Br4(NCl)2
_symmetry_space_group_name_H-M   'P 1'
_cell_length_a   3.91473598
_cell_length_b   14.03624308
_cell_length_c   14.03628999
_cell_angle_alpha   89.99996190
_cell_angle_beta   89.99974920
_cell_angle_gamma   90.00109222
_symmetry_Int_Tables_number   1
_chemical_formula_structural   HgH6C10Br4(NCl)2
_chemical_formula_sum   'Hg2 H12 C20 Br8 N4 Cl4'
_cell_volume   771.26866939
_cell_formula_units_Z   2
loop_
 _symmetry_equiv_pos_site_id
 _symmetry_equiv_pos_as_xyz
  1  'x, y, z'
loop_
 _atom_site_type_symbol
 _atom_site_label
 _atom_site_symmetry_multiplicity
 _atom_site_fract_x
 _atom_site_fract_y
 _atom_site_fract_z
 _atom_site_occupancy
 _atom_site_pbe_bader_charge
 _atom_site_pbe_bader_spin_density
 _atom_site_pbe_cm5_charge
 _atom_site_pbe_ddec_charge
 _atom_site_pbe_ddec_spin_density
 _atom_site_pbe_ddec_sum_bond_order
 _atom_site_pbe_magmom
Hg  Hg0  1  0.49996891  0.50000123  0.00000295  1  0.902672  0  0.511813  0.584196  0  2.573449  0
Hg  Hg1  1  0.50001211  0.00000201  0.50000217  1  0.903057  0  0.51178  0.584141  0  2.573484  0
H  H2  1  0.73032610  0.52987957  0.21834333  1  0.150446  0  0.098447  0.093574  0  1.049605  0
H  H3  1  0.73029177  0.47012689  0.78165088  1  0.150153  0  0.098483  0.093625  0  1.049666  0
H  H4  1  0.26969768  0.21835478  0.47012598  1  0.150352  0  0.098467  0.093585  0  1.049647  0
H  H5  1  0.26969331  0.78164423  0.52987808  1  0.150338  0  0.09849  0.093626  0  1.049689  0
H  H6  1  0.73030359  0.02987807  0.28165237  1  0.150108  0  0.098489  0.093672  0  1.049603  0
H  H7  1  0.73031684  0.97012554  0.71835038  1  0.150329  0  0.09848  0.093579  0  1.049677  0
H  H8  1  0.26967958  0.71835810  0.02987616  1  0.150566  0  0.098453  0.093571  0  1.04969  0
H  H9  1  0.26970375  0.28164304  0.97012434  1  0.15033  0  0.098482  0.093605  0  1.049651  0
H  H10  1  0.50001557  0.81614473  0.31614276  1  0.161176  0  0.092546  0.141083  0  1.032138  0
H  H11  1  0.50000930  0.18385623  0.68386314  1  0.161214  0  0.092624  0.141121  0  1.032138  0
H  H12  1  0.49996131  0.31614024  0.18386023  1  0.161299  0  0.092534  0.141065  0  1.032096  0
H  H13  1  0.50001758  0.68385573  0.81614139  1  0.161202  0  0.092562  0.141089  0  1.032151  0
C  C14  1  0.62674306  0.60122463  0.20770898  1  0.522455  0  0.029604  0.016444  0  3.936635  0
C  C15  1  0.62675228  0.39877701  0.79228607  1  0.522847  0  0.029607  0.016375  0  3.936736  0
C  C16  1  0.37324762  0.20771923  0.39878225  1  0.522601  0  0.029587  0.016322  0  3.936584  0
C  C17  1  0.37325824  0.79228104  0.60122168  1  0.52265  0  0.029594  0.016333  0  3.936489  0
C  C18  1  0.62674849  0.10122235  0.29229003  1  0.52268  0  0.029515  0.016165  0  3.936724  0
C  C19  1  0.62673919  0.89877857  0.70771714  1  0.522523  0  0.02963  0.016456  0  3.936757  0
C  C20  1  0.37324378  0.70772498  0.10122042  1  0.522333  0  0.029644  0.016354  0  3.936429  0
C  C21  1  0.37324419  0.29227814  0.89878208  1  0.522547  0  0.029555  0.016379  0  3.936589  0
C  C22  1  0.62741413  0.67020299  0.27925938  1  -0.119441  0  -0.015346  0.080328  0  3.94562  0
C  C23  1  0.62740187  0.32980435  0.72072926  1  -0.11976  0  -0.015318  0.080482  0  3.945938  0
C  C24  1  0.37258384  0.27927206  0.32980621  1  -0.119627  0  -0.015305  0.080596  0  3.945474  0
C  C25  1  0.37261924  0.72072893  0.67019416  1  -0.119503  0  -0.015242  0.080584  0  3.945438  0
C  C26  1  0.62738742  0.17019045  0.22073139  1  -0.119396  0  -0.015267  0.080519  0  3.945461  0
C  C27  1  0.62743113  0.82980050  0.77926723  1  -0.119516  0  -0.015307  0.080467  0  3.945907  0
C  C28  1  0.37259430  0.77927526  0.17019465  1  -0.119109  0  -0.015315  0.08066  0  3.945735  0
C  C29  1  0.37261134  0.22072928  0.82980643  1  -0.11946  0  -0.015269  0.080531  0  3.945379  0
C  C30  1  0.50000135  0.76131255  0.26130479  1  0.110045  0  -0.085573  -0.136113  0  3.921019  0
C  C31  1  0.50001075  0.23868983  0.73869328  1  0.110528  0  -0.085762  -0.136268  0  3.921205  0
C  C32  1  0.49998203  0.26130632  0.23869440  1  0.110477  0  -0.08569  -0.136246  0  3.92096  0
C  C33  1  0.50001729  0.73869108  0.76130580  1  0.110416  0  -0.085747  -0.136271  0  3.921244  0
Br  Br34  1  0.80134213  0.63825723  0.40160349  1  -0.029025  0  0.044528  -0.044313  0  1.695154  0
Br  Br35  1  0.80131086  0.36173252  0.59839917  1  -0.028793  0  0.044621  -0.04423  0  1.695589  0
Br  Br36  1  0.19867564  0.40161121  0.36173811  1  -0.028958  0  0.044594  -0.044297  0  1.69523  0
Br  Br37  1  0.19869556  0.59838955  0.63826106  1  -0.028936  0  0.044548  -0.044347  0  1.695232  0
Br  Br38  1  0.80128404  0.13826037  0.09839190  1  -0.028987  0  0.044597  -0.044259  0  1.695342  0
Br  Br39  1  0.80132297  0.86173651  0.90160151  1  -0.028858  0  0.04462  -0.044238  0  1.695477  0
Br  Br40  1  0.19870956  0.90161033  0.13826139  1  -0.028981  0  0.044605  -0.044302  0  1.695454  0
Br  Br41  1  0.19870251  0.09838544  0.86173778  1  -0.029063  0  0.044572  -0.044306  0  1.695183  0
N  N42  1  0.49998999  0.62130542  0.12129810  1  -1.202965  0  -0.299106  -0.145026  0  3.528519  0
N  N43  1  0.49998890  0.37869483  0.87869997  1  -1.203006  0  -0.299135  -0.145076  0  3.528679  0
N  N44  1  0.50000179  0.12130263  0.37870259  1  -1.203024  0  -0.299035  -0.144842  0  3.528565  0
N  N45  1  0.50002052  0.87869761  0.62130474  1  -1.203066  0  -0.299136  -0.144986  0  3.528674  0
Cl  Cl46  1  0.99997062  0.40538367  0.09461716  1  -0.568911  0  -0.278389  -0.44434  0  1.348673  0
Cl  Cl47  1  0.99998375  0.59461640  0.90538739  1  -0.568848  0  -0.278372  -0.444345  0  1.348693  0
Cl  Cl48  1  0.00000387  0.09461332  0.59461959  1  -0.568875  0  -0.278388  -0.444371  0  1.348766  0
Cl  Cl49  1  0.00001230  0.90538496  0.40538838  1  -0.569236  0  -0.278368  -0.444351  0  1.348718  0
