# generated using pymatgen
data_GdH11C17O6
_symmetry_space_group_name_H-M   'P 1'
_cell_length_a   6.73991467
_cell_length_b   12.88933446
_cell_length_c   17.12500000
_cell_angle_alpha   90.00000000
_cell_angle_beta   93.65599975
_cell_angle_gamma   90.00000000
_symmetry_Int_Tables_number   1
_chemical_formula_structural   GdH11C17O6
_chemical_formula_sum   'Gd4 H44 C68 O24'
_cell_volume   1484.67272528
_cell_formula_units_Z   4
loop_
 _symmetry_equiv_pos_site_id
 _symmetry_equiv_pos_as_xyz
  1  'x, y, z'
loop_
 _atom_site_type_symbol
 _atom_site_label
 _atom_site_symmetry_multiplicity
 _atom_site_fract_x
 _atom_site_fract_y
 _atom_site_fract_z
 _atom_site_occupancy
 _atom_site_hle17_bader_spin_density
 _atom_site_hle17_ddec_charge
 _atom_site_hle17_ddec_spin_density
 _atom_site_hle17_ddec_sum_bond_order
 _atom_site_hle17_magmom
 _atom_site_hse06_10hf_bader_spin_density
 _atom_site_hse06_10hf_ddec_charge
 _atom_site_hse06_10hf_ddec_spin_density
 _atom_site_hse06_10hf_ddec_sum_bond_order
 _atom_site_hse06_10hf_magmom
 _atom_site_hse06_bader_spin_density
 _atom_site_hse06_ddec_charge
 _atom_site_hse06_ddec_spin_density
 _atom_site_hse06_ddec_sum_bond_order
 _atom_site_hse06_magmom
 _atom_site_pbe_bader_charge
 _atom_site_pbe_bader_spin_density
 _atom_site_pbe_cm5_charge
 _atom_site_pbe_ddec_charge
 _atom_site_pbe_ddec_spin_density
 _atom_site_pbe_ddec_sum_bond_order
 _atom_site_pbe_magmom
Gd  Gd0  1  0.61597353  0.62763830  0.54765730  1  0  2.209171  0  1.830989  0  0  2.122291  0  2.19453  0  0  2.178224  0  2.13618  0  2.192165  0  1.506348  2.077653  0  2.243176  0
Gd  Gd1  1  0.88402540  0.12763886  0.45234299  1  0  2.209205  0  1.830948  0  0  2.122306  0  2.194511  0  0  2.178239  0  2.13616  0  2.192152  0  1.506341  2.077676  0  2.243142  0
Gd  Gd2  1  0.38402675  0.37236135  0.45234253  1  0  2.20918  0  1.830965  0  0  2.122297  0  2.194519  0  0  2.178244  0  2.136148  0  2.19219  0  1.50635  2.077653  0  2.243172  0
Gd  Gd3  1  0.11597190  0.87236157  0.54765735  1  0  2.209187  0  1.830979  0  0  2.122291  0  2.194548  0  0  2.178234  0  2.136188  0  2.192193  0  1.506355  2.077636  0  2.243219  0
H  H4  1  0.11174515  0.78740140  0.79075361  1  0  0.094907  0  0.987583  0  0  0.103421  0  1.053411  0  0  0.105595  0  1.053593  0  0.103635  0  0.102978  0.101808  0  1.053413  0
H  H5  1  0.38825202  0.28740041  0.20924507  1  0  0.09494  0  0.98753  0  0  0.103441  0  1.053375  0  0  0.105616  0  1.053556  0  0.103641  0  0.102996  0.101828  0  1.053377  0
H  H6  1  0.88825216  0.21260058  0.20924498  1  0  0.094954  0  0.98754  0  0  0.103456  0  1.05338  0  0  0.105631  0  1.053561  0  0.103652  0  0.103005  0.101844  0  1.053382  0
H  H7  1  0.61174677  0.71260002  0.79075531  1  0  0.094953  0  0.987522  0  0  0.103453  0  1.053367  0  0  0.105627  0  1.053549  0  0.103648  0  0.103  0.10184  0  1.053369  0
H  H8  1  0.04435492  0.75721831  0.92933096  1  0  0.083456  0  0.976385  0  0  0.0938  0  1.039368  0  0  0.095911  0  1.039829  0  0.062817  0  0.094209  0.092294  0  1.039127  0
H  H9  1  0.45564373  0.25721499  0.07066833  1  0  0.083514  0  0.976334  0  0  0.093836  0  1.03934  0  0  0.095947  0  1.0398  0  0.062831  0  0.094227  0.092332  0  1.039098  0
H  H10  1  0.95564238  0.24278523  0.07066821  1  0  0.083511  0  0.976311  0  0  0.093851  0  1.039299  0  0  0.095963  0  1.039759  0  0.062831  0  0.094238  0.092347  0  1.039057  0
H  H11  1  0.54435952  0.74278544  0.92933216  1  0  0.083517  0  0.976305  0  0  0.093846  0  1.039306  0  0  0.095957  0  1.039766  0  0.06282  0  0.094231  0.092342  0  1.039065  0
H  H12  1  0.75541634  0.46852846  0.86333025  1  0  0.086885  0  0.957418  0  0  0.098061  0  1.018763  0  0  0.100602  0  1.018686  0  0.050501  0  0.097483  0.096252  0  1.018906  0
H  H13  1  0.74458407  0.96852712  0.13666950  1  0  0.086841  0  0.957425  0  0  0.098019  0  1.018774  0  0  0.100559  0  1.018699  0  0.050476  0  0.097465  0.096211  0  1.018916  0
H  H14  1  0.24458245  0.53147352  0.13667013  1  0  0.086854  0  0.957388  0  0  0.098021  0  1.018754  0  0  0.100561  0  1.018681  0  0.050478  0  0.097472  0.096213  0  1.018896  0
H  H15  1  0.25541620  0.03147331  0.86333034  1  0  0.086855  0  0.957385  0  0  0.098019  0  1.018758  0  0  0.10056  0  1.018682  0  0.050477  0  0.097479  0.096211  0  1.0189  0
H  H16  1  0.82268911  0.50114380  0.72437623  1  0  0.10131  0  0.939129  0  0  0.110587  0  1.000504  0  0  0.11368  0  0.998825  0  0.090821  0  0.111179  0.108421  0  1.001618  0
H  H17  1  0.67731130  0.00114281  0.27562411  1  0  0.10132  0  0.939119  0  0  0.110591  0  1.000496  0  0  0.113684  0  0.998817  0  0.090816  0  0.111174  0.108423  0  1.001616  0
H  H18  1  0.17731265  0.49885663  0.27562423  1  0  0.10131  0  0.939123  0  0  0.110586  0  1.000497  0  0  0.113679  0  0.998818  0  0.090806  0  0.111171  0.108417  0  1.001618  0
H  H19  1  0.32268600  0.99885607  0.72437623  1  0  0.101323  0  0.939146  0  0  0.110593  0  1.00052  0  0  0.113688  0  0.998838  0  0.090829  0  0.111169  0.108425  0  1.001638  0
H  H20  1  0.76616684  0.51533460  0.99340735  1  0  0.08121  0  0.96092  0  0  0.094903  0  1.020767  0  0  0.097626  0  1.01923  0  0.040133  0  0.098081  0.09294  0  1.021962  0
H  H21  1  0.73383357  0.01533206  0.00659181  1  0  0.081176  0  0.960862  0  0  0.094955  0  1.020622  0  0  0.097677  0  1.019085  0  0.040083  0  0.098104  0.09299  0  1.021818  0
H  H22  1  0.23383046  0.48466738  0.00659124  1  0  0.081175  0  0.960842  0  0  0.094952  0  1.020608  0  0  0.097663  0  1.019083  0  0.040084  0  0.098081  0.092985  0  1.02181  0
H  H23  1  0.26616671  0.98466682  0.99340802  1  0  0.081173  0  0.960891  0  0  0.094928  0  1.020675  0  0  0.097651  0  1.019138  0  0.040101  0  0.098094  0.092964  0  1.021871  0
H  H24  1  0.92178373  0.73255450  0.04110957  1  0  0.087919  0  0.954646  0  0  0.101574  0  1.013503  0  0  0.104468  0  1.012259  0  0.053863  0  0.098224  0.099504  0  1.014449  0
H  H25  1  0.57822263  0.23255506  0.95889149  1  0  0.087888  0  0.954697  0  0  0.101565  0  1.013525  0  0  0.10446  0  1.012281  0  0.053883  0  0.098197  0.099493  0  1.014474  0
H  H26  1  0.07822249  0.26744438  0.95889158  1  0  0.087913  0  0.954597  0  0  0.101561  0  1.013459  0  0  0.104455  0  1.012219  0  0.053847  0  0.098215  0.099492  0  1.014406  0
H  H27  1  0.42177616  0.76744537  0.04110947  1  0  0.087901  0  0.954689  0  0  0.101577  0  1.013511  0  0  0.104472  0  1.012269  0  0.053867  0  0.098205  0.099506  0  1.01446  0
H  H28  1  0.92992057  0.76993114  0.17712458  1  0  0.087295  0  0.979287  0  0  0.096254  0  1.045078  0  0  0.098146  0  1.046658  0  0.050149  0  0.094587  0.094912  0  1.044046  0
H  H29  1  0.57008431  0.26993248  0.82287586  1  0  0.087314  0  0.979286  0  0  0.096275  0  1.045068  0  0  0.098167  0  1.046649  0  0.050021  0  0.094599  0.094933  0  1.044036  0
H  H30  1  0.07008268  0.23006774  0.82287532  1  0  0.087311  0  0.97929  0  0  0.096275  0  1.045068  0  0  0.098167  0  1.046646  0  0.050011  0  0.094602  0.094933  0  1.044037  0
H  H31  1  0.42991597  0.73006873  0.17712514  1  0  0.087323  0  0.979278  0  0  0.096275  0  1.045067  0  0  0.098169  0  1.04664  0  0.050041  0  0.094601  0.094933  0  1.044035  0
H  H32  1  0.84603217  0.72731606  0.31298424  1  0  0.10323  0  0.938396  0  0  0.113844  0  0.996172  0  0  0.117034  0  0.994207  0  0.111089  0  0.106924  0.111493  0  0.997705  0
H  H33  1  0.65396973  0.22731740  0.68701554  1  0  0.103243  0  0.938382  0  0  0.113853  0  0.996157  0  0  0.117044  0  0.994193  0  0.111086  0  0.106918  0.111503  0  0.99769  0
H  H34  1  0.15396959  0.27268281  0.68701563  1  0  0.103265  0  0.938362  0  0  0.11387  0  0.996137  0  0  0.117061  0  0.994173  0  0.11108  0  0.106924  0.11152  0  0.997671  0
H  H35  1  0.34602757  0.77268303  0.31298480  1  0  0.103238  0  0.938366  0  0  0.113853  0  0.996139  0  0  0.117043  0  0.994176  0  0.111085  0  0.106933  0.111501  0  0.997673  0
H  H36  1  0.56294506  0.44630155  0.23025640  1  0  0.105282  0  0.960465  0  0  0.114176  0  1.023843  0  0  0.117542  0  1.021771  0  0.099695  0  0.107863  0.11173  0  1.025442  0
H  H37  1  0.93705833  0.94630254  0.76974284  1  0  0.105286  0  0.960433  0  0  0.114147  0  1.02385  0  0  0.117514  0  1.021777  0  0.099707  0  0.107858  0.1117  0  1.02545  0
H  H38  1  0.43705671  0.55369655  0.76974347  1  0  0.105292  0  0.960463  0  0  0.114154  0  1.023871  0  0  0.11752  0  1.0218  0  0.099719  0  0.107857  0.111708  0  1.02547  0
H  H39  1  0.06293897  0.05369789  0.23025750  1  0  0.105263  0  0.960453  0  0  0.114127  0  1.023868  0  0  0.117493  0  1.021796  0  0.099738  0  0.107845  0.11168  0  1.025467  0
H  H40  1  0.63860741  0.48803916  0.09471117  1  0  0.088012  0  0.953982  0  0  0.101282  0  1.011296  0  0  0.104072  0  1.010382  0  0.066056  0  0.098684  0.099264  0  1.012086  0
H  H41  1  0.86140192  0.98804093  0.90528822  1  0  0.088012  0  0.953899  0  0  0.101295  0  1.011198  0  0  0.104084  0  1.010284  0  0.064703  0  0.098694  0.099274  0  1.011993  0
H  H42  1  0.36139881  0.51195816  0.90528823  1  0  0.088004  0  0.953951  0  0  0.101276  0  1.011269  0  0  0.104064  0  1.010356  0  0.064713  0  0.0987  0.09927  0  1.012046  0
H  H43  1  0.13859687  0.01195950  0.09471158  1  0  0.088  0  0.95391  0  0  0.101286  0  1.011204  0  0  0.104074  0  1.010291  0  0.064695  0  0.098695  0.099264  0  1.012  0
H  H44  1  0.54901148  0.86938546  0.45210467  1  0  0.044147  0  0.90406  0  0  0.050711  0  0.971327  0  0  0.052143  0  0.965817  0  0.162595  0  0.141225  0.049393  0  0.975422  0
H  H45  1  0.95098447  0.36938680  0.54789672  1  0  0.044093  0  0.904033  0  0  0.050704  0  0.971273  0  0  0.052091  0  0.965816  0  0.16262  0  0.141218  0.049383  0  0.975373  0
H  H46  1  0.45098582  0.13061419  0.54789625  1  0  0.044091  0  0.904053  0  0  0.050705  0  0.971289  0  0  0.05209  0  0.965833  0  0.162621  0  0.141209  0.049383  0  0.975388  0
H  H47  1  0.04901432  0.63061285  0.45210483  1  0  0.044096  0  0.904044  0  0  0.050704  0  0.971289  0  0  0.052096  0  0.965826  0  0.162635  0  0.141216  0.049383  0  0.975388  0
C  C48  1  0.99661352  0.67287803  0.66543367  1  0  0.73355  0  3.830805  0  0  0.684478  0  4.127247  0  0  0.721305  0  4.115055  0  1.562634  0  0.239466  0.65941  0  4.134438  0
C  C49  1  0.50338690  0.17287859  0.33456608  1  0  0.733619  0  3.830852  0  0  0.684596  0  4.127229  0  0  0.721423  0  4.115037  0  1.562652  0  0.239522  0.659529  0  4.134422  0
C  C50  1  0.00338527  0.32712240  0.33456671  1  0  0.733516  0  3.830855  0  0  0.684451  0  4.127289  0  0  0.721279  0  4.115099  0  1.562626  0  0.239431  0.659383  0  4.134481  0
C  C51  1  0.49661189  0.82712106  0.66543372  1  0  0.733498  0  3.830856  0  0  0.684457  0  4.127253  0  0  0.721284  0  4.115064  0  1.562636  0  0.239452  0.659389  0  4.134445  0
C  C52  1  0.97112958  0.64680686  0.74902944  1  0  -0.074711  0  3.725991  0  0  -0.05176  0  3.957207  0  0  -0.060295  0  3.97842  0  -0.02808  0  -0.010838  -0.04628  0  3.94306  0
C  C53  1  0.52886786  0.14680665  0.25096907  1  0  -0.074723  0  3.725997  0  0  -0.051782  0  3.957199  0  0  -0.060317  0  3.978411  0  -0.028056  0  -0.01082  -0.046302  0  3.943051  0
C  C54  1  0.02886921  0.35319357  0.25096977  1  0  -0.074649  0  3.725945  0  0  -0.051704  0  3.957159  0  0  -0.060238  0  3.97837  0  -0.028009  0  -0.010817  -0.046223  0  3.94301  0
C  C55  1  0.47113093  0.85319223  0.74903073  1  0  -0.074632  0  3.725925  0  0  -0.051684  0  3.957124  0  0  -0.060215  0  3.978335  0  -0.02806  0  -0.010809  -0.046202  0  3.942977  0
C  C56  1  0.03442361  0.71766467  0.80767793  1  0  -0.050372  0  3.726967  0  0  -0.074452  0  3.971008  0  0  -0.073329  0  3.991658  0  -0.014813  0  -0.077707  -0.075008  0  3.957039  0
C  C57  1  0.46557504  0.21766368  0.19232137  1  0  -0.050386  0  3.726995  0  0  -0.074469  0  3.971052  0  0  -0.073344  0  3.991701  0  -0.014783  0  -0.077744  -0.075025  0  3.957086  0
C  C58  1  0.96557667  0.28233576  0.19232074  1  0  -0.050444  0  3.727017  0  0  -0.074519  0  3.971074  0  0  -0.073396  0  3.991724  0  -0.014816  0  -0.077751  -0.075076  0  3.957107  0
C  C59  1  0.53442374  0.78233597  0.80767901  1  0  -0.050438  0  3.726985  0  0  -0.074519  0  3.971038  0  0  -0.073397  0  3.991688  0  -0.014798  0  -0.077747  -0.075076  0  3.957071  0
C  C60  1  0.99525911  0.70038605  0.88506975  1  0  -0.1178  0  3.721508  0  0  -0.131679  0  3.962095  0  0  -0.136348  0  3.984004  0  -0.049838  0  -0.090122  -0.128568  0  3.947221  0
C  C61  1  0.50473981  0.20038350  0.11492821  1  0  -0.117839  0  3.721593  0  0  -0.131724  0  3.962166  0  0  -0.136393  0  3.984074  0  -0.049841  0  -0.090095  -0.128614  0  3.947292  0
C  C62  1  0.00473968  0.29961749  0.11492946  1  0  -0.117829  0  3.721637  0  0  -0.131729  0  3.962208  0  0  -0.136399  0  3.984119  0  -0.049831  0  -0.090125  -0.12862  0  3.947336  0
C  C63  1  0.49526046  0.79961693  0.88507162  1  0  -0.117842  0  3.721538  0  0  -0.131724  0  3.962116  0  0  -0.136394  0  3.984023  0  -0.04983  0  -0.09011  -0.128615  0  3.947243  0
C  C64  1  0.89031573  0.61119758  0.90636597  1  0  0.086064  0  3.831336  0  0  0.105224  0  4.059628  0  0  0.10673  0  4.084207  0  -0.02913  0  -0.011073  0.104344  0  4.042803  0
C  C65  1  0.60968469  0.11119581  0.09363261  1  0  0.086006  0  3.83139  0  0  0.105238  0  4.059607  0  0  0.106744  0  4.084185  0  -0.028846  0  -0.011118  0.104358  0  4.042784  0
C  C66  1  0.10968455  0.38880440  0.09363269  1  0  0.085961  0  3.831464  0  0  0.105194  0  4.059682  0  0  0.1067  0  4.084257  0  -0.028867  0  -0.011128  0.104314  0  4.042858  0
C  C67  1  0.39031559  0.88880462  0.90636722  1  0  0.086035  0  3.831384  0  0  0.105245  0  4.059629  0  0  0.106752  0  4.084207  0  -0.028841  0  -0.011119  0.104366  0  4.042807  0
C  C68  1  0.83391834  0.53864612  0.84738680  1  0  -0.118167  0  3.729568  0  0  -0.133846  0  3.975705  0  0  -0.139006  0  3.998356  0  -0.08875  0  -0.086456  -0.130406  0  3.960309  0
C  C69  1  0.66608207  0.03864513  0.15261295  1  0  -0.118082  0  3.729531  0  0  -0.133796  0  3.97566  0  0  -0.138956  0  3.99831  0  -0.089066  0  -0.086449  -0.130356  0  3.960262  0
C  C70  1  0.16608342  0.46135431  0.15261307  1  0  -0.118057  0  3.729486  0  0  -0.133765  0  3.975635  0  0  -0.138924  0  3.998285  0  -0.089009  0  -0.086441  -0.130325  0  3.960237  0
C  C71  1  0.33391672  0.96135452  0.84738626  1  0  -0.118085  0  3.729455  0  0  -0.133787  0  3.975608  0  0  -0.138946  0  3.998259  0  -0.089057  0  -0.086451  -0.130347  0  3.960211  0
C  C72  1  0.87173019  0.55635534  0.76973195  1  0  -0.04955  0  3.732655  0  0  -0.076999  0  3.987751  0  0  -0.075331  0  4.007119  0  0.009365  0  -0.072865  -0.077908  0  3.974598  0
C  C73  1  0.62827022  0.05635512  0.23026722  1  0  -0.049554  0  3.732643  0  0  -0.076989  0  3.98773  0  0  -0.075323  0  4.007104  0  0.009371  0  -0.072837  -0.077897  0  3.974575  0
C  C74  1  0.12827008  0.44364587  0.23026847  1  0  -0.049601  0  3.732617  0  0  -0.077039  0  3.987711  0  0  -0.075372  0  4.007081  0  0.009331  0  -0.072849  -0.077948  0  3.974557  0
C  C75  1  0.37172857  0.94364376  0.76973199  1  0  -0.049603  0  3.73269  0  0  -0.077037  0  3.987774  0  0  -0.075372  0  4.007144  0  0.009353  0  -0.072849  -0.077945  0  3.97462  0
C  C76  1  0.83309172  0.59153403  0.98536138  1  0  -0.107119  0  3.765615  0  0  -0.128608  0  4.019569  0  0  -0.130094  0  4.039887  0  -0.066246  0  -0.088865  -0.127451  0  4.005533  0
C  C77  1  0.66691166  0.09153227  0.01463786  1  0  -0.10711  0  3.765465  0  0  -0.128702  0  4.019432  0  0  -0.130188  0  4.039748  0  -0.066246  0  -0.088878  -0.127545  0  4.005397  0
C  C78  1  0.16691004  0.40846717  0.01463849  1  0  -0.107108  0  3.76547  0  0  -0.128693  0  4.019416  0  0  -0.130167  0  4.039733  0  -0.066206  0  -0.088876  -0.127536  0  4.005381  0
C  C79  1  0.33309010  0.90846739  0.98536201  1  0  -0.107141  0  3.765557  0  0  -0.128707  0  4.019519  0  0  -0.130192  0  4.039835  0  -0.066217  0  -0.088886  -0.127549  0  4.005483  0
C  C80  1  0.85243400  0.65656066  0.04759337  1  0  -0.117908  0  3.748432  0  0  -0.138114  0  3.999956  0  0  -0.140772  0  4.019785  0  -0.044062  0  -0.092159  -0.136177  0  3.986258  0
C  C81  1  0.64756939  0.15656123  0.95240586  1  0  -0.117849  0  3.748411  0  0  -0.138067  0  3.999943  0  0  -0.140721  0  4.019775  0  -0.044056  0  -0.092136  -0.136129  0  3.986244  0
C  C82  1  0.14756776  0.34343899  0.95240650  1  0  -0.117861  0  3.748293  0  0  -0.138061  0  3.999831  0  0  -0.140714  0  4.019659  0  -0.044072  0  -0.092145  -0.136123  0  3.986131  0
C  C83  1  0.35243089  0.84343920  0.04759455  1  0  -0.117858  0  3.748444  0  0  -0.138052  0  3.999978  0  0  -0.14071  0  4.019806  0  -0.044069  0  -0.092133  -0.136114  0  3.986279  0
C  C84  1  0.79285651  0.63212651  0.12566082  1  0  0.090835  0  3.839354  0  0  0.109416  0  4.069717  0  0  0.111886  0  4.093672  0  -0.04587  0  -0.010789  0.107907  0  4.053322  0
C  C85  1  0.70714985  0.13212785  0.87433966  1  0  0.090856  0  3.83932  0  0  0.109447  0  4.069675  0  0  0.111904  0  4.093646  0  -0.045505  0  -0.010755  0.107936  0  4.053279  0
C  C86  1  0.20714822  0.36787237  0.87433971  1  0  0.090926  0  3.839376  0  0  0.109532  0  4.069698  0  0  0.111983  0  4.093678  0  -0.045623  0  -0.010713  0.10802  0  4.053307  0
C  C87  1  0.29284894  0.86787181  0.12566071  1  0  0.090937  0  3.839407  0  0  0.109469  0  4.069837  0  0  0.111938  0  4.093792  0  -0.045523  0  -0.010713  0.107958  0  4.053441  0
C  C88  1  0.84770473  0.69917574  0.18856490  1  0  -0.12392  0  3.721983  0  0  -0.140756  0  3.96838  0  0  -0.145917  0  3.990591  0  0.013915  0  -0.090332  -0.137332  0  3.953208  0
C  C89  1  0.65230014  0.19917708  0.81143495  1  0  -0.123997  0  3.722101  0  0  -0.140844  0  3.968491  0  0  -0.146001  0  3.990706  0  0.013793  0  -0.090359  -0.137419  0  3.95332  0
C  C90  1  0.15229852  0.30082314  0.81143559  1  0  -0.124034  0  3.722114  0  0  -0.140894  0  3.968505  0  0  -0.146048  0  3.990721  0  0.013799  0  -0.090399  -0.137468  0  3.953334  0
C  C91  1  0.34770013  0.80082413  0.18856488  1  0  -0.124034  0  3.72222  0  0  -0.140853  0  3.968629  0  0  -0.146013  0  3.990841  0  0.013799  0  -0.090377  -0.137427  0  3.953457  0
C  C92  1  0.80210245  0.67540182  0.26465549  1  0  -0.057117  0  3.734453  0  0  -0.080927  0  3.982676  0  0  -0.079543  0  4.002519  0  -0.063491  0  -0.081116  -0.081593  0  3.969126  0
C  C93  1  0.69790094  0.17540316  0.73534550  1  0  -0.057105  0  3.734498  0  0  -0.080904  0  3.982704  0  0  -0.07952  0  4.002547  0  -0.063498  0  -0.081105  -0.081569  0  3.969155  0
C  C94  1  0.19789783  0.32459705  0.73534493  1  0  -0.057178  0  3.734467  0  0  -0.080962  0  3.982672  0  0  -0.079577  0  4.002514  0  -0.063492  0  -0.081136  -0.081627  0  3.969123  0
C  C95  1  0.30209934  0.82459805  0.26465549  1  0  -0.057089  0  3.734485  0  0  -0.080888  0  3.982702  0  0  -0.079504  0  4.002546  0  -0.06348  0  -0.081114  -0.081552  0  3.969152  0
C  C96  1  0.69967311  0.58367637  0.27981509  1  0  -0.080737  0  3.742491  0  0  -0.057988  0  3.971649  0  0  -0.067479  0  3.995078  0  -0.044931  0  -0.018837  -0.05184  0  3.955951  0
C  C97  1  0.80032879  0.08367771  0.72018470  1  0  -0.080797  0  3.742495  0  0  -0.058036  0  3.971662  0  0  -0.067529  0  3.99509  0  -0.044919  0  -0.018883  -0.051891  0  3.955966  0
C  C98  1  0.30032716  0.41632250  0.72018474  1  0  -0.08072  0  3.742499  0  0  -0.057942  0  3.971663  0  0  -0.067435  0  3.995093  0  -0.044904  0  -0.018816  -0.051796  0  3.955965  0
C  C99  1  0.19967000  0.91632272  0.27981568  1  0  -0.080796  0  3.742497  0  0  -0.058069  0  3.971685  0  0  -0.067559  0  3.99511  0  -0.044878  0  -0.018876  -0.051923  0  3.955989  0
C  C100  1  0.64182617  0.51729669  0.21741793  1  0  -0.058004  0  3.754622  0  0  -0.082584  0  4.002774  0  0  -0.081493  0  4.023653  0  0.001068  0  -0.080517  -0.083109  0  3.98864  0
C  C101  1  0.85817722  0.01729802  0.78258130  1  0  -0.057905  0  3.754564  0  0  -0.082437  0  4.002678  0  0  -0.081347  0  4.023558  0  0.001018  0  -0.080449  -0.082963  0  3.988545  0
C  C102  1  0.35817708  0.48270219  0.78258139  1  0  -0.057945  0  3.754674  0  0  -0.082485  0  4.002797  0  0  -0.081393  0  4.023675  0  0.00101  0  -0.080466  -0.083011  0  3.988668  0
C  C103  1  0.14182306  0.98270241  0.21741911  1  0  -0.057889  0  3.754571  0  0  -0.082421  0  4.002698  0  0  -0.081331  0  4.023575  0  0.000931  0  -0.080441  -0.082946  0  3.988563  0
C  C104  1  0.68537232  0.54142982  0.14173823  1  0  -0.123433  0  3.742753  0  0  -0.140959  0  3.990103  0  0  -0.146026  0  4.012091  0  -0.079118  0  -0.09123  -0.137628  0  3.975259  0
C  C105  1  0.81463553  0.04143115  0.85826112  1  0  -0.123488  0  3.742651  0  0  -0.141042  0  3.989997  0  0  -0.146104  0  4.011988  0  -0.077846  0  -0.091293  -0.137707  0  3.975156  0
C  C106  1  0.31463242  0.45856906  0.85826113  1  0  -0.123465  0  3.742777  0  0  -0.141016  0  3.990134  0  0  -0.146075  0  4.012125  0  -0.077749  0  -0.091275  -0.137693  0  3.975288  0
C  C107  1  0.18536474  0.95856928  0.14173872  1  0  -0.1235  0  3.742672  0  0  -0.14104  0  3.990043  0  0  -0.146105  0  4.012029  0  -0.077834  0  -0.091301  -0.137706  0  3.975202  0
C  C108  1  0.64887770  0.55383465  0.36021388  1  0  0.722665  0  3.842209  0  0  0.678643  0  4.132113  0  0  0.7144  0  4.121505  0  1.56115  0  0.234426  0.654266  0  4.138415  0
C  C109  1  0.85112271  0.05383521  0.63978587  1  0  0.722665  0  3.842119  0  0  0.678578  0  4.132118  0  0  0.714336  0  4.121508  0  1.561153  0  0.234419  0.6542  0  4.13842  0
C  C110  1  0.35112109  0.44616578  0.63978591  1  0  0.722691  0  3.842067  0  0  0.678551  0  4.132163  0  0  0.714307  0  4.121554  0  1.561156  0  0.234404  0.654173  0  4.138463  0
C  C111  1  0.14887459  0.94616522  0.36021447  1  0  0.722716  0  3.842008  0  0  0.678679  0  4.131939  0  0  0.714435  0  4.12133  0  1.560684  0  0.234483  0.654301  0  4.13824  0
C  C112  1  0.70498815  0.86970743  0.47622819  1  0  0.661453  0  3.800043  0  0  0.593284  0  4.109969  0  0  0.628835  0  4.09648  0  1.500831  0  0.185725  0.569053  0  4.118072  0
C  C113  1  0.79501077  0.36970800  0.52377211  1  0  0.661652  0  3.799912  0  0  0.593425  0  4.109898  0  0  0.629002  0  4.096399  0  1.50082  0  0.185758  0.569195  0  4.118  0
C  C114  1  0.29500915  0.13029222  0.52377215  1  0  0.661668  0  3.79989  0  0  0.593436  0  4.10988  0  0  0.629015  0  4.09638  0  1.500885  0  0.185761  0.569205  0  4.117984  0
C  C115  1  0.20499099  0.63029243  0.47622893  1  0  0.661702  0  3.799843  0  0  0.59347  0  4.109841  0  0  0.629045  0  4.09634  0  1.500882  0  0.18577  0.569239  0  4.117943  0
O  O116  1  0.91866161  0.61183919  0.61252728  1  0  -0.751019  0  2.008968  0  0  -0.709053  0  2.26733  0  0  -0.735648  0  2.253863  0  -1.197585  0  -0.424939  -0.689534  0  2.275912  0
O  O117  1  0.58133732  0.11183975  0.38747243  1  0  -0.751093  0  2.009001  0  0  -0.709146  0  2.267354  0  0  -0.73574  0  2.253886  0  -1.197558  0  -0.42501  -0.689629  0  2.275938  0
O  O118  1  0.08133867  0.38816124  0.38747255  1  0  -0.751017  0  2.00897  0  0  -0.709057  0  2.267336  0  0  -0.735654  0  2.253867  0  -1.197593  0  -0.424938  -0.689537  0  2.275919  0
O  O119  1  0.41866147  0.88815912  0.61252678  1  0  -0.751003  0  2.008994  0  0  -0.709055  0  2.26737  0  0  -0.735656  0  2.253906  0  -1.197563  0  -0.42493  -0.689534  0  2.275954  0
O  O120  1  0.08702687  0.75579232  0.65019224  1  0  -0.703507  0  2.063861  0  0  -0.66094  0  2.32059  0  0  -0.687407  0  2.310698  0  -1.188407  0  -0.381924  -0.641903  0  2.326926  0
O  O121  1  0.41297326  0.25579288  0.34980709  1  0  -0.703495  0  2.063891  0  0  -0.660949  0  2.320595  0  0  -0.687419  0  2.310704  0  -1.188424  0  -0.381922  -0.641915  0  2.326931  0
O  O122  1  0.91297340  0.24420811  0.34980759  1  0  -0.703476  0  2.063874  0  0  -0.660913  0  2.320608  0  0  -0.687371  0  2.310699  0  -1.188374  0  -0.381901  -0.641881  0  2.326944  0
O  O123  1  0.58702701  0.74420677  0.65019333  1  0  -0.703481  0  2.063889  0  0  -0.660936  0  2.320617  0  0  -0.68739  0  2.3107  0  -1.1884  0  -0.381927  -0.641903  0  2.326954  0
O  O124  1  0.68925415  0.61787442  0.41607098  1  0  -0.738897  0  2.03007  0  0  -0.698758  0  2.281182  0  0  -0.725035  0  2.269635  0  -1.204714  0  -0.400944  -0.679699  0  2.288667  0
O  O125  1  0.81074626  0.11787498  0.58392818  1  0  -0.73891  0  2.030041  0  0  -0.698744  0  2.281185  0  0  -0.725017  0  2.26963  0  -1.204755  0  -0.400932  -0.679686  0  2.28867  0
O  O126  1  0.31074464  0.38212524  0.58392823  1  0  -0.738917  0  2.030008  0  0  -0.698735  0  2.281178  0  0  -0.725011  0  2.269624  0  -1.204737  0  -0.400931  -0.679675  0  2.288663  0
O  O127  1  0.18924955  0.88212390  0.41607154  1  0  -0.73892  0  2.029974  0  0  -0.698779  0  2.281111  0  0  -0.72506  0  2.269562  0  -1.204791  0  -0.400984  -0.679717  0  2.288597  0
O  O128  1  0.56589026  0.46589760  0.36741761  1  0  -0.715368  0  2.055186  0  0  -0.674914  0  2.308131  0  0  -0.700733  0  2.297325  0  -1.189585  0  -0.400073  -0.656246  0  2.315217  0
O  O129  1  0.93410718  0.96589859  0.63258148  1  0  -0.715342  0  2.055193  0  0  -0.674874  0  2.308192  0  0  -0.700693  0  2.297387  0  -1.189566  0  -0.400079  -0.656203  0  2.315278  0
O  O130  1  0.43410853  0.53410205  0.63258160  1  0  -0.715372  0  2.055127  0  0  -0.674883  0  2.308146  0  0  -0.700701  0  2.29734  0  -1.18958  0  -0.400085  -0.656216  0  2.315231  0
O  O131  1  0.06589161  0.03410261  0.36741890  1  0  -0.715391  0  2.055102  0  0  -0.674908  0  2.308035  0  0  -0.700726  0  2.297229  0  -1.189111  0  -0.40009  -0.656243  0  2.315119  0
O  O132  1  0.78018962  0.78869782  0.50902059  1  0  -0.7331  0  2.126656  0  0  -0.693363  0  2.397107  0  0  -0.719881  0  2.385108  0  -1.194389  0  -0.393444  -0.67388  0  2.404781  0
O  O133  1  0.71981079  0.28869761  0.49098033  1  0  -0.733211  0  2.126574  0  0  -0.693475  0  2.397077  0  0  -0.719988  0  2.385054  0  -1.194372  0  -0.393476  -0.673994  0  2.404752  0
O  O134  1  0.21980917  0.21130261  0.49097979  1  0  -0.733209  0  2.126512  0  0  -0.693479  0  2.397023  0  0  -0.719991  0  2.384997  0  -1.194385  0  -0.393476  -0.673996  0  2.404698  0
O  O135  1  0.28019097  0.71130205  0.50902012  1  0  -0.733226  0  2.12654  0  0  -0.693479  0  2.397029  0  0  -0.719992  0  2.385009  0  -1.194395  0  -0.39347  -0.673997  0  2.404709  0
O  O136  1  0.80938591  0.95065808  0.47056265  1  0  -0.746702  0  2.232237  0  0  -0.696264  0  2.491685  0  0  -0.723883  0  2.480784  0  -1.203461  0  -0.413181  -0.67609  0  2.498696  0
O  O137  1  0.69060856  0.45065709  0.52943753  1  0  -0.746717  0  2.232252  0  0  -0.696275  0  2.491732  0  0  -0.723889  0  2.480809  0  -1.203501  0  -0.413162  -0.676099  0  2.498743  0
O  O138  1  0.19060693  0.04934312  0.52943758  1  0  -0.746746  0  2.23228  0  0  -0.696299  0  2.491762  0  0  -0.723913  0  2.480838  0  -1.203564  0  -0.413156  -0.676122  0  2.498773  0
O  O139  1  0.30939320  0.54934256  0.47056234  1  0  -0.746769  0  2.23225  0  0  -0.696325  0  2.491736  0  0  -0.72394  0  2.480814  0  -1.203595  0  -0.413173  -0.676148  0  2.498746  0
