# generated using pymatgen
data_KVH12C12N2O9
_symmetry_space_group_name_H-M   'P 1'
_cell_length_a   9.55230281
_cell_length_b   12.82542967
_cell_length_c   13.88790000
_cell_angle_alpha   90.00000000
_cell_angle_beta   90.00000000
_cell_angle_gamma   97.45382146
_symmetry_Int_Tables_number   1
_chemical_formula_structural   KVH12C12N2O9
_chemical_formula_sum   'K4 V4 H48 C48 N8 O36'
_cell_volume   1687.06218103
_cell_formula_units_Z   4
loop_
 _symmetry_equiv_pos_site_id
 _symmetry_equiv_pos_as_xyz
  1  'x, y, z'
loop_
 _atom_site_type_symbol
 _atom_site_label
 _atom_site_symmetry_multiplicity
 _atom_site_fract_x
 _atom_site_fract_y
 _atom_site_fract_z
 _atom_site_occupancy
 _atom_site_hle17_bader_spin_density
 _atom_site_hle17_ddec_charge
 _atom_site_hle17_ddec_spin_density
 _atom_site_hle17_ddec_sum_bond_order
 _atom_site_hle17_magmom
 _atom_site_hse06_10hf_bader_spin_density
 _atom_site_hse06_10hf_ddec_charge
 _atom_site_hse06_10hf_ddec_spin_density
 _atom_site_hse06_10hf_ddec_sum_bond_order
 _atom_site_hse06_10hf_magmom
 _atom_site_hse06_bader_spin_density
 _atom_site_hse06_ddec_charge
 _atom_site_hse06_ddec_spin_density
 _atom_site_hse06_ddec_sum_bond_order
 _atom_site_hse06_magmom
 _atom_site_pbe_bader_charge
 _atom_site_pbe_bader_spin_density
 _atom_site_pbe_cm5_charge
 _atom_site_pbe_ddec_charge
 _atom_site_pbe_ddec_spin_density
 _atom_site_pbe_ddec_sum_bond_order
 _atom_site_pbe_magmom
K  K0  1  0.40563964  0.96037828  0.64409738  1  0  0.90841  0  0.482301  0  0  0.85278  0  0.677959  0  0  0.868733  0  0.65271  0  0.883015  0  0.796275  0.84078  0  0.696192  0
K  K1  1  0.40563524  0.46037873  0.85590622  1  0  0.908417  0  0.482261  0  0  0.852777  0  0.677915  0  0  0.868738  0  0.652663  0  0.883043  0  0.796261  0.84078  0  0.696146  0
K  K2  1  0.59436335  0.03961925  0.35590190  1  0  0.908414  0  0.4823  0  0  0.852753  0  0.678002  0  0  0.868722  0  0.652742  0  0.88307  0  0.796286  0.840761  0  0.696229  0
K  K3  1  0.59436078  0.53961487  0.14408514  1  0  0.908388  0  0.482288  0  0  0.852759  0  0.67795  0  0  0.868717  0  0.652698  0  0.883052  0  0.796263  0.840763  0  0.69618  0
V  V4  1  0.63279021  0.91057743  0.84455821  1  0  1.664358  0  3.00944  0  0  1.681742  0  3.403463  0  0  1.765547  0  3.3933  0  2.075329  0  1.494304  1.621808  0  3.415664  0
V  V5  1  0.63278413  0.41058024  0.65544323  1  0  1.664327  0  3.009599  0  0  1.681723  0  3.4036  0  0  1.765468  0  3.393538  0  2.075486  0  1.494318  1.621829  0  3.415731  0
V  V6  1  0.36721487  0.08942010  0.15544683  1  0  1.664288  0  3.009594  0  0  1.681672  0  3.403603  0  0  1.765547  0  3.39334  0  2.075497  0  1.494251  1.621766  0  3.415762  0
V  V7  1  0.36721458  0.58942279  0.34455749  1  0  1.664206  0  3.009618  0  0  1.681574  0  3.403655  0  0  1.765349  0  3.393555  0  2.075446  0  1.494241  1.621855  0  3.415504  0
H  H8  1  0.56603385  0.12154468  0.91322662  1  0  0.098858  0  0.942114  0  0  0.108129  0  1.002113  0  0  0.111111  0  0.998884  0  0.099902  0  0.129619  0.10604  0  1.00431  0
H  H9  1  0.56603370  0.62154817  0.58677410  1  0  0.098866  0  0.942151  0  0  0.108143  0  1.00213  0  0  0.111125  0  0.998909  0  0.099857  0  0.12963  0.106054  0  1.004327  0
H  H10  1  0.43396956  0.87845520  0.08677554  1  0  0.09884  0  0.942191  0  0  0.108107  0  1.002173  0  0  0.111091  0  0.998943  0  0.099832  0  0.129611  0.106017  0  1.004369  0
H  H11  1  0.43396425  0.37845644  0.41322662  1  0  0.098881  0  0.942071  0  0  0.108142  0  1.002072  0  0  0.111129  0  0.998835  0  0.099884  0  0.129637  0.106051  0  1.004273  0
H  H12  1  0.69503263  0.29826332  0.96346532  1  0  0.123318  0  0.934839  0  0  0.134919  0  0.987318  0  0  0.138136  0  0.986554  0  0.101439  0  0.123733  0.132548  0  0.988322  0
H  H13  1  0.69503416  0.79826444  0.53653612  1  0  0.123312  0  0.934857  0  0  0.134865  0  0.987386  0  0  0.138082  0  0.98662  0  0.100983  0  0.123701  0.132505  0  0.988376  0
H  H14  1  0.30496804  0.70173892  0.03653468  1  0  0.123327  0  0.934847  0  0  0.134925  0  0.987324  0  0  0.13814  0  0.986561  0  0.101468  0  0.123738  0.132545  0  0.988338  0
H  H15  1  0.30496483  0.20174016  0.46346604  1  0  0.12336  0  0.934886  0  0  0.13495  0  0.987348  0  0  0.138166  0  0.986586  0  0.10107  0  0.123729  0.132588  0  0.988339  0
H  H16  1  0.95895798  0.32129775  0.96473693  1  0  0.102237  0  0.930278  0  0  0.115118  0  0.984577  0  0  0.118268  0  0.982132  0  0.140273  0  0.115059  0.112679  0  0.986614  0
H  H17  1  0.95895819  0.82129730  0.53526235  1  0  0.10224  0  0.930288  0  0  0.115125  0  0.984589  0  0  0.118277  0  0.982142  0  0.140278  0  0.115056  0.112689  0  0.986625  0
H  H18  1  0.04104206  0.67870686  0.03525947  1  0  0.102232  0  0.930203  0  0  0.115113  0  0.984513  0  0  0.118265  0  0.982061  0  0.140382  0  0.115068  0.112673  0  0.986551  0
H  H19  1  0.04103935  0.17870495  0.46473837  1  0  0.102232  0  0.930289  0  0  0.115114  0  0.98459  0  0  0.118266  0  0.982141  0  0.140334  0  0.115049  0.112675  0  0.986627  0
H  H20  1  0.08476950  0.17058121  0.91580008  1  0  0.115247  0  0.984115  0  0  0.123028  0  1.047489  0  0  0.126457  0  1.046378  0  0.103748  0  0.108954  0.120663  0  1.048347  0
H  H21  1  0.08476825  0.67057840  0.58419992  1  0  0.115282  0  0.984094  0  0  0.123059  0  1.047466  0  0  0.126484  0  1.046361  0  0.103762  0  0.108954  0.120694  0  1.048326  0
H  H22  1  0.91523395  0.82942497  0.08419703  1  0  0.115297  0  0.984122  0  0  0.123074  0  1.047484  0  0  0.126499  0  1.046377  0  0.103772  0  0.108975  0.12071  0  1.048342  0
H  H23  1  0.91522705  0.32942306  0.41580008  1  0  0.115216  0  0.984139  0  0  0.123003  0  1.0475  0  0  0.126433  0  1.046395  0  0.1037  0  0.108929  0.120639  0  1.048359  0
H  H24  1  0.17709511  0.03412426  0.88654656  1  0  0.127761  0  0.960513  0  0  0.13678  0  1.019732  0  0  0.141575  0  1.016462  0  0.119254  0  0.11385  0.132744  0  1.023545  0
H  H25  1  0.17709259  0.53412617  0.61345560  1  0  0.127775  0  0.960495  0  0  0.136812  0  1.019691  0  0  0.141612  0  1.01641  0  0.11925  0  0.113846  0.132777  0  1.023504  0
H  H26  1  0.82291011  0.96587405  0.11345056  1  0  0.127803  0  0.960466  0  0  0.13682  0  1.019689  0  0  0.141621  0  1.016404  0  0.119328  0  0.113853  0.132775  0  1.023527  0
H  H27  1  0.82290166  0.46587529  0.38654584  1  0  0.127748  0  0.960525  0  0  0.136787  0  1.019711  0  0  0.141583  0  1.016438  0  0.119214  0  0.113843  0.13275  0  1.023525  0
H  H28  1  0.19825649  0.09072936  0.64431916  1  0  0.412789  0  0.895709  0  0  0.383058  0  0.959478  0  0  0.392602  0  0.945496  0  0.642116  0  0.274764  0.376321  0  0.969322  0
H  H29  1  0.19825593  0.59073049  0.85568156  1  0  0.412792  0  0.895697  0  0  0.383061  0  0.959462  0  0  0.392605  0  0.945482  0  0.642093  0  0.274769  0.376324  0  0.969306  0
H  H30  1  0.80174245  0.90926895  0.35568084  1  0  0.412759  0  0.895753  0  0  0.383081  0  0.959446  0  0  0.392624  0  0.945468  0  0.642098  0  0.274783  0.376345  0  0.96929  0
H  H31  1  0.80174484  0.40926625  0.14431844  1  0  0.412821  0  0.895658  0  0  0.383096  0  0.959412  0  0  0.392639  0  0.945433  0  0.642085  0  0.274792  0.37636  0  0.969255  0
H  H32  1  0.05420194  0.02205385  0.62076196  1  0  0.409637  0  0.84937  0  0  0.395978  0  0.897833  0  0  0.403586  0  0.88681  0  0.599464  0  0.309054  0.390565  0  0.905699  0
H  H33  1  0.05420124  0.52205419  0.87923804  1  0  0.409611  0  0.849396  0  0  0.395919  0  0.897906  0  0  0.403525  0  0.886887  0  0.599467  0  0.309046  0.390506  0  0.90577  0
H  H34  1  0.94579687  0.97794367  0.37923804  1  0  0.409629  0  0.849332  0  0  0.395937  0  0.897878  0  0  0.403544  0  0.886857  0  0.599491  0  0.309031  0.390524  0  0.905743  0
H  H35  1  0.94579666  0.47794412  0.12076124  1  0  0.409609  0  0.849395  0  0  0.395915  0  0.897917  0  0  0.403521  0  0.886897  0  0.599489  0  0.30902  0.390502  0  0.905781  0
H  H36  1  0.26458727  0.87020250  0.83621642  1  0  0.105579  0  0.969267  0  0  0.118692  0  1.027227  0  0  0.122494  0  1.023992  0  0.12372  0  0.113527  0.116101  0  1.029621  0
H  H37  1  0.26458656  0.37020610  0.66378430  1  0  0.105559  0  0.969282  0  0  0.118638  0  1.027283  0  0  0.122429  0  1.024055  0  0.123729  0  0.113534  0.116052  0  1.029668  0
H  H38  1  0.73541677  0.12979502  0.16378214  1  0  0.105581  0  0.969252  0  0  0.11866  0  1.027257  0  0  0.12245  0  1.024028  0  0.123795  0  0.113544  0.116074  0  1.02964  0
H  H39  1  0.73540979  0.62979536  0.33621210  1  0  0.105536  0  0.969266  0  0  0.11861  0  1.027281  0  0  0.122408  0  1.024045  0  0.123677  0  0.113515  0.116023  0  1.029669  0
H  H40  1  0.32158396  0.17684603  0.79038084  1  0  0.424358  0  0.876712  0  0  0.394253  0  0.939553  0  0  0.404735  0  0.924062  0  0.661828  0  0.290361  0.386819  0  0.950545  0
H  H41  1  0.32158290  0.67685029  0.70962060  1  0  0.424417  0  0.876632  0  0  0.394317  0  0.939485  0  0  0.404798  0  0.923995  0  0.661753  0  0.290394  0.386884  0  0.950478  0
H  H42  1  0.67841876  0.82314993  0.20962060  1  0  0.42435  0  0.876723  0  0  0.394257  0  0.939547  0  0  0.404738  0  0.924057  0  0.661793  0  0.290373  0.386823  0  0.950539  0
H  H43  1  0.67841513  0.32314881  0.29038012  1  0  0.424411  0  0.876641  0  0  0.394307  0  0.939502  0  0  0.404788  0  0.924012  0  0.661769  0  0.290386  0.386873  0  0.950495  0
H  H44  1  0.41972771  0.18958719  0.69880255  1  0  0.422883  0  0.877848  0  0  0.393896  0  0.938382  0  0  0.405429  0  0.921311  0  0.621616  0  0.293905  0.385709  0  0.950489  0
H  H45  1  0.41973015  0.68958752  0.80119745  1  0  0.422876  0  0.877853  0  0  0.393893  0  0.938378  0  0  0.405426  0  0.921308  0  0.621646  0  0.293914  0.385709  0  0.950481  0
H  H46  1  0.58027255  0.81041270  0.30119817  1  0  0.422888  0  0.877837  0  0  0.393907  0  0.938361  0  0  0.40544  0  0.921291  0  0.62162  0  0.293912  0.385722  0  0.950465  0
H  H47  1  0.58026810  0.31040686  0.19880327  1  0  0.42285  0  0.877869  0  0  0.393854  0  0.938403  0  0  0.405387  0  0.921334  0  0.621574  0  0.29391  0.385671  0  0.950502  0
H  H48  1  0.09097952  0.71657648  0.78250203  1  0  0.099793  0  0.974047  0  0  0.109533  0  1.035176  0  0  0.112882  0  1.033993  0  0.122045  0  0.107751  0.107261  0  1.036008  0
H  H49  1  0.09098181  0.21657929  0.71750157  1  0  0.09976  0  0.974078  0  0  0.109509  0  1.035196  0  0  0.112844  0  1.034039  0  0.122061  0  0.107735  0.107231  0  1.036045  0
H  H50  1  0.90901929  0.28342104  0.21750013  1  0  0.099765  0  0.97407  0  0  0.109506  0  1.035209  0  0  0.112846  0  1.034035  0  0.122067  0  0.107733  0.107228  0  1.036057  0
H  H51  1  0.90901740  0.78342059  0.28249483  1  0  0.099842  0  0.974093  0  0  0.109557  0  1.035235  0  0  0.112902  0  1.034086  0  0.121979  0  0.107738  0.107274  0  1.036099  0
H  H52  1  0.83065846  0.73399876  0.79063429  1  0  0.091718  0  0.922641  0  0  0.09905  0  0.98454  0  0  0.102314  0  0.98175  0  0.117478  0  0.122826  0.096661  0  0.98654  0
H  H53  1  0.83066021  0.23399842  0.70936787  1  0  0.091697  0  0.922679  0  0  0.099072  0  0.984525  0  0  0.102327  0  0.981746  0  0.117465  0  0.122857  0.096682  0  0.986526  0
H  H54  1  0.16934116  0.26600348  0.20936643  1  0  0.09166  0  0.9227  0  0  0.099032  0  0.984554  0  0  0.10229  0  0.981769  0  0.117438  0  0.122841  0.096642  0  0.986554  0
H  H55  1  0.16933782  0.76600068  0.29062925  1  0  0.091685  0  0.92266  0  0  0.099067  0  0.984489  0  0  0.102329  0  0.981705  0  0.11754  0  0.122839  0.096676  0  0.986491  0
C  C56  1  0.65720402  0.78680581  0.01915840  1  0  0.536731  0  3.920453  0  0  0.496232  0  4.224599  0  0  0.527582  0  4.214549  0  1.572755  0  0.209463  0.47482  0  4.230558  0
C  C57  1  0.65720186  0.28680705  0.48084520  1  0  0.536679  0  3.920339  0  0  0.496155  0  4.224521  0  0  0.527504  0  4.214471  0  1.572954  0  0.209443  0.474743  0  4.230483  0
C  C58  1  0.34280156  0.21318857  0.98084304  1  0  0.53676  0  3.920369  0  0  0.496214  0  4.224538  0  0  0.527567  0  4.214495  0  1.5732  0  0.209544  0.474802  0  4.230497  0
C  C59  1  0.34279672  0.71319520  0.51915336  1  0  0.536719  0  3.920698  0  0  0.496188  0  4.224819  0  0  0.527546  0  4.214764  0  1.573148  0  0.209457  0.474778  0  4.230787  0
C  C60  1  0.58340639  0.70964091  0.94449053  1  0  0.54677  0  3.908048  0  0  0.506008  0  4.208127  0  0  0.536858  0  4.19802  0  1.576367  0  0.212827  0.484774  0  4.214698  0
C  C61  1  0.58341000  0.20964529  0.55551307  1  0  0.546732  0  3.907905  0  0  0.505994  0  4.20797  0  0  0.536844  0  4.197866  0  1.576318  0  0.212829  0.484761  0  4.214542  0
C  C62  1  0.41659438  0.29035583  0.05551235  1  0  0.546845  0  3.908139  0  0  0.506183  0  4.208054  0  0  0.537024  0  4.197961  0  1.576371  0  0.212923  0.48495  0  4.214628  0
C  C63  1  0.41658712  0.79035459  0.44448405  1  0  0.546746  0  3.907923  0  0  0.506085  0  4.207865  0  0  0.536918  0  4.197784  0  1.576266  0  0.212873  0.484854  0  4.214441  0
C  C64  1  0.68071478  0.13719375  0.91566832  1  0  0.158753  0  3.628101  0  0  0.129006  0  3.881805  0  0  0.139143  0  3.895905  0  0.506799  0  0.066689  0.122748  0  3.871708  0
C  C65  1  0.68071303  0.63719409  0.58433168  1  0  0.158619  0  3.627975  0  0  0.128864  0  3.881662  0  0  0.138995  0  3.895759  0  0.506863  0  0.066633  0.122606  0  3.871571  0
C  C66  1  0.31928771  0.86280692  0.08433240  1  0  0.158807  0  3.628107  0  0  0.129077  0  3.88175  0  0  0.139212  0  3.895852  0  0.506802  0  0.066733  0.12282  0  3.871652  0
C  C67  1  0.31928163  0.36280973  0.41566904  1  0  0.15882  0  3.628105  0  0  0.129069  0  3.881715  0  0  0.139204  0  3.895818  0  0.506929  0  0.066712  0.122811  0  3.87163  0
C  C68  1  0.75292531  0.23384980  0.94351414  1  0  -0.087153  0  3.671172  0  0  -0.101594  0  3.924423  0  0  -0.107072  0  3.942235  0  0.11918  0  -0.065651  -0.098454  0  3.912849  0
C  C69  1  0.75292635  0.73385407  0.55648514  1  0  -0.087035  0  3.670931  0  0  -0.101411  0  3.924159  0  0  -0.106885  0  3.941973  0  0.119572  0  -0.065582  -0.098281  0  3.912581  0
C  C70  1  0.24707718  0.76615087  0.05648514  1  0  -0.087214  0  3.671037  0  0  -0.101667  0  3.924299  0  0  -0.107144  0  3.942109  0  0.119144  0  -0.065683  -0.098518  0  3.912727  0
C  C71  1  0.24707251  0.26614975  0.44351630  1  0  -0.087354  0  3.670979  0  0  -0.101738  0  3.92417  0  0  -0.107218  0  3.941984  0  0.119617  0  -0.065716  -0.098604  0  3.912592  0
C  C72  1  0.90002488  0.24631496  0.94349902  1  0  0.005229  0  3.710216  0  0  -0.015588  0  3.963561  0  0  -0.012031  0  3.981599  0  -0.14015  0  -0.058144  -0.017765  0  3.951545  0
C  C73  1  0.90002509  0.74631451  0.55650026  1  0  0.005203  0  3.710235  0  0  -0.015643  0  3.963588  0  0  -0.012088  0  3.981625  0  -0.140143  0  -0.058165  -0.017822  0  3.951578  0
C  C74  1  0.09997712  0.75368886  0.05649882  1  0  0.005294  0  3.709944  0  0  -0.015548  0  3.963322  0  0  -0.011989  0  3.981355  0  -0.140357  0  -0.058172  -0.01772  0  3.951299  0
C  C75  1  0.09997035  0.25368774  0.44350046  1  0  0.00525  0  3.71006  0  0  -0.01561  0  3.963421  0  0  -0.012053  0  3.981459  0  -0.140185  0  -0.058153  -0.017786  0  3.951406  0
C  C76  1  0.96998854  0.16195657  0.91695289  1  0  -0.143321  0  3.691859  0  0  -0.163033  0  3.943592  0  0  -0.170645  0  3.965324  0  -0.007308  0  -0.078838  -0.158088  0  3.92883  0
C  C77  1  0.96998770  0.66195612  0.58304567  1  0  -0.143412  0  3.691842  0  0  -0.163116  0  3.943593  0  0  -0.170724  0  3.965323  0  -0.007567  0  -0.078852  -0.158172  0  3.928834  0
C  C78  1  0.03001332  0.83804646  0.08304495  1  0  -0.143406  0  3.691767  0  0  -0.163112  0  3.943489  0  0  -0.170718  0  3.965213  0  -0.007506  0  -0.078848  -0.158166  0  3.928724  0
C  C79  1  0.03001088  0.33804613  0.41695361  1  0  -0.143272  0  3.69173  0  0  -0.162967  0  3.943496  0  0  -0.170582  0  3.96523  0  -0.007591  0  -0.078798  -0.158023  0  3.928733  0
C  C80  1  0.89159617  0.06635186  0.89091871  1  0  0.18046  0  3.733047  0  0  0.175549  0  3.980561  0  0  0.18389  0  3.99941  0  0.516616  0  0.121012  0.170115  0  3.967608  0
C  C81  1  0.89159324  0.56635141  0.60907913  1  0  0.180559  0  3.732958  0  0  0.175655  0  3.980454  0  0  0.183996  0  3.9993  0  0.516689  0  0.121044  0.17022  0  3.967503  0
C  C82  1  0.10840792  0.93365196  0.10907913  1  0  0.180461  0  3.73295  0  0  0.175608  0  3.980395  0  0  0.183951  0  3.999242  0  0.516988  0  0.121013  0.170174  0  3.967441  0
C  C83  1  0.10840297  0.43364926  0.39092231  1  0  0.180666  0  3.73284  0  0  0.17566  0  3.980412  0  0  0.184002  0  3.999261  0  0.516858  0  0.121093  0.170227  0  3.967465  0
C  C84  1  0.95637839  0.97211842  0.86351788  1  0  0.178564  0  3.757815  0  0  0.177334  0  4.006186  0  0  0.184868  0  4.023931  0  0.501041  0  0.121932  0.172191  0  3.994102  0
C  C85  1  0.95637609  0.47211887  0.63647996  1  0  0.178543  0  3.757786  0  0  0.177284  0  4.006214  0  0  0.184814  0  4.023967  0  0.501027  0  0.121904  0.172142  0  3.994131  0
C  C86  1  0.04362961  0.02788382  0.13648140  1  0  0.178675  0  3.757704  0  0  0.177311  0  4.006248  0  0  0.184842  0  4.024003  0  0.500492  0  0.121897  0.172171  0  3.994162  0
C  C87  1  0.04362186  0.52788573  0.36351932  1  0  0.178451  0  3.757709  0  0  0.177269  0  4.006046  0  0  0.184803  0  4.023795  0  0.501089  0  0.121906  0.172127  0  3.99397  0
C  C88  1  0.10217294  0.96791776  0.86276615  1  0  -0.130442  0  3.660125  0  0  -0.148933  0  3.905275  0  0  -0.154988  0  3.923793  0  -0.065759  0  -0.073205  -0.145129  0  3.893942  0
C  C89  1  0.10217064  0.46791821  0.63723385  1  0  -0.130478  0  3.660199  0  0  -0.148967  0  3.905331  0  0  -0.155018  0  3.923843  0  -0.065757  0  -0.073182  -0.145163  0  3.893999  0
C  C90  1  0.89783192  0.03208448  0.13723241  1  0  -0.130496  0  3.660198  0  0  -0.148951  0  3.905375  0  0  -0.155004  0  3.92389  0  -0.065741  0  -0.073169  -0.145151  0  3.89404  0
C  C91  1  0.89782480  0.53208403  0.36276615  1  0  -0.130488  0  3.660236  0  0  -0.148987  0  3.905338  0  0  -0.155045  0  3.923858  0  -0.065761  0  -0.073204  -0.145182  0  3.894004  0
C  C92  1  0.15137626  0.87497719  0.83426724  1  0  -0.01342  0  3.720886  0  0  -0.030408  0  3.96354  0  0  -0.027123  0  3.981409  0  -0.026217  0  -0.06368  -0.031789  0  3.95078  0
C  C93  1  0.15137632  0.37497922  0.66573348  1  0  -0.013432  0  3.720924  0  0  -0.030402  0  3.963602  0  0  -0.027108  0  3.981463  0  -0.02626  0  -0.063712  -0.031782  0  3.950841  0
C  C94  1  0.84862582  0.12502112  0.16573204  1  0  -0.013488  0  3.721011  0  0  -0.030446  0  3.963664  0  0  -0.027151  0  3.981523  0  -0.026264  0  -0.063727  -0.031824  0  3.950902  0
C  C95  1  0.84862066  0.62501988  0.33426580  1  0  -0.0133  0  3.720876  0  0  -0.030272  0  3.963531  0  0  -0.02698  0  3.981397  0  -0.026216  0  -0.063683  -0.03165  0  3.950765  0
C  C96  1  0.05504530  0.78941884  0.80612620  1  0  -0.117606  0  3.742281  0  0  -0.129684  0  3.990639  0  0  -0.136392  0  4.011501  0  -0.06532  0  -0.078862  -0.125419  0  3.976238  0
C  C97  1  0.05504746  0.28942086  0.69387524  1  0  -0.117529  0  3.742168  0  0  -0.12961  0  3.990518  0  0  -0.136311  0  4.011375  0  -0.065288  0  -0.078837  -0.125346  0  3.976115  0
C  C98  1  0.94495468  0.21057947  0.19387452  1  0  -0.11751  0  3.742202  0  0  -0.129591  0  3.99054  0  0  -0.13629  0  4.0114  0  -0.065288  0  -0.078823  -0.125328  0  3.976138  0
C  C99  1  0.94495335  0.71058217  0.30612116  1  0  -0.117727  0  3.742258  0  0  -0.129778  0  3.990617  0  0  -0.136499  0  4.011462  0  -0.06528  0  -0.078883  -0.125516  0  3.976207  0
C  C100  1  0.91144058  0.79861280  0.81041338  1  0  0.137683  0  3.701274  0  0  0.110122  0  3.961827  0  0  0.118191  0  3.977595  0  0.499449  0  0.052334  0.104964  0  3.950647  0
C  C101  1  0.91143932  0.29861325  0.68958806  1  0  0.137659  0  3.701264  0  0  0.110073  0  3.961832  0  0  0.118147  0  3.977586  0  0.499476  0  0.052291  0.104916  0  3.950652  0
C  C102  1  0.08856206  0.20138866  0.18958734  1  0  0.137648  0  3.701269  0  0  0.110068  0  3.961816  0  0  0.118142  0  3.97758  0  0.499439  0  0.052276  0.104913  0  3.950633  0
C  C103  1  0.08855676  0.70138664  0.31041050  1  0  0.137731  0  3.701216  0  0  0.110144  0  3.961743  0  0  0.11821  0  3.97751  0  0.49937  0  0.052361  0.104991  0  3.950567  0
N  N104  1  0.74835591  0.05613172  0.88975295  1  0  -0.341083  0  3.292307  0  0  -0.295351  0  3.5511  0  0  -0.31762  0  3.577353  0  -1.276837  0  -0.356189  -0.28055  0  3.533366  0
N  N105  1  0.74835298  0.55613127  0.61024561  1  0  -0.341045  0  3.292295  0  0  -0.295288  0  3.551048  0  0  -0.317549  0  3.577304  0  -1.27666  0  -0.356173  -0.280493  0  3.533314  0
N  N106  1  0.25164881  0.94386974  0.11024849  1  0  -0.34112  0  3.292269  0  0  -0.295342  0  3.550945  0  0  -0.317622  0  3.577204  0  -1.276909  0  -0.356182  -0.280545  0  3.533213  0
N  N107  1  0.25164232  0.44387019  0.38975367  1  0  -0.341185  0  3.292545  0  0  -0.295377  0  3.551284  0  0  -0.317643  0  3.577545  0  -1.276932  0  -0.356222  -0.280607  0  3.533551  0
N  N108  1  0.86404724  0.88733383  0.83903038  1  0  -0.38234  0  3.300244  0  0  -0.348626  0  3.57247  0  0  -0.36703  0  3.59446  0  -1.23175  0  -0.355711  -0.334977  0  3.556703  0
N  N109  1  0.86404453  0.38733192  0.66096890  1  0  -0.382309  0  3.300156  0  0  -0.348612  0  3.572435  0  0  -0.367006  0  3.594423  0  -1.231805  0  -0.355693  -0.334969  0  3.556669  0
N  N110  1  0.13595657  0.11266841  0.16096818  1  0  -0.382321  0  3.300151  0  0  -0.348593  0  3.572461  0  0  -0.367006  0  3.594456  0  -1.231313  0  -0.355688  -0.334948  0  3.556694  0
N  N111  1  0.13595036  0.61266718  0.33903110  1  0  -0.382245  0  3.300177  0  0  -0.348552  0  3.572419  0  0  -0.36695  0  3.594408  0  -1.231791  0  -0.355692  -0.334934  0  3.556658  0
O  O112  1  0.48076380  0.94698052  0.87071984  1  0  -0.674433  0  1.35697  0  0  -0.701118  0  1.615291  0  0  -0.726819  0  1.612628  0  -0.785686  0  -0.584255  -0.68462  0  1.619304  0
O  O113  1  0.48076332  0.44697940  0.62928304  1  0  -0.674371  0  1.357131  0  0  -0.70105  0  1.615447  0  0  -0.72673  0  1.612798  0  -0.785738  0  -0.584234  -0.684562  0  1.619447  0
O  O114  1  0.51924074  0.05301386  0.12928953  1  0  -0.674372  0  1.357057  0  0  -0.701055  0  1.615373  0  0  -0.726776  0  1.612693  0  -0.7858  0  -0.584215  -0.684568  0  1.619377  0
O  O115  1  0.51923353  0.55301892  0.37071479  1  0  -0.674337  0  1.357174  0  0  -0.701044  0  1.615569  0  0  -0.726736  0  1.612917  0  -0.785639  0  -0.584222  -0.684603  0  1.619523  0
O  O116  1  0.67848631  0.97559879  0.72476832  1  0  -0.42754  0  1.666655  0  0  -0.424553  0  1.922608  0  0  -0.441521  0  1.923074  0  -0.479636  0  -0.385888  -0.411401  0  1.921338  0
O  O117  1  0.67848678  0.47560317  0.77523024  1  0  -0.427622  0  1.666785  0  0  -0.424638  0  1.922743  0  0  -0.4416  0  1.923214  0  -0.479792  0  -0.38595  -0.411491  0  1.921466  0
O  O118  1  0.32151104  0.02439638  0.27523528  1  0  -0.427583  0  1.666779  0  0  -0.424595  0  1.922731  0  0  -0.441574  0  1.923198  0  -0.479819  0  -0.385917  -0.411445  0  1.921453  0
O  O119  1  0.32150761  0.52439907  0.22476616  1  0  -0.427521  0  1.666732  0  0  -0.424533  0  1.92269  0  0  -0.441496  0  1.923159  0  -0.479753  0  -0.385843  -0.41141  0  1.921408  0
O  O120  1  0.62178235  0.86648545  0.71671743  1  0  -0.421468  0  1.735562  0  0  -0.414082  0  2.011892  0  0  -0.433014  0  2.013013  0  -0.476506  0  -0.404646  -0.399977  0  2.01015  0
O  O121  1  0.62178296  0.36649061  0.78328473  1  0  -0.421416  0  1.735632  0  0  -0.414028  0  2.011966  0  0  -0.432954  0  2.01309  0  -0.476433  0  -0.40458  -0.399932  0  2.010222  0
O  O122  1  0.37821787  0.13350815  0.28328761  1  0  -0.421408  0  1.73568  0  0  -0.414022  0  2.012013  0  0  -0.432967  0  2.013139  0  -0.476434  0  -0.404583  -0.399922  0  2.01027  0
O  O123  1  0.37821548  0.63351084  0.21671311  1  0  -0.42142  0  1.735629  0  0  -0.414043  0  2.011972  0  0  -0.432973  0  2.0131  0  -0.476476  0  -0.404591  -0.39997  0  2.010223  0
O  O124  1  0.68329466  0.88167607  0.98869303  1  0  -0.587906  0  2.120324  0  0  -0.564595  0  2.376096  0  0  -0.596266  0  2.376872  0  -1.123731  0  -0.324579  -0.542283  0  2.375474  0
O  O125  1  0.68328935  0.38167731  0.51130841  1  0  -0.587889  0  2.120282  0  0  -0.564563  0  2.376048  0  0  -0.596226  0  2.376829  0  -1.124043  0  -0.324582  -0.542261  0  2.375427  0
O  O126  1  0.31671812  0.11831752  0.01130841  1  0  -0.587972  0  2.12028  0  0  -0.564652  0  2.376068  0  0  -0.596334  0  2.376844  0  -1.124178  0  -0.324639  -0.542351  0  2.375457  0
O  O127  1  0.31671055  0.61832651  0.48869231  1  0  -0.587904  0  2.120525  0  0  -0.56458  0  2.376299  0  0  -0.596247  0  2.377075  0  -1.124171  0  -0.324599  -0.542305  0  2.375673  0
O  O128  1  0.57412996  0.75167031  0.85980962  1  0  -0.628225  0  2.143929  0  0  -0.589677  0  2.392209  0  0  -0.621439  0  2.388265  0  -1.1319  0  -0.336249  -0.5674  0  2.394495  0
O  O129  1  0.57412765  0.25167076  0.64019326  1  0  -0.62811  0  2.14397  0  0  -0.589588  0  2.392251  0  0  -0.621339  0  2.388311  0  -1.131996  0  -0.336218  -0.567315  0  2.394531  0
O  O130  1  0.42587381  0.24832564  0.14019326  1  0  -0.628165  0  2.143976  0  0  -0.589658  0  2.392218  0  0  -0.621428  0  2.388277  0  -1.132012  0  -0.336267  -0.567385  0  2.3945  0
O  O131  1  0.42586974  0.74833070  0.35980674  1  0  -0.628017  0  2.144049  0  0  -0.589515  0  2.392304  0  0  -0.621268  0  2.388379  0  -1.132051  0  -0.336136  -0.567272  0  2.394575  0
O  O132  1  0.68546098  0.75499262  0.10127377  1  0  -0.592151  0  2.000905  0  0  -0.544435  0  2.219377  0  0  -0.566877  0  2.209249  0  -1.174528  0  -0.33542  -0.528569  0  2.225939  0
O  O133  1  0.68546050  0.25499150  0.39872767  1  0  -0.592121  0  2.000821  0  0  -0.544383  0  2.219318  0  0  -0.566828  0  2.209194  0  -1.174405  0  -0.335399  -0.528518  0  2.225881  0
O  O134  1  0.31454565  0.24500176  0.89872911  1  0  -0.592111  0  2.000908  0  0  -0.544381  0  2.219401  0  0  -0.566821  0  2.209273  0  -1.174541  0  -0.335462  -0.528516  0  2.225963  0
O  O135  1  0.31453926  0.74501153  0.60127233  1  0  -0.59216  0  2.000864  0  0  -0.544438  0  2.219364  0  0  -0.566878  0  2.209233  0  -1.174393  0  -0.335429  -0.528571  0  2.225925  0
O  O136  1  0.53656514  0.61821091  0.96609783  1  0  -0.576209  0  1.976216  0  0  -0.535353  0  2.197245  0  0  -0.555512  0  2.187401  0  -1.159014  0  -0.405135  -0.52134  0  2.203966  0
O  O137  1  0.53656648  0.11820822  0.53390433  1  0  -0.576299  0  1.975992  0  0  -0.53544  0  2.196989  0  0  -0.555602  0  2.187149  0  -1.158867  0  -0.405175  -0.521427  0  2.203712  0
O  O138  1  0.46343102  0.38178347  0.03390361  1  0  -0.576352  0  1.976425  0  0  -0.535522  0  2.197382  0  0  -0.555676  0  2.187536  0  -1.158827  0  -0.405213  -0.52151  0  2.204109  0
O  O139  1  0.46342951  0.88179717  0.46609423  1  0  -0.57641  0  1.975878  0  0  -0.535583  0  2.196841  0  0  -0.55574  0  2.187007  0  -1.158857  0  -0.405306  -0.521567  0  2.203562  0
O  O140  1  0.14817410  0.04356513  0.59516990  1  0  -0.850592  0  1.712267  0  0  -0.811592  0  1.842416  0  0  -0.828254  0  1.817119  0  -1.261595  0  -0.638189  -0.799702  0  1.860202  0
O  O141  1  0.14817459  0.54356625  0.90483082  1  0  -0.850563  0  1.712283  0  0  -0.811524  0  1.842519  0  0  -0.828186  0  1.817223  0  -1.261575  0  -0.638189  -0.799633  0  1.860297  0
O  O142  1  0.85182366  0.95643240  0.40483082  1  0  -0.850558  0  1.712301  0  0  -0.811563  0  1.842481  0  0  -0.828223  0  1.817188  0  -1.261607  0  -0.638191  -0.799671  0  1.860261  0
O  O143  1  0.85182540  0.45643206  0.09516918  1  0  -0.850582  0  1.712263  0  0  -0.811545  0  1.842503  0  0  -0.828207  0  1.817206  0  -1.261586  0  -0.638187  -0.799656  0  1.860286  0
O  O144  1  0.33172111  0.14978944  0.72423117  1  0  -0.877248  0  1.793489  0  0  -0.822599  0  1.952663  0  0  -0.84181  0  1.920365  0  -1.297501  0  -0.633598  -0.808856  0  1.975397  0
O  O145  1  0.33172005  0.64979371  0.77576883  1  0  -0.877287  0  1.793449  0  0  -0.822647  0  1.952544  0  0  -0.841869  0  1.920268  0  -1.297481  0  -0.633636  -0.808907  0  1.975275  0
O  O146  1  0.66828006  0.85020966  0.27576955  1  0  -0.877225  0  1.793505  0  0  -0.822586  0  1.95264  0  0  -0.841792  0  1.920335  0  -1.297449  0  -0.633607  -0.808843  0  1.975371  0
O  O147  1  0.66827876  0.35020382  0.22423045  1  0  -0.877277  0  1.793436  0  0  -0.822621  0  1.952583  0  0  -0.841833  0  1.920291  0  -1.297416  0  -0.633631  -0.808881  0  1.975313  0
