# generated using pymatgen
data_TbH8C9O8
_symmetry_space_group_name_H-M   'P 1'
_cell_length_a   7.75795339
_cell_length_b   8.18547578
_cell_length_c   18.97471406
_cell_angle_alpha   90.00001541
_cell_angle_beta   90.00012097
_cell_angle_gamma   105.98312790
_symmetry_Int_Tables_number   1
_chemical_formula_structural   TbH8C9O8
_chemical_formula_sum   'Tb4 H32 C36 O32'
_cell_volume   1158.36285284
_cell_formula_units_Z   4
loop_
 _symmetry_equiv_pos_site_id
 _symmetry_equiv_pos_as_xyz
  1  'x, y, z'
loop_
 _atom_site_type_symbol
 _atom_site_label
 _atom_site_symmetry_multiplicity
 _atom_site_fract_x
 _atom_site_fract_y
 _atom_site_fract_z
 _atom_site_occupancy
 _atom_site_hle17_bader_spin_density
 _atom_site_hle17_ddec_charge
 _atom_site_hle17_ddec_spin_density
 _atom_site_hle17_ddec_sum_bond_order
 _atom_site_hle17_magmom
 _atom_site_hse06_10hf_bader_spin_density
 _atom_site_hse06_10hf_ddec_charge
 _atom_site_hse06_10hf_ddec_spin_density
 _atom_site_hse06_10hf_ddec_sum_bond_order
 _atom_site_hse06_10hf_magmom
 _atom_site_hse06_bader_spin_density
 _atom_site_hse06_ddec_charge
 _atom_site_hse06_ddec_spin_density
 _atom_site_hse06_ddec_sum_bond_order
 _atom_site_hse06_magmom
 _atom_site_pbe_bader_spin_density
 _atom_site_pbe_cm5_charge
 _atom_site_pbe_ddec_charge
 _atom_site_pbe_ddec_spin_density
 _atom_site_pbe_ddec_sum_bond_order
 _atom_site_pbe_magmom
Tb  Tb0  1  0.75824201  0.25150847  0.51786480  1  0  2.298734  0  1.650745  0  0  2.223706  0  1.991055  0  0  2.269938  0  1.947524  0  0  1.507798  2.117662  0  2.157455  0
Tb  Tb1  1  0.74175947  0.74849118  0.01786572  1  0  2.298745  0  1.65081  0  0  2.223729  0  1.991123  0  0  2.269956  0  1.947589  0  0  1.507785  2.117659  0  2.157568  0
Tb  Tb2  1  0.24175821  0.74849233  0.48213495  1  0  2.298723  0  1.650804  0  0  2.223704  0  1.991123  0  0  2.269936  0  1.947587  0  0  1.507777  2.117665  0  2.157516  0
Tb  Tb3  1  0.25824387  0.25150706  0.98213508  1  0  2.298727  0  1.650712  0  0  2.223702  0  1.991023  0  0  2.269933  0  1.947494  0  0  1.507806  2.117671  0  2.157412  0
H  H4  1  0.60885163  0.43627527  0.36969176  1  0  0.104011  0  0.964799  0  0  0.110537  0  1.031961  0  0  0.114548  0  1.028838  0  0  0.108619  0.107682  0  1.034183  0
H  H5  1  0.89114764  0.56372388  0.86968994  1  0  0.104069  0  0.96478  0  0  0.110587  0  1.031957  0  0  0.114604  0  1.028818  0  0  0.10864  0.107735  0  1.034175  0
H  H6  1  0.39115154  0.56372679  0.63030904  1  0  0.104019  0  0.964822  0  0  0.110537  0  1.031993  0  0  0.11455  0  1.028863  0  0  0.10862  0.107683  0  1.034221  0
H  H7  1  0.10885478  0.43627564  0.13030981  1  0  0.104028  0  0.964771  0  0  0.11053  0  1.031966  0  0  0.114547  0  1.028826  0  0  0.108613  0.107677  0  1.034179  0
H  H8  1  0.65841324  0.58420516  0.25276355  1  0  0.097498  0  0.939881  0  0  0.107907  0  0.997785  0  0  0.112032  0  0.994881  0  0  0.103392  0.104733  0  1.000386  0
H  H9  1  0.84159400  0.41579243  0.75276219  1  0  0.09757  0  0.939872  0  0  0.107939  0  0.997804  0  0  0.112063  0  0.994903  0  0  0.103423  0.10477  0  1.000402  0
H  H10  1  0.34159654  0.41579306  0.74723620  1  0  0.097572  0  0.939891  0  0  0.107973  0  0.997796  0  0  0.112096  0  0.994893  0  0  0.10343  0.104806  0  1.000399  0
H  H11  1  0.15841100  0.58420707  0.24723756  1  0  0.097507  0  0.939845  0  0  0.10792  0  0.997746  0  0  0.112044  0  0.994843  0  0  0.103406  0.104752  0  1.000346  0
H  H12  1  0.31138796  0.14292202  0.15424331  1  0  0.099975  0  0.975148  0  0  0.105888  0  1.042536  0  0  0.109536  0  1.040374  0  0  0.106124  0.10361  0  1.043347  0
H  H13  1  0.18861298  0.85707921  0.65424240  1  0  0.100037  0  0.975085  0  0  0.105923  0  1.042489  0  0  0.109572  0  1.040325  0  0  0.106131  0.103642  0  1.043303  0
H  H14  1  0.68861576  0.85707749  0.84575749  1  0  0.100028  0  0.975122  0  0  0.105893  0  1.04255  0  0  0.109539  0  1.040392  0  0  0.106132  0.103611  0  1.043363  0
H  H15  1  0.81138761  0.14292286  0.34575682  1  0  0.100045  0  0.97509  0  0  0.10593  0  1.042497  0  0  0.10958  0  1.04033  0  0  0.10614  0.103648  0  1.043307  0
H  H16  1  0.25622976  0.99649573  0.27190624  1  0  0.103307  0  0.937602  0  0  0.113096  0  0.995489  0  0  0.117293  0  0.992409  0  0  0.105548  0.109914  0  0.998143  0
H  H17  1  0.24376267  0.00350960  0.77190476  1  0  0.103366  0  0.937559  0  0  0.113157  0  0.995449  0  0  0.117355  0  0.992367  0  0  0.105551  0.109973  0  0.998111  0
H  H18  1  0.74376901  0.00350889  0.72809562  1  0  0.103295  0  0.937603  0  0  0.113124  0  0.995454  0  0  0.117323  0  0.99237  0  0  0.105539  0.109937  0  0.998114  0
H  H19  1  0.75623223  0.99649503  0.22809394  1  0  0.103346  0  0.93756  0  0  0.113133  0  0.995446  0  0  0.11733  0  0.992367  0  0  0.105553  0.109949  0  0.9981  0
H  H20  1  0.51849006  0.24726012  0.63902963  1  0  0.437343  0  0.807859  0  0  0.422618  0  0.857584  0  0  0.430399  0  0.848928  0  0  0.333467  0.416786  0  0.863122  0
H  H21  1  0.98150494  0.75273727  0.13902865  1  0  0.437348  0  0.808037  0  0  0.422626  0  0.857743  0  0  0.430406  0  0.849091  0  0  0.333514  0.416797  0  0.863272  0
H  H22  1  0.48150223  0.75273561  0.36097065  1  0  0.437331  0  0.808055  0  0  0.422612  0  0.857752  0  0  0.430391  0  0.849104  0  0  0.333511  0.416784  0  0.863281  0
H  H23  1  0.01849234  0.24726226  0.86097005  1  0  0.437386  0  0.807954  0  0  0.422662  0  0.857666  0  0  0.430443  0  0.849011  0  0  0.333525  0.416832  0  0.863204  0
H  H24  1  0.38226268  0.16012144  0.57776593  1  0  0.441707  0  0.852082  0  0  0.409873  0  0.916412  0  0  0.421668  0  0.899003  0  0  0.303172  0.401056  0  0.929207  0
H  H25  1  0.11773653  0.83987964  0.07776728  1  0  0.441702  0  0.852081  0  0  0.409866  0  0.916415  0  0  0.421661  0  0.899006  0  0  0.303177  0.401046  0  0.929213  0
H  H26  1  0.61773368  0.83987937  0.42223277  1  0  0.4417  0  0.852091  0  0  0.409856  0  0.916437  0  0  0.421652  0  0.899025  0  0  0.303166  0.401035  0  0.929237  0
H  H27  1  0.88226535  0.16012243  0.92223353  1  0  0.441704  0  0.852079  0  0  0.409862  0  0.916421  0  0  0.421657  0  0.899012  0  0  0.303174  0.401041  0  0.929222  0
H  H28  1  0.77629869  0.62096010  0.48376050  1  0  0.451878  0  0.841162  0  0  0.421389  0  0.90282  0  0  0.432098  0  0.887178  0  0  0.310141  0.413389  0  0.91432  0
H  H29  1  0.72369717  0.37903421  0.98376114  1  0  0.451847  0  0.841191  0  0  0.421361  0  0.902844  0  0  0.43207  0  0.887203  0  0  0.310135  0.41336  0  0.914348  0
H  H30  1  0.22369746  0.37903562  0.51623820  1  0  0.451852  0  0.841187  0  0  0.421363  0  0.902847  0  0  0.432072  0  0.887205  0  0  0.310132  0.413364  0  0.914347  0
H  H31  1  0.27629990  0.62096024  0.01623914  1  0  0.451858  0  0.841186  0  0  0.421365  0  0.902851  0  0  0.432074  0  0.88721  0  0  0.310135  0.413364  0  0.914352  0
H  H32  1  0.60544637  0.55103782  0.53341650  1  0  0.448118  0  0.81118  0  0  0.424586  0  0.874859  0  0  0.432864  0  0.865424  0  0  0.327414  0.41822  0  0.881386  0
H  H33  1  0.89455262  0.44896188  0.03341699  1  0  0.448098  0  0.811208  0  0  0.424566  0  0.874889  0  0  0.432845  0  0.865452  0  0  0.327405  0.418204  0  0.881408  0
H  H34  1  0.39455219  0.44896171  0.46658272  1  0  0.448072  0  0.811265  0  0  0.424533  0  0.874956  0  0  0.432812  0  0.865505  0  0  0.327373  0.418172  0  0.881476  0
H  H35  1  0.10544594  0.55103765  0.96658329  1  0  0.448093  0  0.811218  0  0  0.424559  0  0.874896  0  0  0.432837  0  0.86546  0  0  0.327404  0.418196  0  0.881413  0
C  C36  1  0.42967032  0.20720021  0.32728576  1  0  -0.070743  0  3.744564  0  0  -0.048749  0  3.975386  0  0  -0.056437  0  3.999011  0  0  -0.015986  -0.044329  0  3.961348  0
C  C37  1  0.07032737  0.79280013  0.82728474  1  0  -0.07064  0  3.74455  0  0  -0.048623  0  3.975307  0  0  -0.056337  0  3.998969  0  0  -0.015957  -0.044208  0  3.961271  0
C  C38  1  0.57033156  0.79280185  0.67271504  1  0  -0.070618  0  3.744556  0  0  -0.048679  0  3.975367  0  0  -0.056356  0  3.998982  0  0  -0.015957  -0.044258  0  3.961328  0
C  C39  1  0.92967285  0.20720067  0.17271448  1  0  -0.070712  0  3.744536  0  0  -0.048729  0  3.975364  0  0  -0.056404  0  3.998972  0  0  -0.015973  -0.044305  0  3.961322  0
C  C40  1  0.54165351  0.37369799  0.32254794  1  0  -0.070128  0  3.72886  0  0  -0.094139  0  3.982674  0  0  -0.095132  0  4.003476  0  0  -0.080445  -0.093519  0  3.969395  0
C  C41  1  0.95834623  0.62630360  0.82254565  1  0  -0.070189  0  3.729045  0  0  -0.094205  0  3.982822  0  0  -0.095194  0  4.003642  0  0  -0.080487  -0.093581  0  3.969539  0
C  C42  1  0.45834966  0.62630407  0.67745340  1  0  -0.070081  0  3.728971  0  0  -0.094074  0  3.982767  0  0  -0.095071  0  4.003571  0  0  -0.080454  -0.093451  0  3.969494  0
C  C43  1  0.04165565  0.37369847  0.17745304  1  0  -0.070131  0  3.728883  0  0  -0.094115  0  3.982678  0  0  -0.095111  0  4.003483  0  0  -0.080434  -0.093487  0  3.969392  0
C  C44  1  0.56968389  0.45577941  0.25760152  1  0  -0.067307  0  3.727628  0  0  -0.090166  0  3.977381  0  0  -0.091673  0  3.998541  0  0  -0.080897  -0.089286  0  3.963984  0
C  C45  1  0.93032155  0.54422074  0.75760026  1  0  -0.06749  0  3.727778  0  0  -0.09031  0  3.977527  0  0  -0.09182  0  3.998687  0  0  -0.08096  -0.089437  0  3.964135  0
C  C46  1  0.43032331  0.54421882  0.74239876  1  0  -0.067521  0  3.72769  0  0  -0.090402  0  3.977465  0  0  -0.091908  0  3.998629  0  0  -0.080983  -0.08953  0  3.96408  0
C  C47  1  0.06968382  0.45578004  0.24239949  1  0  -0.067434  0  3.727644  0  0  -0.09029  0  3.9774  0  0  -0.091799  0  3.998563  0  0  -0.080969  -0.089425  0  3.964015  0
C  C48  1  0.48762281  0.37222606  0.19674681  1  0  -0.058958  0  3.727739  0  0  -0.036488  0  3.954209  0  0  -0.043925  0  3.978037  0  0  -0.010788  -0.032262  0  3.940116  0
C  C49  1  0.01238149  0.62777271  0.69674572  1  0  -0.058873  0  3.727664  0  0  -0.036379  0  3.954129  0  0  -0.043814  0  3.977954  0  0  -0.010761  -0.032163  0  3.940049  0
C  C50  1  0.51238348  0.62777345  0.80325452  1  0  -0.058934  0  3.727711  0  0  -0.036389  0  3.954144  0  0  -0.043828  0  3.977971  0  0  -0.010728  -0.032165  0  3.940055  0
C  C51  1  0.98762260  0.37222807  0.30325351  1  0  -0.058802  0  3.727639  0  0  -0.036349  0  3.954108  0  0  -0.043786  0  3.977934  0  0  -0.010748  -0.032129  0  3.940021  0
C  C52  1  0.37405379  0.20656112  0.20184459  1  0  -0.063223  0  3.726976  0  0  -0.085901  0  3.976528  0  0  -0.087343  0  3.998321  0  0  -0.078893  -0.085006  0  3.962403  0
C  C53  1  0.12594538  0.79343767  0.70184309  1  0  -0.063201  0  3.727017  0  0  -0.085848  0  3.976574  0  0  -0.087291  0  3.998366  0  0  -0.078842  -0.08495  0  3.962453  0
C  C54  1  0.62594826  0.79343713  0.79815622  1  0  -0.063296  0  3.72718  0  0  -0.085941  0  3.976747  0  0  -0.087384  0  3.998545  0  0  -0.07892  -0.085047  0  3.962622  0
C  C55  1  0.87405446  0.20656185  0.29815561  1  0  -0.063286  0  3.72694  0  0  -0.08593  0  3.976502  0  0  -0.087372  0  3.998293  0  0  -0.078884  -0.085035  0  3.962376  0
C  C56  1  0.34407650  0.12514954  0.26673092  1  0  -0.066182  0  3.729341  0  0  -0.088637  0  3.977605  0  0  -0.089994  0  3.998695  0  0  -0.081588  -0.087863  0  3.964259  0
C  C57  1  0.15592068  0.87485448  0.76672946  1  0  -0.066399  0  3.729402  0  0  -0.088881  0  3.977659  0  0  -0.090234  0  3.998757  0  0  -0.081663  -0.088098  0  3.964314  0
C  C58  1  0.65592501  0.87485125  0.73327041  1  0  -0.066261  0  3.729381  0  0  -0.088751  0  3.97765  0  0  -0.090114  0  3.998739  0  0  -0.081625  -0.087965  0  3.964297  0
C  C59  1  0.84407937  0.12515013  0.23326924  1  0  -0.066312  0  3.729378  0  0  -0.088764  0  3.97764  0  0  -0.090126  0  3.998727  0  0  -0.081653  -0.087988  0  3.96429  0
C  C60  1  0.40943334  0.11093605  0.39517241  1  0  0.713461  0  3.871718  0  0  0.668088  0  4.166302  0  0  0.703866  0  4.153535  0  0  0.230261  0.643038  0  4.170137  0
C  C61  1  0.09056569  0.88907207  0.89517037  1  0  0.713406  0  3.871698  0  0  0.66809  0  4.166169  0  0  0.703874  0  4.153412  0  0  0.230293  0.64305  0  4.169992  0
C  C62  1  0.59056563  0.88907366  0.60482998  1  0  0.713273  0  3.872009  0  0  0.668049  0  4.166354  0  0  0.70382  0  4.153598  0  0  0.230262  0.642992  0  4.170198  0
C  C63  1  0.90943897  0.11093508  0.10482833  1  0  0.713404  0  3.871874  0  0  0.668028  0  4.166467  0  0  0.703802  0  4.153706  0  0  0.230224  0.642971  0  4.170309  0
C  C64  1  0.52062959  0.45877466  0.12655552  1  0  0.720773  0  3.85449  0  0  0.677684  0  4.143797  0  0  0.713452  0  4.131117  0  0  0.235052  0.652713  0  4.14693  0
C  C65  1  0.97937194  0.54121887  0.62655588  1  0  0.72092  0  3.854269  0  0  0.677745  0  4.143728  0  0  0.713513  0  4.131044  0  0  0.235039  0.652783  0  4.146857  0
C  C66  1  0.47937226  0.54121850  0.87344423  1  0  0.721037  0  3.854155  0  0  0.67782  0  4.143663  0  0  0.713589  0  4.130981  0  0  0.235053  0.652852  0  4.146795  0
C  C67  1  0.02062845  0.45877811  0.37344493  1  0  0.720808  0  3.854431  0  0  0.677727  0  4.143747  0  0  0.713494  0  4.131063  0  0  0.235056  0.652767  0  4.146867  0
C  C68  1  0.07282293  0.06056126  0.52299869  1  0  0.586555  0  3.869957  0  0  0.538737  0  4.172375  0  0  0.569213  0  4.162407  0  0  0.231279  0.518012  0  4.172745  0
C  C69  1  0.42716475  0.93944100  0.02300085  1  0  0.586876  0  3.869799  0  0  0.538952  0  4.172353  0  0  0.569448  0  4.162356  0  0  0.231447  0.518227  0  4.17272  0
C  C70  1  0.92716276  0.93943831  0.47699948  1  0  0.586832  0  3.86999  0  0  0.538921  0  4.172508  0  0  0.569411  0  4.162523  0  0  0.23146  0.518202  0  4.172871  0
C  C71  1  0.57282242  0.06056365  0.97700154  1  0  0.586699  0  3.869788  0  0  0.538839  0  4.172259  0  0  0.569322  0  4.162277  0  0  0.231274  0.518118  0  4.172628  0
O  O72  1  0.51793175  0.17175489  0.44530971  1  0  -0.774444  0  2.086136  0  0  -0.736605  0  2.361538  0  0  -0.760555  0  2.345389  0  0  -0.42585  -0.706628  0  2.372398  0
O  O73  1  0.98206446  0.82824570  0.94531011  1  0  -0.774423  0  2.085816  0  0  -0.73665  0  2.36128  0  0  -0.760562  0  2.345042  0  0  -0.425891  -0.70667  0  2.372143  0
O  O74  1  0.48206718  0.82824591  0.55469057  1  0  -0.774399  0  2.085981  0  0  -0.73663  0  2.361356  0  0  -0.760556  0  2.345157  0  0  -0.42587  -0.706647  0  2.372218  0
O  O75  1  0.01793538  0.17175383  0.05469122  1  0  -0.774354  0  2.086186  0  0  -0.73652  0  2.361619  0  0  -0.760461  0  2.345446  0  0  -0.425812  -0.706542  0  2.372483  0
O  O76  1  0.28775853  0.97117408  0.39913294  1  0  -0.731259  0  2.052334  0  0  -0.691273  0  2.298028  0  0  -0.716173  0  2.286296  0  0  -0.391127  -0.664689  0  2.308255  0
O  O77  1  0.21223903  0.02882896  0.89913090  1  0  -0.73119  0  2.052501  0  0  -0.69123  0  2.298187  0  0  -0.716135  0  2.286454  0  0  -0.391101  -0.664654  0  2.308418  0
O  O78  1  0.71223803  0.02883182  0.60086997  1  0  -0.731129  0  2.052634  0  0  -0.691203  0  2.298274  0  0  -0.716105  0  2.286546  0  0  -0.391089  -0.664618  0  2.308511  0
O  O79  1  0.78776156  0.97117310  0.10086727  1  0  -0.731232  0  2.052332  0  0  -0.691242  0  2.298026  0  0  -0.716145  0  2.286298  0  0  -0.391105  -0.664659  0  2.308271  0
O  O80  1  0.64095844  0.59988487  0.12236210  1  0  -0.719591  0  2.007489  0  0  -0.68076  0  2.251493  0  0  -0.705184  0  2.238568  0  0  -0.395722  -0.654361  0  2.262434  0
O  O81  1  0.85904917  0.40011626  0.62236182  1  0  -0.719616  0  2.007617  0  0  -0.680742  0  2.251647  0  0  -0.705159  0  2.23871  0  0  -0.395691  -0.654352  0  2.262583  0
O  O82  1  0.35904988  0.40011717  0.87763765  1  0  -0.719623  0  2.007544  0  0  -0.68074  0  2.2516  0  0  -0.70516  0  2.238669  0  0  -0.395667  -0.654349  0  2.262538  0
O  O83  1  0.14095658  0.59988580  0.37763846  1  0  -0.719602  0  2.007527  0  0  -0.680775  0  2.251526  0  0  -0.705194  0  2.238592  0  0  -0.395721  -0.654383  0  2.26246  0
O  O84  1  0.42720385  0.38755787  0.07399553  1  0  -0.784024  0  2.100799  0  0  -0.748294  0  2.374173  0  0  -0.773035  0  2.359471  0  0  -0.417201  -0.71707  0  2.383349  0
O  O85  1  0.07280086  0.61244445  0.57399291  1  0  -0.78414  0  2.100718  0  0  -0.74835  0  2.374062  0  0  -0.773103  0  2.359374  0  0  -0.417188  -0.717124  0  2.383241  0
O  O86  1  0.57280355  0.61244545  0.92600633  1  0  -0.784175  0  2.100659  0  0  -0.748373  0  2.374023  0  0  -0.773118  0  2.359318  0  0  -0.41721  -0.71714  0  2.383201  0
O  O87  1  0.92719974  0.38755762  0.42600474  1  0  -0.784075  0  2.10082  0  0  -0.748324  0  2.374143  0  0  -0.773072  0  2.359456  0  0  -0.417195  -0.717101  0  2.383314  0
O  O88  1  0.05228792  0.20588534  0.53592115  1  0  -0.655342  0  2.096445  0  0  -0.608145  0  2.328496  0  0  -0.631639  0  2.317955  0  0  -0.346152  -0.583958  0  2.337259  0
O  O89  1  0.44770640  0.79410421  0.03592489  1  0  -0.655546  0  2.096139  0  0  -0.608311  0  2.328242  0  0  -0.631816  0  2.317694  0  0  -0.34621  -0.584112  0  2.336998  0
O  O90  1  0.94770288  0.79410531  0.46407491  1  0  -0.655476  0  2.096264  0  0  -0.608247  0  2.328358  0  0  -0.631749  0  2.317813  0  0  -0.34617  -0.584061  0  2.337114  0
O  O91  1  0.55229083  0.20588642  0.96407855  1  0  -0.655408  0  2.096438  0  0  -0.6082  0  2.328512  0  0  -0.631698  0  2.317967  0  0  -0.346133  -0.584018  0  2.337278  0
O  O92  1  0.20169756  0.00560209  0.54367363  1  0  -0.655543  0  2.109074  0  0  -0.608202  0  2.343912  0  0  -0.632847  0  2.334168  0  0  -0.325643  -0.583389  0  2.351401  0
O  O93  1  0.29830013  0.99439001  0.04367410  1  0  -0.655571  0  2.109295  0  0  -0.608181  0  2.344172  0  0  -0.632832  0  2.334419  0  0  -0.325614  -0.583373  0  2.351661  0
O  O94  1  0.79829324  0.99438856  0.45632612  1  0  -0.655625  0  2.109362  0  0  -0.608242  0  2.344232  0  0  -0.632889  0  2.334481  0  0  -0.325686  -0.583431  0  2.351718  0
O  O95  1  0.70170263  0.00560187  0.95632618  1  0  -0.655693  0  2.108934  0  0  -0.608292  0  2.343752  0  0  -0.632944  0  2.334005  0  0  -0.325672  -0.583473  0  2.351242  0
O  O96  1  0.49288749  0.25278158  0.58907683  1  0  -0.877616  0  1.87038  0  0  -0.838474  0  2.057762  0  0  -0.856468  0  2.029783  0  0  -0.618765  -0.81791  0  2.081832  0
O  O97  1  0.00710792  0.74721952  0.08907701  1  0  -0.877616  0  1.870564  0  0  -0.838489  0  2.057988  0  0  -0.856487  0  2.030013  0  0  -0.618833  -0.817924  0  2.082059  0
O  O98  1  0.50710629  0.74721923  0.41092345  1  0  -0.877591  0  1.870556  0  0  -0.83847  0  2.058009  0  0  -0.856468  0  2.030033  0  0  -0.618822  -0.81791  0  2.08208  0
O  O99  1  0.99289064  0.25278000  0.91092326  1  0  -0.87764  0  1.870477  0  0  -0.838513  0  2.0579  0  0  -0.85651  0  2.029922  0  0  -0.618832  -0.817949  0  2.081976  0
O  O100  1  0.68691339  0.51696755  0.50110406  1  0  -0.909048  0  1.900559  0  0  -0.868317  0  2.103852  0  0  -0.886547  0  2.075211  0  0  -0.633277  -0.846581  0  2.128532  0
O  O101  1  0.81308671  0.48303207  0.00110396  1  0  -0.909014  0  1.900607  0  0  -0.868284  0  2.103897  0  0  -0.886518  0  2.075253  0  0  -0.633259  -0.846547  0  2.128573  0
O  O102  1  0.31308388  0.48303199  0.49889569  1  0  -0.908963  0  1.90062  0  0  -0.868226  0  2.103913  0  0  -0.886456  0  2.075256  0  0  -0.633208  -0.846505  0  2.128607  0
O  O103  1  0.18691534  0.51696617  0.99889632  1  0  -0.908998  0  1.900573  0  0  -0.868255  0  2.103861  0  0  -0.886489  0  2.075222  0  0  -0.633263  -0.846536  0  2.128552  0
