# generated using pymatgen
data_ZnH15C13N3O7
_symmetry_space_group_name_H-M   'P 1'
_cell_length_a   8.63901971
_cell_length_b   9.73492938
_cell_length_c   9.89813454
_cell_angle_alpha   82.35350376
_cell_angle_beta   69.15379912
_cell_angle_gamma   79.46107274
_symmetry_Int_Tables_number   1
_chemical_formula_structural   ZnH15C13N3O7
_chemical_formula_sum   'Zn2 H30 C26 N6 O14'
_cell_volume   762.72436631
_cell_formula_units_Z   2
loop_
 _symmetry_equiv_pos_site_id
 _symmetry_equiv_pos_as_xyz
  1  'x, y, z'
loop_
 _atom_site_type_symbol
 _atom_site_label
 _atom_site_symmetry_multiplicity
 _atom_site_fract_x
 _atom_site_fract_y
 _atom_site_fract_z
 _atom_site_occupancy
 _atom_site_hle17_bader_spin_density
 _atom_site_hle17_ddec_charge
 _atom_site_hle17_ddec_spin_density
 _atom_site_hle17_ddec_sum_bond_order
 _atom_site_hle17_magmom
 _atom_site_hse06_10hf_bader_spin_density
 _atom_site_hse06_10hf_ddec_charge
 _atom_site_hse06_10hf_ddec_spin_density
 _atom_site_hse06_10hf_ddec_sum_bond_order
 _atom_site_hse06_10hf_magmom
 _atom_site_hse06_bader_spin_density
 _atom_site_hse06_ddec_charge
 _atom_site_hse06_ddec_spin_density
 _atom_site_hse06_ddec_sum_bond_order
 _atom_site_hse06_magmom
 _atom_site_pbe_bader_spin_density
 _atom_site_pbe_cm5_charge
 _atom_site_pbe_ddec_charge
 _atom_site_pbe_ddec_spin_density
 _atom_site_pbe_ddec_sum_bond_order
 _atom_site_pbe_magmom
Zn  Zn0  1  0.52513372  0.61848411  0.62619538  1  0  1.165952  0  1.733876  0  0  0.990955  0  2.214448  0  0  1.043151  0  2.147807  0  0  0.687776  0.95205  0  2.262327  0
Zn  Zn1  1  0.47486385  0.38151659  0.37380615  1  0  1.165955  0  1.733887  0  0  0.990943  0  2.21447  0  0  1.043141  0  2.147827  0  0  0.687782  0.952036  0  2.26235  0
H  H2  1  0.29028802  0.09507263  0.73260688  1  0  0.108137  0  0.975082  0  0  0.115218  0  1.044449  0  0  0.118787  0  1.042181  0  0  0.105506  0.112611  0  1.046006  0
H  H3  1  0.70971119  0.90492594  0.26739040  1  0  0.108135  0  0.975015  0  0  0.115196  0  1.044418  0  0  0.118768  0  1.042145  0  0  0.105493  0.112586  0  1.04597  0
H  H4  1  0.25505746  0.00809766  0.18107208  1  0  0.120135  0  0.963566  0  0  0.124967  0  1.029906  0  0  0.129926  0  1.025579  0  0  0.106331  0.12124  0  1.033251  0
H  H5  1  0.74493851  0.99190512  0.81892764  1  0  0.120077  0  0.963587  0  0  0.124943  0  1.029896  0  0  0.129901  0  1.025571  0  0  0.106338  0.12122  0  1.033239  0
H  H6  1  0.40457772  0.39619145  0.95058947  1  0  0.125296  0  0.930981  0  0  0.135102  0  0.990581  0  0  0.139003  0  0.987759  0  0  0.11531  0.132511  0  0.992187  0
H  H7  1  0.59542538  0.60380610  0.04940878  1  0  0.125317  0  0.930996  0  0  0.135131  0  0.990582  0  0  0.139032  0  0.987757  0  0  0.115293  0.132537  0  0.992187  0
H  H8  1  0.01901363  0.71003384  0.96994547  1  0  0.094375  0  0.934721  0  0  0.109771  0  0.997198  0  0  0.111007  0  0.998229  0  0  0.099088  0.108779  0  0.996628  0
H  H9  1  0.98098642  0.28996686  0.03005428  1  0  0.094452  0  0.934745  0  0  0.109821  0  0.99723  0  0  0.111055  0  0.998263  0  0  0.099112  0.108825  0  0.996654  0
H  H10  1  0.23108223  0.64162714  0.93554616  1  0  0.116095  0  0.938252  0  0  0.130487  0  0.999082  0  0  0.133379  0  0.997273  0  0  0.105528  0.128755  0  0.999781  0
H  H11  1  0.76891658  0.35837357  0.06445499  1  0  0.116139  0  0.938235  0  0  0.130521  0  0.999056  0  0  0.133413  0  0.997245  0  0  0.105528  0.128785  0  0.999756  0
H  H12  1  0.95384632  0.61708111  0.23387577  1  0  0.083015  0  0.991472  0  0  0.101065  0  1.062712  0  0  0.101932  0  1.063173  0  0  0.080806  0.100515  0  1.062493  0
H  H13  1  0.04615392  0.38291855  0.76612407  1  0  0.082999  0  0.991489  0  0  0.101076  0  1.062699  0  0  0.101942  0  1.063161  0  0  0.080808  0.100523  0  1.062484  0
H  H14  1  0.16630559  0.53894019  0.19334586  1  0  0.107478  0  0.961242  0  0  0.128064  0  1.021446  0  0  0.129703  0  1.021704  0  0  0.08699  0.12672  0  1.021701  0
H  H15  1  0.83369464  0.46105948  0.80665600  1  0  0.107464  0  0.961253  0  0  0.128068  0  1.021442  0  0  0.129708  0  1.021697  0  0  0.086984  0.126721  0  1.021704  0
H  H16  1  0.03662574  0.48228535  0.11270357  1  0  0.097854  0  0.961453  0  0  0.121978  0  1.020989  0  0  0.122665  0  1.022236  0  0  0.086666  0.121406  0  1.020253  0
H  H17  1  0.96337326  0.51771430  0.88729666  1  0  0.097856  0  0.961451  0  0  0.12198  0  1.020994  0  0  0.122666  0  1.022241  0  0  0.086668  0.121407  0  1.02026  0
H  H18  1  0.86452250  0.45155016  0.39979061  1  0  0.029785  0  0.945783  0  0  0.042821  0  1.009747  0  0  0.043689  0  1.006632  0  0  0.12255  0.041959  0  1.012023  0
H  H19  1  0.13547897  0.54844951  0.60020987  1  0  0.029812  0  0.945733  0  0  0.042813  0  1.009739  0  0  0.043679  0  1.006629  0  0  0.122546  0.041955  0  1.012015  0
H  H20  1  0.38697884  0.87356805  0.45291942  1  0  0.037513  0  0.933786  0  0  0.04936  0  0.995383  0  0  0.050221  0  0.992267  0  0  0.124622  0.048615  0  0.997608  0
H  H21  1  0.61301999  0.12643263  0.54707870  1  0  0.037503  0  0.933805  0  0  0.049368  0  0.995386  0  0  0.05023  0  0.992267  0  0  0.124612  0.048619  0  0.997616  0
H  H22  1  0.07944251  0.01670378  0.66839845  1  0  0.348822  0  0.883728  0  0  0.328361  0  0.947721  0  0  0.336886  0  0.94047  0  0  0.310887  0.322256  0  0.953074  0
H  H23  1  0.92055754  0.98329693  0.33160131  1  0  0.348839  0  0.883736  0  0  0.328375  0  0.947732  0  0  0.336901  0  0.94048  0  0  0.310899  0.322267  0  0.953079  0
H  H24  1  0.18556789  0.06181648  0.48277072  1  0  0.35036  0  0.913166  0  0  0.329455  0  0.980023  0  0  0.337517  0  0.973428  0  0  0.305849  0.323653  0  0.984894  0
H  H25  1  0.81443092  0.93818422  0.51722941  1  0  0.350342  0  0.913195  0  0  0.329436  0  0.98005  0  0  0.3375  0  0.973453  0  0  0.305838  0.323631  0  0.984927  0
H  H26  1  0.25378162  0.86813144  0.85074826  1  0  0.300256  0  0.925063  0  0  0.279515  0  0.992972  0  0  0.28749  0  0.987352  0  0  0.305198  0.273827  0  0.997121  0
H  H27  1  0.74621719  0.13186927  0.14925288  1  0  0.300253  0  0.925059  0  0  0.279518  0  0.992963  0  0  0.287494  0  0.987343  0  0  0.305195  0.273844  0  0.997096  0
H  H28  1  0.94665932  0.26120120  0.63511430  1  0  0.34116  0  0.915902  0  0  0.321027  0  0.979434  0  0  0.329862  0  0.972297  0  0  0.302088  0.314781  0  0.984443  0
H  H29  1  0.05333968  0.73879845  0.36488592  1  0  0.341148  0  0.91591  0  0  0.321013  0  0.979446  0  0  0.329848  0  0.972309  0  0  0.302089  0.314768  0  0.984455  0
H  H30  1  0.07057310  0.27947909  0.44826230  1  0  0.337258  0  0.931687  0  0  0.31818  0  0.994373  0  0  0.326153  0  0.988413  0  0  0.299448  0.31257  0  0.998537  0
H  H31  1  0.92942590  0.72052056  0.55173793  1  0  0.337271  0  0.931633  0  0  0.318187  0  0.99433  0  0  0.326161  0  0.988372  0  0  0.299448  0.312577  0  0.998502  0
C  C32  1  0.37196372  0.35452516  0.69626507  1  0  0.686446  0  3.87201  0  0  0.63108  0  4.164182  0  0  0.667475  0  4.154988  0  0  0.226735  0.606285  0  4.169784  0
C  C33  1  0.62803690  0.64547239  0.30373393  1  0  0.686483  0  3.871917  0  0  0.631105  0  4.164113  0  0  0.667501  0  4.154921  0  0  0.226758  0.606314  0  4.169709  0
C  C34  1  0.34734063  0.25545629  0.82905656  1  0  -0.061792  0  3.773676  0  0  -0.034165  0  4.008301  0  0  -0.043319  0  4.032328  0  0  -0.018514  -0.028634  0  3.992673  0
C  C35  1  0.65266247  0.74454126  0.17094067  1  0  -0.061778  0  3.773725  0  0  -0.03415  0  4.008343  0  0  -0.043302  0  4.032368  0  0  -0.018474  -0.028621  0  3.992713  0
C  C36  1  0.30230511  0.12426855  0.83039552  1  0  -0.153727  0  3.672474  0  0  -0.188055  0  3.924077  0  0  -0.18882  0  3.942571  0  0  -0.086304  -0.186679  0  3.911349  0
C  C37  1  0.69769799  0.87572900  0.16960171  1  0  -0.153664  0  3.672412  0  0  -0.187978  0  3.92401  0  0  -0.188744  0  3.942504  0  0  -0.08631  -0.186589  0  3.911256  0
C  C38  1  0.26686985  0.03430237  0.95712229  1  0  0.251662  0  3.785852  0  0  0.247289  0  4.040938  0  0  0.253294  0  4.062433  0  0  0.095598  0.242842  0  4.026644  0
C  C39  1  0.73313306  0.96569624  0.04287587  1  0  0.251657  0  3.785959  0  0  0.247289  0  4.041052  0  0  0.253295  0  4.062547  0  0  0.095664  0.242853  0  4.026756  0
C  C40  1  0.28091266  0.07619734  0.08194757  1  0  -0.149979  0  3.677822  0  0  -0.186125  0  3.932573  0  0  -0.186625  0  3.949413  0  0  -0.085212  -0.185305  0  3.921286  0
C  C41  1  0.71908864  0.92380336  0.91805079  1  0  -0.149951  0  3.677756  0  0  -0.186134  0  3.93252  0  0  -0.186634  0  3.949361  0  0  -0.085249  -0.18532  0  3.921247  0
C  C42  1  0.33284263  0.20505606  0.07810871  1  0  -0.058344  0  3.78651  0  0  -0.033117  0  4.026094  0  0  -0.041155  0  4.049501  0  0  -0.018845  -0.028273  0  4.010679  0
C  C43  1  0.66715617  0.79494465  0.92189345  1  0  -0.058292  0  3.786433  0  0  -0.03305  0  4.026031  0  0  -0.041092  0  4.049441  0  0  -0.018825  -0.028199  0  4.010615  0
C  C44  1  0.36563674  0.29559987  0.95240560  1  0  -0.064887  0  3.667497  0  0  -0.105324  0  3.915688  0  0  -0.103206  0  3.934392  0  0  -0.075763  -0.106659  0  3.903279  0
C  C45  1  0.63436369  0.70439872  0.04759332  1  0  -0.064997  0  3.667609  0  0  -0.105452  0  3.915814  0  0  -0.103331  0  3.934516  0  0  -0.075791  -0.106787  0  3.903403  0
C  C46  1  0.14016811  0.81824365  0.06498817  1  0  0.617169  0  3.715643  0  0  0.572328  0  4.004814  0  0  0.601453  0  4.003854  0  0  0.254934  0.552944  0  4.004446  0
C  C47  1  0.85983212  0.18175601  0.93501269  1  0  0.617175  0  3.715683  0  0  0.572324  0  4.004839  0  0  0.601449  0  4.003879  0  0  0.254932  0.552946  0  4.004471  0
C  C48  1  0.11625130  0.68247937  0.02109464  1  0  -0.220436  0  3.699267  0  0  -0.255151  0  3.952515  0  0  -0.259873  0  3.961549  0  0  -0.162668  -0.252103  0  3.945579  0
C  C49  1  0.88374769  0.31752030  0.97890659  1  0  -0.220587  0  3.699358  0  0  -0.255243  0  3.952574  0  0  -0.259965  0  3.961608  0  0  -0.162691  -0.252177  0  3.945613  0
C  C50  1  0.06574707  0.57369606  0.14768660  1  0  -0.269029  0  3.71622  0  0  -0.347378  0  3.962468  0  0  -0.349122  0  3.973145  0  0  -0.253746  -0.345843  0  3.955142  0
C  C51  1  0.93424908  0.42630568  0.85231421  1  0  -0.268998  0  3.716191  0  0  -0.347394  0  3.962407  0  0  -0.349135  0  3.973083  0  0  -0.253753  -0.345858  0  3.95508  0
C  C52  1  0.35160971  0.24535679  0.21178373  1  0  0.658702  0  3.904662  0  0  0.606592  0  4.19849  0  0  0.640556  0  4.191485  0  0  0.211736  0.583481  0  4.202723  0
C  C53  1  0.64838805  0.75464287  0.78821789  1  0  0.65889  0  3.90471  0  0  0.606761  0  4.198561  0  0  0.640728  0  4.19155  0  0  0.211796  0.583641  0  4.202807  0
C  C54  1  0.84259511  0.40554659  0.51163094  1  0  0.541342  0  3.834976  0  0  0.469962  0  4.129217  0  0  0.498587  0  4.129082  0  0  0.177077  0.450712  0  4.128719  0
C  C55  1  0.15740210  0.59445620  0.48836839  1  0  0.541266  0  3.834942  0  0  0.469898  0  4.129187  0  0  0.498523  0  4.129052  0  0  0.177028  0.450647  0  4.128692  0
C  C56  1  0.29339375  0.88471278  0.56223700  1  0  0.543603  0  3.818296  0  0  0.472302  0  4.11  0  0  0.50037  0  4.109895  0  0  0.180077  0.453502  0  4.109538  0
C  C57  1  0.70660594  0.11529001  0.43776056  1  0  0.543606  0  3.818237  0  0  0.472295  0  4.109936  0  0  0.500365  0  4.109831  0  0  0.180092  0.453497  0  4.109472  0
N  N58  1  0.22211327  0.90377653  0.95209572  1  0  -0.453241  0  3.335474  0  0  -0.398206  0  3.576703  0  0  -0.420963  0  3.586444  0  0  -0.397563  -0.383193  0  3.570079  0
N  N59  1  0.77788715  0.09622207  0.04790421  1  0  -0.453264  0  3.335592  0  0  -0.398238  0  3.576828  0  0  -0.420994  0  3.586569  0  0  -0.397604  -0.383253  0  3.570211  0
N  N60  1  0.96185026  0.30760769  0.53207558  1  0  -0.633658  0  3.148632  0  0  -0.588007  0  3.382556  0  0  -0.611606  0  3.379604  0  0  -0.563684  -0.571856  0  3.384119  0
N  N61  1  0.03814856  0.69239301  0.46792456  1  0  -0.63358  0  3.14864  0  0  -0.587912  0  3.382551  0  0  -0.611514  0  3.379601  0  0  -0.563649  -0.571765  0  3.384119  0
N  N62  1  0.17227004  0.99236015  0.57238623  1  0  -0.628351  0  3.128762  0  0  -0.584308  0  3.367824  0  0  -0.606803  0  3.363124  0  0  -0.558177  -0.569091  0  3.371192  0
N  N63  1  0.82773162  0.00763847  0.42761433  1  0  -0.628368  0  3.128628  0  0  -0.584321  0  3.3677  0  0  -0.606815  0  3.362991  0  0  -0.55821  -0.569106  0  3.371072  0
O  O64  1  0.35818696  0.48422494  0.71107771  1  0  -0.651979  0  2.102421  0  0  -0.585756  0  2.385956  0  0  -0.613334  0  2.368604  0  0  -0.316613  -0.565791  0  2.396725  0
O  O65  1  0.64181367  0.51577259  0.28891927  1  0  -0.65199  0  2.10242  0  0  -0.585742  0  2.385947  0  0  -0.613324  0  2.368599  0  0  -0.316627  -0.565773  0  2.396699  0
O  O66  1  0.39956150  0.30042302  0.57740872  1  0  -0.66105  0  2.117183  0  0  -0.591184  0  2.402709  0  0  -0.619746  0  2.384444  0  0  -0.313411  -0.571005  0  2.414946  0
O  O67  1  0.60043769  0.69957558  0.42259159  1  0  -0.661073  0  2.11713  0  0  -0.591205  0  2.402668  0  0  -0.619765  0  2.384399  0  0  -0.313403  -0.571027  0  2.414897  0
O  O68  1  0.08539473  0.85035406  0.19375036  1  0  -0.594465  0  1.978513  0  0  -0.533637  0  2.192141  0  0  -0.55622  0  2.185597  0  0  -0.29264  -0.517389  0  2.196095  0
O  O69  1  0.91460426  0.14964560  0.80625088  1  0  -0.594436  0  1.978518  0  0  -0.533612  0  2.192147  0  0  -0.556196  0  2.185605  0  0  -0.292626  -0.517366  0  2.196103  0
O  O70  1  0.45247885  0.33363993  0.19250426  1  0  -0.630728  0  2.0509  0  0  -0.560823  0  2.317881  0  0  -0.590994  0  2.305024  0  0  -0.312413  -0.539551  0  2.326468  0
O  O71  1  0.54751643  0.66635972  0.80749811  1  0  -0.630823  0  2.0509  0  0  -0.560912  0  2.317892  0  0  -0.591084  0  2.305029  0  0  -0.312426  -0.539633  0  2.32648  0
O  O72  1  0.26949468  0.19276867  0.33502782  1  0  -0.665852  0  1.993205  0  0  -0.610288  0  2.221554  0  0  -0.633774  0  2.210588  0  0  -0.328449  -0.593291  0  2.22852  0
O  O73  1  0.73050572  0.80722997  0.66497616  1  0  -0.665959  0  1.993376  0  0  -0.610387  0  2.221732  0  0  -0.633875  0  2.21076  0  0  -0.328487  -0.593391  0  2.228713  0
O  O74  1  0.71021169  0.44390544  0.61324225  1  0  -0.588632  0  2.101483  0  0  -0.520467  0  2.371925  0  0  -0.547679  0  2.361089  0  0  -0.310663  -0.501538  0  2.379201  0
O  O75  1  0.28979085  0.55609526  0.38675573  1  0  -0.588659  0  2.101429  0  0  -0.520476  0  2.371845  0  0  -0.547688  0  2.361009  0  0  -0.310637  -0.501549  0  2.379121  0
O  O76  1  0.30742834  0.79878604  0.66585705  1  0  -0.576254  0  2.043634  0  0  -0.503877  0  2.289872  0  0  -0.529861  0  2.280863  0  0  -0.296139  -0.485801  0  2.295719  0
O  O77  1  0.69257314  0.20121362  0.33414241  1  0  -0.57623  0  2.043683  0  0  -0.503863  0  2.289936  0  0  -0.529848  0  2.280927  0  0  -0.296139  -0.485794  0  2.295784  0
