# generated using pymatgen
data_Al2H5C10ClO10
_symmetry_space_group_name_H-M   'P 1'
_cell_length_a   6.67787428
_cell_length_b   11.61055039
_cell_length_c   16.00566334
_cell_angle_alpha   101.05194975
_cell_angle_beta   90.00062728
_cell_angle_gamma   90.00048899
_symmetry_Int_Tables_number   1
_chemical_formula_structural   Al2H5C10ClO10
_chemical_formula_sum   'Al4 H10 C20 Cl2 O20'
_cell_volume   1217.96434118
_cell_formula_units_Z   2
loop_
 _symmetry_equiv_pos_site_id
 _symmetry_equiv_pos_as_xyz
  1  'x, y, z'
loop_
 _atom_site_type_symbol
 _atom_site_label
 _atom_site_symmetry_multiplicity
 _atom_site_fract_x
 _atom_site_fract_y
 _atom_site_fract_z
 _atom_site_occupancy
 _atom_site_pbe_bader_charge
 _atom_site_pbe_bader_spin_density
 _atom_site_pbe_cm5_charge
 _atom_site_pbe_ddec_charge
 _atom_site_pbe_ddec_spin_density
 _atom_site_pbe_ddec_sum_bond_order
 _atom_site_pbe_magmom
Al  Al0  1  0.01509389  0.50250755  0.50523616  1  2.502765  0  0.401096  1.643456  0  2.585635  0
Al  Al1  1  0.98492729  0.00252390  0.00524678  1  2.502797  0  0.401145  1.643723  0  2.585328  0
Al  Al2  1  0.51502987  0.50119447  0.50220413  1  2.499526  0  0.400974  1.634817  0  2.583937  0
Al  Al3  1  0.48497174  0.00119025  0.00220761  1  2.499353  0  0.400975  1.634989  0  2.583718  0
H  H4  1  0.95764808  0.30710232  0.68556959  1  0.137344  0  0.117315  0.128903  0  0.983773  0
H  H5  1  0.04235902  0.80708745  0.18557008  1  0.137264  0  0.117325  0.128972  0  0.983705  0
H  H6  1  0.41509043  0.26823961  0.68678347  1  0.101184  0  0.112611  0.128846  0  0.99649  0
H  H7  1  0.58491463  0.76822504  0.18677700  1  0.101073  0  0.112635  0.128852  0  0.99647  0
H  H8  1  0.37450145  0.23797825  0.82089777  1  0.107908  0  0.112678  0.142864  0  1.000937  0
H  H9  1  0.62547423  0.73796848  0.32090743  1  0.108087  0  0.112716  0.142901  0  1.000861  0
H  H10  1  0.76756501  0.35614033  0.45232309  1  0.627955  0  0.357581  0.439671  0  0.839878  0
H  H11  1  0.23239537  0.85614213  0.95233029  1  0.628075  0  0.35765  0.439756  0  0.83992  0
H  H12  1  0.26543175  0.64293960  0.48381403  1  0.63542  0  0.351813  0.430763  0  0.855074  0
H  H13  1  0.73455638  0.14294994  0.98381749  1  0.635341  0  0.351878  0.430838  0  0.854958  0
C  C14  1  0.76839740  0.63279666  0.40197293  1  1.575826  0  0.259525  0.703931  0  4.097377  0
C  C15  1  0.23160761  0.13279676  0.90196560  1  1.576295  0  0.259356  0.703742  0  4.097457  0
C  C16  1  0.76111420  0.64168059  0.63563030  1  1.682577  0  0.283691  0.707793  0  4.156135  0
C  C17  1  0.23891592  0.14167443  0.13563829  1  1.682074  0  0.283595  0.707712  0  4.156457  0
C  C18  1  0.26588080  0.37188996  0.60401702  1  1.568591  0  0.267724  0.683153  0  4.099721  0
C  C19  1  0.73411134  0.87187980  0.10401513  1  1.56901  0  0.267746  0.683271  0  4.099627  0
C  C20  1  0.26259773  0.35682667  0.37142252  1  1.69686  0  0.278136  0.710127  0  4.164219  0
C  C21  1  0.73740068  0.85681009  0.87142479  1  1.697313  0  0.278324  0.710169  0  4.163708  0
C  C22  1  0.25581233  0.28099241  0.28837056  1  -0.259498  0  -0.017724  -0.12434  0  3.924988  0
C  C23  1  0.74420045  0.78096489  0.78836633  1  -0.260356  0  -0.017765  -0.124387  0  3.925632  0
C  C24  1  0.24536738  0.21864628  0.21835309  1  0.082968  0  -0.009417  -0.108374  0  3.907658  0
C  C25  1  0.75466934  0.71865304  0.71835903  1  0.083351  0  -0.009395  -0.108191  0  3.908053  0
C  C26  1  0.09758558  0.27578859  0.70870007  1  -0.034862  0  -0.070661  -0.087316  0  3.966055  0
C  C27  1  0.90242174  0.77578755  0.20870040  1  -0.035109  0  -0.070762  -0.087471  0  3.965738  0
C  C28  1  0.26871151  0.29954826  0.67078870  1  -0.044349  0  -0.076673  -0.204575  0  3.851958  0
C  C29  1  0.73131151  0.79953954  0.17078936  1  -0.044582  0  -0.076656  -0.204473  0  3.851989  0
C  C30  1  0.08024229  0.21021468  0.77745759  1  0.021142  0  0.036114  0.198062  0  4.019174  0
C  C31  1  0.91975116  0.71021019  0.27746872  1  0.021533  0  0.03606  0.197886  0  4.019332  0
C  C32  1  0.23169539  0.19743541  0.83139715  1  0.066759  0  -0.093876  -0.309298  0  3.831669  0
C  C33  1  0.76830397  0.69743357  0.33140445  1  0.066279  0  -0.093878  -0.309338  0  3.832041  0
Cl  Cl34  1  0.84386817  0.15051157  0.78324371  1  -0.182116  0  0.024557  -0.047752  0  1.497194  0
Cl  Cl35  1  0.15613355  0.65052963  0.28326116  1  -0.182082  0  0.024565  -0.047657  0  1.497324  0
O  O36  1  0.59243255  0.61039989  0.60224837  1  -1.230623  0  -0.217896  -0.562584  0  2.293095  0
O  O37  1  0.40760211  0.11036688  0.10227062  1  -1.229776  0  -0.217733  -0.562483  0  2.29348  0
O  O38  1  0.93567095  0.60723880  0.43200757  1  -1.254976  0  -0.241163  -0.616843  0  2.383414  0
O  O39  1  0.06431062  0.10722215  0.93199853  1  -1.254857  0  -0.241089  -0.616954  0  2.38299  0
O  O40  1  0.09394299  0.38493144  0.40634792  1  -1.231601  0  -0.227222  -0.587397  0  2.294885  0
O  O41  1  0.90601345  0.88490311  0.90638500  1  -1.231857  0  -0.227227  -0.587398  0  2.294824  0
O  O42  1  0.93296163  0.61289254  0.60468358  1  -1.226914  0  -0.217952  -0.561906  0  2.280536  0
O  O43  1  0.06705217  0.11289649  0.10467573  1  -1.227302  0  -0.21796  -0.561909  0  2.280233  0
O  O44  1  0.09610808  0.40338902  0.57999382  1  -1.250833  0  -0.232924  -0.588839  0  2.339809  0
O  O45  1  0.90390177  0.90342022  0.08001058  1  -1.250684  0  -0.233051  -0.58891  0  2.339448  0
O  O46  1  0.59537699  0.60859677  0.42864729  1  -1.24935  0  -0.244008  -0.608695  0  2.28453  0
O  O47  1  0.40458953  0.10862372  0.92866280  1  -1.249807  0  -0.243963  -0.608441  0  2.284597  0
O  O48  1  0.76513424  0.43019361  0.49254726  1  -1.42667  0  -0.447187  -0.990879  0  2.178411  0
O  O49  1  0.23485239  0.93020375  0.99254574  1  -1.426716  0  -0.447203  -0.991063  0  2.178686  0
O  O50  1  0.43545697  0.39666086  0.57545850  1  -1.240345  0  -0.233596  -0.583259  0  2.296028  0
O  O51  1  0.56456463  0.89664383  0.07544555  1  -1.240271  0  -0.233432  -0.583338  0  2.296513  0
O  O52  1  0.43530605  0.38777377  0.40126017  1  -1.239367  0  -0.227754  -0.584605  0  2.278591  0
O  O53  1  0.56468472  0.88776566  0.90126558  1  -1.239274  0  -0.227981  -0.5848  0  2.278241  0
O  O54  1  0.26550198  0.57256684  0.50816198  1  -1.435262  0  -0.445728  -0.985752  0  2.186662  0
O  O55  1  0.73449936  0.07256713  0.00815339  1  -1.435233  0  -0.445909  -0.985968  0  2.186536  0
