# generated using pymatgen
data_B5H5PbCNO9
_symmetry_space_group_name_H-M   'P 1'
_cell_length_a   6.72654945
_cell_length_b   6.78696543
_cell_length_c   10.72088401
_cell_angle_alpha   99.53001183
_cell_angle_beta   93.33055708
_cell_angle_gamma   118.98851275
_symmetry_Int_Tables_number   1
_chemical_formula_structural   B5H5PbCNO9
_chemical_formula_sum   'B10 H10 Pb2 C2 N2 O18'
_cell_volume   416.74799380
_cell_formula_units_Z   2
loop_
 _symmetry_equiv_pos_site_id
 _symmetry_equiv_pos_as_xyz
  1  'x, y, z'
loop_
 _atom_site_type_symbol
 _atom_site_label
 _atom_site_symmetry_multiplicity
 _atom_site_fract_x
 _atom_site_fract_y
 _atom_site_fract_z
 _atom_site_occupancy
 _atom_site_hle17_bader_spin_density
 _atom_site_hle17_ddec_charge
 _atom_site_hle17_ddec_spin_density
 _atom_site_hle17_ddec_sum_bond_order
 _atom_site_hle17_magmom
 _atom_site_hse06_10hf_bader_spin_density
 _atom_site_hse06_10hf_ddec_charge
 _atom_site_hse06_10hf_ddec_spin_density
 _atom_site_hse06_10hf_ddec_sum_bond_order
 _atom_site_hse06_10hf_magmom
 _atom_site_hse06_bader_spin_density
 _atom_site_hse06_ddec_charge
 _atom_site_hse06_ddec_spin_density
 _atom_site_hse06_ddec_sum_bond_order
 _atom_site_hse06_magmom
 _atom_site_pbe_bader_spin_density
 _atom_site_pbe_cm5_charge
 _atom_site_pbe_ddec_charge
 _atom_site_pbe_ddec_spin_density
 _atom_site_pbe_ddec_sum_bond_order
 _atom_site_pbe_magmom
B  B0  1  0.19169921  0.39419643  0.69360005  1  0  1.232123  0  2.760482  0  0  1.063224  0  3.09754  0  0  1.097663  0  3.068688  0  0  0.085785  1.039345  0  3.117311  0
B  B1  1  0.80829898  0.60580179  0.30640112  1  0  1.232191  0  2.76027  0  0  1.063307  0  3.097311  0  0  1.097749  0  3.068452  0  0  0.085841  1.039436  0  3.117073  0
B  B2  1  0.31765201  0.66336037  0.90197073  1  0  1.162909  0  2.881111  0  0  1.007703  0  3.209079  0  0  1.049959  0  3.166126  0  0  0.106247  0.977295  0  3.240374  0
B  B3  1  0.68234320  0.33663784  0.09803032  1  0  1.162842  0  2.881175  0  0  1.007664  0  3.209113  0  0  1.049926  0  3.166152  0  0  0.106189  0.977267  0  3.240406  0
B  B4  1  0.38584106  0.81896466  0.70214196  1  0  1.229632  0  2.737197  0  0  1.057341  0  3.07496  0  0  1.091702  0  3.047447  0  0  0.084846  1.033039  0  3.094888  0
B  B5  1  0.61415948  0.18103527  0.29785853  1  0  1.229619  0  2.737255  0  0  1.057328  0  3.075012  0  0  1.091685  0  3.047512  0  0  0.084881  1.033036  0  3.094935  0
B  B6  1  0.75778788  0.11307287  0.64978492  1  0  1.210761  0  2.800658  0  0  1.047342  0  3.129712  0  0  1.090939  0  3.086969  0  0  0.147401  1.016686  0  3.159518  0
B  B7  1  0.24221266  0.88692707  0.35021558  1  0  1.210775  0  2.800529  0  0  1.047374  0  3.129529  0  0  1.090976  0  3.086758  0  0  0.147397  1.016723  0  3.159331  0
B  B8  1  0.44667665  0.20213031  0.66843985  1  0  1.21456  0  2.784596  0  0  1.050043  0  3.113009  0  0  1.094126  0  3.070124  0  0  0.149658  1.018924  0  3.142934  0
B  B9  1  0.55332177  0.79787136  0.33156074  1  0  1.21454  0  2.784633  0  0  1.050033  0  3.113037  0  0  1.09411  0  3.070154  0  0  0.149622  1.018907  0  3.142977  0
H  H10  1  0.40801577  0.87031914  0.07504680  1  0  0.422925  0  0.881743  0  0  0.389658  0  0.948822  0  0  0.40069  0  0.93287  0  0  0.318922  0.382069  0  0.959798  0
H  H11  1  0.59198477  0.12968081  0.92495556  1  0  0.422944  0  0.881687  0  0  0.389677  0  0.948794  0  0  0.400707  0  0.932844  0  0  0.318913  0.382082  0  0.95978  0
H  H12  1  0.69198055  0.70391882  0.85822257  1  0  0.283503  0  0.930821  0  0  0.276021  0  0.984857  0  0  0.282023  0  0.981114  0  0  0.304463  0.271784  0  0.987464  0
H  H13  1  0.30802235  0.29608283  0.14177632  1  0  0.283518  0  0.930733  0  0  0.276018  0  0.984792  0  0  0.282019  0  0.981055  0  0  0.304474  0.271784  0  0.987394  0
H  H14  1  0.87319063  0.62140970  0.89837088  1  0  0.31295  0  0.896471  0  0  0.302114  0  0.952736  0  0  0.308348  0  0.948907  0  0  0.30404  0.297736  0  0.955278  0
H  H15  1  0.12680991  0.37859022  0.10162775  1  0  0.312926  0  0.896473  0  0  0.302088  0  0.952743  0  0  0.308322  0  0.948913  0  0  0.304037  0.297713  0  0.955284  0
H  H16  1  0.98548572  0.09803175  0.88304398  1  0  0.075294  0  0.954741  0  0  0.091461  0  1.016587  0  0  0.092588  0  1.015978  0  0  0.11135  0.09051  0  1.017059  0
H  H17  1  0.01452015  0.90196989  0.11695409  1  0  0.075274  0  0.954741  0  0  0.091447  0  1.016566  0  0  0.092579  0  1.015961  0  0  0.11133  0.090497  0  1.017038  0
H  H18  1  0.19282867  0.02304682  0.92271113  1  0  0.061418  0  0.950223  0  0  0.076756  0  1.016964  0  0  0.077377  0  1.016879  0  0  0.108767  0.076259  0  1.01705  0
H  H19  1  0.80717485  0.97695310  0.07728761  1  0  0.061448  0  0.95014  0  0  0.076734  0  1.016919  0  0  0.07736  0  1.016835  0  0  0.108747  0.076231  0  1.01701  0
Pb  Pb20  1  0.86293732  0.68682442  0.61753396  1  0  1.440291  0  1.335957  0  0  1.24214  0  1.726416  0  0  1.299867  0  1.683258  0  0  0.753072  1.202379  0  1.755113  0
Pb  Pb21  1  0.13706322  0.31317551  0.38246560  1  0  1.440313  0  1.335968  0  0  1.242162  0  1.726439  0  0  1.29989  0  1.683279  0  0  0.753088  1.202404  0  1.755143  0
C  C22  1  0.01510329  0.98079184  0.92997215  1  0  0.043225  0  3.652224  0  0  -0.014661  0  3.920107  0  0  -0.010713  0  3.932252  0  0  -0.076759  -0.017414  0  3.91211  0
C  C23  1  0.98490172  0.01920807  0.07002572  1  0  0.043177  0  3.652242  0  0  -0.01464  0  3.920053  0  0  -0.010728  0  3.932241  0  0  -0.07676  -0.017387  0  3.912059  0
N  N24  1  0.85883257  0.74186363  0.85768457  1  0  -0.649307  0  3.035982  0  0  -0.589618  0  3.270756  0  0  -0.611226  0  3.272434  0  0  -0.589774  -0.574999  0  3.269014  0
N  N25  1  0.14116351  0.25813629  0.14231389  1  0  -0.649292  0  3.035993  0  0  -0.589595  0  3.270784  0  0  -0.611197  0  3.272469  0  0  -0.589768  -0.574982  0  3.269053  0
O  O26  1  0.30220173  0.98123096  0.67974493  1  0  -0.892961  0  2.126785  0  0  -0.764668  0  2.386193  0  0  -0.796022  0  2.364524  0  0  -0.170181  -0.742742  0  2.40086  0
O  O27  1  0.69779386  0.01876208  0.32025561  1  0  -0.892954  0  2.126841  0  0  -0.764675  0  2.386258  0  0  -0.796018  0  2.364579  0  0  -0.170172  -0.742746  0  2.400921  0
O  O28  1  0.60559435  0.88768243  0.65074247  1  0  -0.903228  0  2.13603  0  0  -0.782228  0  2.400855  0  0  -0.81284  0  2.379402  0  0  -0.174648  -0.760792  0  2.415385  0
O  O29  1  0.39440470  0.11231751  0.34925890  1  0  -0.903224  0  2.136043  0  0  -0.782224  0  2.400868  0  0  -0.812838  0  2.379416  0  0  -0.174643  -0.76079  0  2.415393  0
O  O30  1  0.67976586  0.27082768  0.66057371  1  0  -0.866321  0  2.16893  0  0  -0.73767  0  2.429519  0  0  -0.768979  0  2.402836  0  0  -0.145139  -0.715821  0  2.448033  0
O  O31  1  0.32023295  0.72916880  0.33942543  1  0  -0.866306  0  2.168839  0  0  -0.737674  0  2.42946  0  0  -0.768989  0  2.402791  0  0  -0.145136  -0.715817  0  2.447955  0
O  O32  1  0.39158568  0.36698129  0.65915163  1  0  -0.907348  0  2.131001  0  0  -0.788907  0  2.396262  0  0  -0.819667  0  2.374848  0  0  -0.176097  -0.767354  0  2.410408  0
O  O33  1  0.60841102  0.63301693  0.34085041  1  0  -0.907351  0  2.130882  0  0  -0.788919  0  2.39615  0  0  -0.819672  0  2.374728  0  0  -0.176111  -0.767367  0  2.410297  0
O  O34  1  0.97800325  0.17385788  0.63375287  1  0  -0.911815  0  2.133818  0  0  -0.795577  0  2.402079  0  0  -0.826173  0  2.380923  0  0  -0.177296  -0.773984  0  2.415812  0
O  O35  1  0.02199667  0.82614377  0.36624684  1  0  -0.911849  0  2.133799  0  0  -0.795602  0  2.402044  0  0  -0.826198  0  2.380884  0  0  -0.177295  -0.774013  0  2.415772  0
O  O36  1  0.20118023  0.44143331  0.83198189  1  0  -0.861881  0  2.092475  0  0  -0.755223  0  2.351474  0  0  -0.78166  0  2.328288  0  0  -0.19003  -0.736347  0  2.366138  0
O  O37  1  0.79881436  0.55856662  0.16801838  1  0  -0.861869  0  2.092352  0  0  -0.755255  0  2.351371  0  0  -0.781704  0  2.328196  0  0  -0.190081  -0.736381  0  2.366028  0
O  O38  1  0.43511701  0.84684933  0.84289436  1  0  -0.901494  0  2.140005  0  0  -0.780939  0  2.383065  0  0  -0.80946  0  2.361162  0  0  -0.194866  -0.760718  0  2.397757  0
O  O39  1  0.56488589  0.15315234  0.15710733  1  0  -0.901506  0  2.140068  0  0  -0.780949  0  2.383097  0  0  -0.809473  0  2.361195  0  0  -0.194904  -0.760768  0  2.397816  0
O  O40  1  0.20459598  0.58683217  0.63997699  1  0  -0.982276  0  2.110273  0  0  -0.856167  0  2.368256  0  0  -0.888007  0  2.353557  0  0  -0.208576  -0.833996  0  2.377213  0
O  O41  1  0.79540456  0.41316775  0.36002163  1  0  -0.982299  0  2.110316  0  0  -0.856179  0  2.368291  0  0  -0.88802  0  2.353593  0  0  -0.208566  -0.833991  0  2.377201  0
O  O42  1  0.32034790  0.70319653  0.03210897  1  0  -0.812961  0  1.924785  0  0  -0.738144  0  2.147918  0  0  -0.760523  0  2.117488  0  0  -0.371171  -0.721863  0  2.168081  0
O  O43  1  0.67964544  0.29680687  0.96789347  1  0  -0.812915  0  1.924742  0  0  -0.738121  0  2.147897  0  0  -0.760499  0  2.117464  0  0  -0.371097  -0.721836  0  2.168061  0
