# generated using pymatgen
data_AgH17C24(NO2)2
_symmetry_space_group_name_H-M   'P 1'
_cell_length_a   11.40127748
_cell_length_b   13.85898500
_cell_length_c   16.05624159
_cell_angle_alpha   90.05529953
_cell_angle_beta   110.88852706
_cell_angle_gamma   89.96213783
_symmetry_Int_Tables_number   1
_chemical_formula_structural   AgH17C24(NO2)2
_chemical_formula_sum   'Ag4 H68 C96 N8 O16'
_cell_volume   2370.30235574
_cell_formula_units_Z   4
loop_
 _symmetry_equiv_pos_site_id
 _symmetry_equiv_pos_as_xyz
  1  'x, y, z'
loop_
 _atom_site_type_symbol
 _atom_site_label
 _atom_site_symmetry_multiplicity
 _atom_site_fract_x
 _atom_site_fract_y
 _atom_site_fract_z
 _atom_site_occupancy
 _atom_site_pbe_bader_charge
 _atom_site_pbe_bader_spin_density
 _atom_site_pbe_cm5_charge
 _atom_site_pbe_ddec_charge
 _atom_site_pbe_ddec_spin_density
 _atom_site_pbe_ddec_sum_bond_order
 _atom_site_pbe_magmom
Ag  Ag0  1  0.80065845  0.35646587  0.00834729  1  0.57054  0  0.448859  0.321113  0  1.988523  0
Ag  Ag1  1  0.79252015  0.14319317  0.99243809  1  0.573915  0  0.448824  0.320881  0  1.990253  0
Ag  Ag2  1  0.19934618  0.64353503  0.99165346  1  0.570589  0  0.448837  0.321064  0  1.988526  0
Ag  Ag3  1  0.20747543  0.85680856  0.00755740  1  0.573966  0  0.448838  0.320926  0  1.990259  0
H  H4  1  0.66114959  0.42336101  0.78216123  1  0.645349  0  0.285374  0.343511  0  1.016257  0
H  H5  1  0.87901035  0.07714409  0.21823276  1  0.641916  0  0.285462  0.344068  0  1.015966  0
H  H6  1  0.33885394  0.57662898  0.21784299  1  0.645317  0  0.285409  0.343519  0  1.016297  0
H  H7  1  0.12098997  0.92285548  0.78176274  1  0.641961  0  0.285429  0.344091  0  1.015917  0
H  H8  1  0.47411349  0.15809202  0.68695772  1  0.031224  0  0.098995  0.096774  0  1.007431  0
H  H9  1  0.78816681  0.34253572  0.31414158  1  0.081112  0  0.09944  0.097406  0  1.006656  0
H  H10  1  0.52589470  0.84189164  0.31303893  1  0.031476  0  0.098991  0.096822  0  1.007481  0
H  H11  1  0.21183175  0.65746591  0.68585874  1  0.081142  0  0.09944  0.097403  0  1.006603  0
H  H12  1  0.35255175  0.17561811  0.52396220  1  0.071032  0  0.097969  0.09575  0  1.017406  0
H  H13  1  0.82982975  0.32433407  0.47700302  1  0.042994  0  0.098038  0.095435  0  1.017818  0
H  H14  1  0.64744569  0.82437422  0.47603411  1  0.0711  0  0.09795  0.095703  0  1.017573  0
H  H15  1  0.17017153  0.67566683  0.52299720  1  0.043019  0  0.098035  0.095444  0  1.017795  0
H  H16  1  0.42532656  0.29408812  0.43492936  1  0.145273  0  0.099543  0.10701  0  1.04984  0
H  H17  1  0.99114105  0.20502463  0.56567964  1  0.089661  0  0.099492  0.107013  0  1.050076  0
H  H18  1  0.57466584  0.70591350  0.56507138  1  0.145234  0  0.099535  0.106968  0  1.049871  0
H  H19  1  0.00885476  0.79497483  0.43432073  1  0.089497  0  0.099472  0.107012  0  1.050043  0
H  H20  1  0.61944762  0.38721065  0.50720713  1  0.051833  0  0.102901  0.106099  0  0.992029  0
H  H21  1  0.11276274  0.11192937  0.49328241  1  0.050435  0  0.10308  0.106425  0  0.991915  0
H  H22  1  0.38054694  0.61278884  0.49279199  1  0.051752  0  0.102861  0.106057  0  0.992115  0
H  H23  1  0.88723378  0.88807009  0.50671772  1  0.050849  0  0.103075  0.106389  0  0.991937  0
H  H24  1  0.87774598  0.25553058  0.65531274  1  0.115622  0  0.103163  0.112644  0  1.027546  0
H  H25  1  0.22295094  0.24419727  0.34559940  1  0.111763  0  0.103329  0.112844  0  1.027054  0
H  H26  1  0.12226523  0.74447242  0.34469084  1  0.116073  0  0.103147  0.112631  0  1.027498  0
H  H27  1  0.77705475  0.75580715  0.65440524  1  0.111758  0  0.103332  0.112819  0  1.027079  0
H  H28  1  0.08011805  0.33893762  0.68922095  1  0.061218  0  0.102836  0.101063  0  0.993372  0
H  H29  1  0.39117446  0.16073297  0.31146948  1  0.070877  0  0.102803  0.100959  0  0.994056  0
H  H30  1  0.91988597  0.66107264  0.31078022  1  0.061132  0  0.10283  0.101091  0  0.993473  0
H  H31  1  0.60882987  0.83926785  0.68853471  1  0.070974  0  0.102787  0.100942  0  0.994045  0
H  H32  1  0.09492816  0.51797227  0.72266116  1  0.07739  0  0.098054  0.09858  0  1.02418  0
H  H33  1  0.37238312  0.98178200  0.27772747  1  0.080378  0  0.098174  0.098915  0  1.023645  0
H  H34  1  0.90505965  0.48203731  0.27733882  1  0.077147  0  0.098104  0.09863  0  1.024109  0
H  H35  1  0.62761971  0.01821895  0.72227055  1  0.080414  0  0.098175  0.098907  0  1.023719  0
H  H36  1  0.91007210  0.60408799  0.72906682  1  0.078722  0  0.101136  0.098901  0  1.039427  0
H  H37  1  0.18102736  0.89578441  0.27123134  1  0.076203  0  0.101493  0.099958  0  1.038029  0
H  H38  1  0.08991044  0.39591731  0.27093067  1  0.078766  0  0.101164  0.098952  0  1.039472  0
H  H39  1  0.81896833  0.10422167  0.72876337  1  0.076142  0  0.10149  0.099917  0  1.037969  0
H  H40  1  0.06481343  0.32382388  0.13902092  1  0.151208  0  0.119896  0.096382  0  1.006887  0
H  H41  1  0.92540712  0.17507844  0.86193988  1  0.130763  0  0.120032  0.096632  0  1.007587  0
H  H42  1  0.93518677  0.67617998  0.86097639  1  0.151122  0  0.119913  0.096396  0  1.006888  0
H  H43  1  0.07459423  0.82492248  0.13805948  1  0.130863  0  0.120053  0.096658  0  1.00754  0
H  H44  1  0.28661840  0.33032855  0.14785579  1  0.124835  0  0.112529  0.126607  0  1.011865  0
H  H45  1  0.13845129  0.16901087  0.85320189  1  0.136637  0  0.112773  0.12635  0  1.011941  0
H  H46  1  0.71338093  0.66968030  0.85214443  1  0.124653  0  0.112549  0.126673  0  1.011803  0
H  H47  1  0.86154749  0.83099081  0.14679585  1  0.136661  0  0.112776  0.126371  0  1.011923  0
H  H48  1  0.14770302  0.43299197  0.87475453  1  0.089786  0  0.107375  0.114325  0  1.035459  0
H  H49  1  0.27416271  0.06705229  0.12651882  1  0.088846  0  0.107382  0.114498  0  1.034875  0
H  H50  1  0.85229921  0.56701116  0.12524291  1  0.090007  0  0.107341  0.114263  0  1.035546  0
H  H51  1  0.72583676  0.93294795  0.87347865  1  0.088838  0  0.107382  0.114496  0  1.034926  0
H  H52  1  0.93231351  0.41794854  0.87691077  1  0.138486  0  0.116655  0.095028  0  1.012829  0
H  H53  1  0.05659567  0.08200714  0.12434686  1  0.131439  0  0.116796  0.095209  0  1.013238  0
H  H54  1  0.06769006  0.58205675  0.12308710  1  0.138484  0  0.116643  0.094996  0  1.012837  0
H  H55  1  0.94340445  0.91799597  0.87565130  1  0.131688  0  0.116793  0.095222  0  1.013152  0
H  H56  1  0.67334465  0.41108528  0.14026321  1  0.097452  0  0.11891  0.099092  0  1.000893  0
H  H57  1  0.53222720  0.08913319  0.86020066  1  0.103242  0  0.11939  0.099482  0  0.999714  0
H  H58  1  0.32665915  0.58890909  0.85973851  1  0.09756  0  0.118917  0.099109  0  1.000748  0
H  H59  1  0.46777276  0.91086053  0.13979817  1  0.102922  0  0.119436  0.0995  0  0.999757  0
H  H60  1  0.45816198  0.42328683  0.14840616  1  0.143303  0  0.112473  0.133355  0  1.016779  0
H  H61  1  0.30911173  0.07674976  0.85253125  1  0.135201  0  0.112252  0.132865  0  1.017328  0
H  H62  1  0.54184633  0.57671468  0.85159921  1  0.143348  0  0.112464  0.133392  0  1.016755  0
H  H63  1  0.69088555  0.92324829  0.14746775  1  0.135098  0  0.112286  0.132927  0  1.017273  0
H  H64  1  0.31072513  0.33634853  0.87125007  1  0.091813  0  0.113243  0.123844  0  0.986647  0
H  H65  1  0.44078138  0.16357967  0.12974366  1  0.068413  0  0.113371  0.123466  0  0.987397  0
H  H66  1  0.68928274  0.66365736  0.12875303  1  0.091654  0  0.113253  0.123803  0  0.98664  0
H  H67  1  0.55921471  0.83641770  0.87025323  1  0.068399  0  0.113365  0.123456  0  0.987396  0
H  H68  1  0.53118828  0.33370063  0.87427192  1  0.120761  0  0.120558  0.100184  0  0.996993  0
H  H69  1  0.65801856  0.16619491  0.12629771  1  0.136277  0  0.120724  0.100348  0  0.998129  0
H  H70  1  0.46881588  0.66629871  0.12573396  1  0.120761  0  0.120582  0.100147  0  0.997011  0
H  H71  1  0.34197744  0.83380100  0.87370000  1  0.136197  0  0.120708  0.100341  0  0.998158  0
C  C72  1  0.67743363  0.25539997  0.78778935  1  1.583487  0  0.200681  0.571088  0  4.229432  0
C  C73  1  0.88995505  0.24508102  0.21309966  1  1.542552  0  0.201  0.570372  0  4.229328  0
C  C74  1  0.32255782  0.74458520  0.21220466  1  1.58374  0  0.200701  0.571061  0  4.229513  0
C  C75  1  0.11004409  0.75492345  0.78690220  1  1.542571  0  0.201014  0.570376  0  4.229836  0
C  C76  1  0.61254776  0.26395420  0.68870541  1  0.019614  0  -0.023805  -0.091578  0  3.969926  0
C  C77  1  0.92438766  0.23624515  0.31214659  1  -0.036244  0  -0.023754  -0.091471  0  3.970073  0
C  C78  1  0.38745108  0.73603669  0.31129040  1  0.015904  0  -0.023791  -0.091472  0  3.969737  0
C  C79  1  0.07561624  0.76375214  0.68785433  1  -0.036332  0  -0.023854  -0.091643  0  3.970301  0
C  C80  1  0.50469255  0.20853631  0.64671169  1  -0.105254  0  -0.090115  -0.096038  0  4.005572  0
C  C81  1  0.85881120  0.29170819  0.35424219  1  -0.002361  0  -0.090434  -0.096763  0  4.004367  0
C  C82  1  0.49531655  0.79145244  0.35328309  1  -0.105214  0  -0.090148  -0.096242  0  4.005627  0
C  C83  1  0.14118674  0.70829345  0.64575751  1  -0.002433  0  -0.090381  -0.096599  0  4.004513  0
C  C84  1  0.43684819  0.21852586  0.55588562  1  -0.034783  0  -0.094082  -0.085442  0  4.022993  0
C  C85  1  0.88191591  0.28133032  0.44499166  1  -0.040485  0  -0.094239  -0.085237  0  4.023265  0
C  C86  1  0.56315202  0.78147008  0.44411067  1  -0.034758  0  -0.094053  -0.08534  0  4.023148  0
C  C87  1  0.11808459  0.71867056  0.55500965  1  -0.040134  0  -0.094165  -0.085199  0  4.023323  0
C  C88  1  0.47744319  0.28396475  0.50582991  1  -0.093292  0  -0.089501  -0.074422  0  3.997584  0
C  C89  1  0.97236636  0.21544520  0.49486401  1  -0.062389  0  -0.089325  -0.073355  0  3.996949  0
C  C90  1  0.52256000  0.71603181  0.49417123  1  -0.093561  0  -0.089465  -0.074299  0  3.997471  0
C  C91  1  0.02763271  0.78455279  0.50513772  1  -0.062414  0  -0.089406  -0.073502  0  3.996933  0
C  C92  1  0.58629085  0.33774531  0.54683675  1  0.026165  0  -0.089614  -0.125371  0  3.971915  0
C  C93  1  0.03999414  0.16166043  0.45378056  1  0.004048  0  -0.090016  -0.126718  0  3.972727  0
C  C94  1  0.41370941  0.66225263  0.45316709  1  0.026393  0  -0.089626  -0.125456  0  3.971945  0
C  C95  1  0.96000369  0.83833830  0.54621994  1  0.003388  0  -0.090016  -0.126562  0  3.972656  0
C  C96  1  0.65519676  0.32881668  0.63824931  1  -0.06851  0  -0.007601  0.043391  0  3.980668  0
C  C97  1  0.01737847  0.17100324  0.36243247  1  -0.052534  0  -0.006831  0.044731  0  3.980975  0
C  C98  1  0.34480241  0.67117558  0.36175060  1  -0.064999  0  -0.007586  0.04345  0  3.980692  0
C  C99  1  0.98262622  0.82899623  0.63756739  1  -0.0524  0  -0.006733  0.044722  0  3.980845  0
C  C100  1  0.77776618  0.38109584  0.67395244  1  -0.036127  0  -0.002103  0.053643  0  3.978106  0
C  C101  1  0.10418353  0.11876507  0.32669671  1  0.014657  0  -0.002524  0.052924  0  3.978206  0
C  C102  1  0.22223633  0.61890288  0.32604898  1  -0.035949  0  -0.00217  0.053434  0  3.978041  0
C  C103  1  0.89581815  0.88123577  0.67330671  1  0.014693  0  -0.002615  0.052737  0  3.978308  0
C  C104  1  0.88456832  0.33196354  0.67252596  1  0.01356  0  -0.091428  -0.134645  0  3.955709  0
C  C105  1  0.21247187  0.16779644  0.32824509  1  -0.054369  0  -0.090776  -0.134064  0  3.955517  0
C  C106  1  0.11542969  0.66803812  0.32747288  1  0.013065  0  -0.091394  -0.134612  0  3.955535  0
C  C107  1  0.78753272  0.83220732  0.67175658  1  -0.053931  0  -0.090787  -0.134051  0  3.95573  0
C  C108  1  0.99909993  0.37951805  0.69124121  1  -0.081114  0  -0.088099  -0.07086  0  4.008095  0
C  C109  1  0.30814587  0.12022180  0.30940996  1  -0.081394  0  -0.088364  -0.071304  0  4.009862  0
C  C110  1  0.00089666  0.62048935  0.30875907  1  -0.081224  0  -0.088128  -0.070865  0  4.008187  0
C  C111  1  0.69186035  0.87977970  0.69059611  1  -0.081816  0  -0.08834  -0.071271  0  4.009899  0
C  C112  1  0.00778654  0.47821749  0.70970519  1  -0.059947  0  -0.096051  -0.091744  0  4.020615  0
C  C113  1  0.29826822  0.02155420  0.29077572  1  -0.052086  0  -0.095729  -0.091285  0  4.021393  0
C  C114  1  0.99220732  0.52178991  0.29029519  1  -0.059682  0  -0.096085  -0.091783  0  4.020441  0
C  C115  1  0.70172986  0.97844604  0.70922223  1  -0.052003  0  -0.095738  -0.091262  0  4.021577  0
C  C116  1  0.90311914  0.52748467  0.71322057  1  0.033106  0  -0.084102  -0.084394  0  3.975925  0
C  C117  1  0.19009991  0.97235740  0.28722019  1  -0.051271  0  -0.084136  -0.085696  0  3.976432  0
C  C118  1  0.09686887  0.47251488  0.28677577  1  0.03317  0  -0.084191  -0.084538  0  3.97577  0
C  C119  1  0.80989670  0.02764425  0.71277913  1  -0.051146  0  -0.08415  -0.085727  0  3.976275  0
C  C120  1  0.78895240  0.47967891  0.69789741  1  -0.131541  0  -0.020863  -0.108765  0  3.967766  0
C  C121  1  0.09131483  0.02024690  0.30254088  1  -0.046132  0  -0.021053  -0.108667  0  3.9688  0
C  C122  1  0.21103691  0.52031774  0.30209925  1  -0.130987  0  -0.020724  -0.108474  0  3.967573  0
C  C123  1  0.90868379  0.97975258  0.69745854  1  -0.046404  0  -0.021051  -0.108432  0  3.968527  0
C  C124  1  0.68640594  0.53622747  0.71347901  1  1.531733  0  0.221663  0.580589  0  4.14883  0
C  C125  1  0.97291332  0.96388851  0.28651512  1  1.542923  0  0.221114  0.579763  0  4.151503  0
C  C126  1  0.31358322  0.46377706  0.28652039  1  1.530691  0  0.22152  0.580321  0  4.148729  0
C  C127  1  0.02708214  0.03612327  0.71348315  1  1.543133  0  0.221252  0.579658  0  4.151654  0
C  C128  1  0.08827550  0.34758747  0.08221491  1  0.42242  0  0.046809  0.092876  0  3.916499  0
C  C129  1  0.00606050  0.15166433  0.91880974  1  0.411881  0  0.047112  0.092477  0  3.917769  0
C  C130  1  0.91172668  0.65241853  0.91778345  1  0.422349  0  0.046911  0.092987  0  3.916424  0
C  C131  1  0.99393652  0.84833869  0.08119280  1  0.412015  0  0.04708  0.092493  0  3.91772  0
C  C132  1  0.21189330  0.35149528  0.08631093  1  -0.009342  0  -0.078062  -0.15924  0  3.912873  0
C  C133  1  0.12559653  0.14797816  0.91477695  1  -0.006943  0  -0.078059  -0.158075  0  3.913248  0
C  C134  1  0.78811014  0.64851213  0.91368870  1  -0.009184  0  -0.078114  -0.159333  0  3.913188  0
C  C135  1  0.87440008  0.85202421  0.08522238  1  -0.007016  0  -0.078055  -0.158076  0  3.913438  0
C  C136  1  0.23701854  0.38087771  0.01081206  1  -0.009709  0  0.009849  0.095841  0  3.994143  0
C  C137  1  0.22670057  0.11899631  0.99037002  1  -0.043051  0  0.009785  0.094655  0  3.99481  0
C  C138  1  0.76298695  0.61913258  0.98918778  1  -0.009362  0  0.009793  0.095632  0  3.994475  0
C  C139  1  0.77329880  0.88100031  0.00962825  1  -0.042968  0  0.009725  0.094598  0  3.994955  0
C  C140  1  0.13476716  0.40739916  0.93494893  1  -0.049882  0  -0.084598  -0.185596  0  3.974003  0
C  C141  1  0.20073968  0.09253278  0.06628538  1  0.000958  0  -0.08457  -0.18473  0  3.972631  0
C  C142  1  0.86523244  0.59260688  0.06504780  1  -0.050337  0  -0.084541  -0.185319  0  3.97408  0
C  C143  1  0.79926293  0.90746884  0.93371523  1  0.000946  0  -0.084532  -0.18469  0  3.972715  0
C  C144  1  0.01366039  0.40054799  0.93578965  1  0.489603  0  0.046367  0.094033  0  3.929682  0
C  C145  1  0.07873964  0.09926890  0.06542467  1  0.477856  0  0.045653  0.092264  0  3.932721  0
C  C146  1  0.98633968  0.59945727  0.06420940  1  0.489612  0  0.046327  0.09395  0  3.929899  0
C  C147  1  0.92126486  0.90073340  0.93457783  1  0.477621  0  0.045677  0.092284  0  3.932651  0
C  C148  1  0.58940328  0.39686051  0.08212754  1  0.456631  0  0.044095  0.082777  0  3.939685  0
C  C149  1  0.50689808  0.10329872  0.91844558  1  0.446757  0  0.044297  0.083124  0  3.938016  0
C  C150  1  0.41060418  0.60314096  0.91787978  1  0.456535  0  0.044219  0.082882  0  3.939683  0
C  C151  1  0.49309786  0.89669789  0.08155302  1  0.447048  0  0.044238  0.083085  0  3.938107  0
C  C152  1  0.47000110  0.40139826  0.08652665  1  0.027202  0  -0.079161  -0.165796  0  3.913041  0
C  C153  1  0.38322201  0.09866700  0.91431880  1  0.004783  0  -0.078862  -0.166526  0  3.911761  0
C  C154  1  0.53000490  0.59860696  0.91347457  1  0.027163  0  -0.079274  -0.166012  0  3.91315  0
C  C155  1  0.61677253  0.90132960  0.08568027  1  0.004834  0  -0.078911  -0.166575  0  3.911718  0
C  C156  1  0.36571446  0.38013171  0.00996953  1  -0.012745  0  0.011461  0.101215  0  3.985994  0
C  C157  1  0.35613972  0.11985719  0.99103288  1  -0.029431  0  0.011562  0.102686  0  3.984803  0
C  C158  1  0.63428740  0.61987205  0.99003223  1  -0.012758  0  0.011487  0.101262  0  3.985898  0
C  C159  1  0.64385615  0.88014013  0.00896659  1  -0.02923  0  0.011642  0.102736  0  3.984769  0
C  C160  1  0.38791240  0.35548001  0.93213496  1  -0.054951  0  -0.08101  -0.173271  0  3.949341  0
C  C161  1  0.45663181  0.14452517  0.06875292  1  0.010271  0  -0.08155  -0.173415  0  3.949417  0
C  C162  1  0.61209361  0.64452592  0.06786627  1  -0.054876  0  -0.08102  -0.173149  0  3.949179  0
C  C163  1  0.54336616  0.85547289  0.93124585  1  0.010339  0  -0.081566  -0.173432  0  3.949482  0
C  C164  1  0.51010012  0.35270863  0.93327594  1  0.460113  0  0.045233  0.089835  0  3.945709  0
C  C165  1  0.57753712  0.14728638  0.06738320  1  0.439088  0  0.04573  0.090584  0  3.946336  0
C  C166  1  0.48990014  0.64729236  0.06672045  1  0.460205  0  0.045272  0.089761  0  3.945999  0
C  C167  1  0.42246214  0.85270734  0.93261588  1  0.438973  0  0.045727  0.090544  0  3.94633  0
N  N168  1  0.99023662  0.37080334  0.00817438  1  -1.215912  0  -0.344702  -0.189362  0  3.602107  0
N  N169  1  0.98246791  0.12864690  0.99293148  1  -1.193288  0  -0.344959  -0.189246  0  3.603715  0
N  N170  1  0.00976483  0.62919976  0.99182416  1  -1.215879  0  -0.344715  -0.189392  0  3.602064  0
N  N171  1  0.01753176  0.87135539  0.00707183  1  -1.193527  0  -0.344965  -0.189307  0  3.603566  0
N  N172  1  0.60986477  0.37288599  0.00698543  1  -1.200901  0  -0.345019  -0.191965  0  3.608651  0
N  N173  1  0.60298231  0.12718042  0.99351686  1  -1.188813  0  -0.345653  -0.192499  0  3.609832  0
N  N174  1  0.39014351  0.62711119  0.99301984  1  -1.200864  0  -0.345089  -0.191867  0  3.608988  0
N  N175  1  0.39701565  0.87281547  0.00648186  1  -1.188845  0  -0.345651  -0.192486  0  3.609873  0
O  O176  1  0.71520970  0.33495863  0.83091989  1  -1.186688  0  -0.327343  -0.573944  0  2.33179  0
O  O177  1  0.88436467  0.16559164  0.16979494  1  -1.177999  0  -0.327485  -0.574207  0  2.332893  0
O  O178  1  0.28479177  0.66502776  0.16908411  1  -1.186974  0  -0.327314  -0.573924  0  2.332013  0
O  O179  1  0.11563814  0.83441435  0.83020404  1  -1.178105  0  -0.327495  -0.574183  0  2.333105  0
O  O180  1  0.68876035  0.17324622  0.82317291  1  -1.177716  0  -0.324924  -0.553513  0  2.256805  0
O  O181  1  0.86597224  0.32729453  0.17783679  1  -1.179748  0  -0.324542  -0.552575  0  2.257567  0
O  O182  1  0.31123229  0.82674035  0.17682323  1  -1.177722  0  -0.324908  -0.553468  0  2.256648  0
O  O183  1  0.13403461  0.67271145  0.82216248  1  -1.179599  0  -0.324496  -0.552533  0  2.257851  0
O  O184  1  0.62103491  0.49048482  0.75567408  1  -1.182018  0  -0.343773  -0.507136  0  2.307853  0
O  O185  1  0.86531153  0.00989685  0.24441534  1  -1.180675  0  -0.343917  -0.507466  0  2.308421  0
O  O186  1  0.37896886  0.50950435  0.24433505  1  -1.181892  0  -0.343786  -0.506979  0  2.308205  0
O  O187  1  0.13469160  0.99010346  0.75557923  1  -1.180689  0  -0.343979  -0.507544  0  2.30793  0
O  O188  1  0.66741496  0.62234039  0.69375708  1  -1.161052  0  -0.301718  -0.512927  0  2.143475  0
O  O189  1  0.97351694  0.87766957  0.30581557  1  -1.164626  0  -0.301288  -0.512586  0  2.145678  0
O  O190  1  0.33256723  0.37764323  0.30624171  1  -1.160764  0  -0.301637  -0.512915  0  2.142689  0
O  O191  1  0.02648346  0.12233328  0.69419501  1  -1.164975  0  -0.301296  -0.512484  0  2.146307  0
