# generated using pymatgen
data_CuH5C4N9
_symmetry_space_group_name_H-M   'P 1'
_cell_length_a   5.88681031
_cell_length_b   7.21777984
_cell_length_c   19.36374593
_cell_angle_alpha   89.99996548
_cell_angle_beta   89.99990766
_cell_angle_gamma   100.21231523
_symmetry_Int_Tables_number   1
_chemical_formula_structural   CuH5C4N9
_chemical_formula_sum   'Cu4 H20 C16 N36'
_cell_volume   809.72521695
_cell_formula_units_Z   4
loop_
 _symmetry_equiv_pos_site_id
 _symmetry_equiv_pos_as_xyz
  1  'x, y, z'
loop_
 _atom_site_type_symbol
 _atom_site_label
 _atom_site_symmetry_multiplicity
 _atom_site_fract_x
 _atom_site_fract_y
 _atom_site_fract_z
 _atom_site_occupancy
 _atom_site_hle17_ddec_charge
 _atom_site_hle17_ddec_spin_density
 _atom_site_hle17_ddec_sum_bond_order
 _atom_site_hle17_magmom
 _atom_site_hse06_10hf_ddec_charge
 _atom_site_hse06_10hf_ddec_spin_density
 _atom_site_hse06_10hf_ddec_sum_bond_order
 _atom_site_hse06_10hf_magmom
 _atom_site_hse06_ddec_charge
 _atom_site_hse06_ddec_spin_density
 _atom_site_hse06_ddec_sum_bond_order
 _atom_site_hse06_magmom
 _atom_site_pbe_cm5_charge
 _atom_site_pbe_ddec_charge
 _atom_site_pbe_ddec_spin_density
 _atom_site_pbe_ddec_sum_bond_order
 _atom_site_pbe_magmom
Cu  Cu0  1  0.55913604  0.37467521  0.71897130  1  0.745927  0.546555  2.025213  0.363  0.764415  0.693424  2.443689  0.519  0.86439  0.793587  2.368324  0.632  0.755316  0.713943  0.624537  2.489428  0.449
Cu  Cu1  1  0.94086242  0.62532361  0.21897022  1  0.746028  0.546585  2.025234  0.363  0.764532  0.693448  2.443696  0.519  0.864535  0.793606  2.368246  0.632  0.755352  0.714039  0.624562  2.48944  0.449
Cu  Cu2  1  0.44086822  0.62532784  0.28102968  1  0.746062  0.546567  2.025093  0.363  0.764562  0.693447  2.443549  0.519  0.864528  0.7936  2.368172  0.632  0.755341  0.714063  0.62455  2.489299  0.449
Cu  Cu3  1  0.05913561  0.37467373  0.78102716  1  0.746021  0.546569  2.025326  0.363  0.764591  0.693484  2.443795  0.519  0.864511  0.793582  2.368363  0.632  0.7554  0.71407  0.624563  2.489534  0.449
H  H4  1  0.52676259  0.19718071  0.42560619  1  0.067941  0.001774  0.981079  0.001  0.07138  0.001397  1.055601  0.001  0.073238  0.001016  1.05253  0.0  0.110431  0.070072  0.001742  1.057858  0.001
H  H5  1  0.97323114  0.80281441  0.92560144  1  0.067898  0.001777  0.981036  0.001  0.071321  0.001397  1.055584  0.001  0.073177  0.001016  1.052516  0.0  0.110395  0.070011  0.001742  1.057831  0.001
H  H6  1  0.47322776  0.80282074  0.57440047  1  0.06792  0.001775  0.981045  0.001  0.071332  0.001397  1.055623  0.001  0.073188  0.001016  1.052558  0.0  0.110383  0.07002  0.001742  1.057871  0.001
H  H7  1  0.02676856  0.19719138  0.07439387  1  0.067881  0.001777  0.98114  0.001  0.071314  0.001397  1.055626  0.001  0.073162  0.001016  1.052587  0.0  0.110417  0.070006  0.001741  1.057866  0.001
H  H8  1  0.17279425  0.09591442  0.49873332  1  0.120546  0.000118  0.956607  0.0  0.129599  0.000273  1.017707  0.0  0.13345  0.000199  1.016836  0.0  0.108692  0.12705  0.000325  1.018227  0.0
H  H9  1  0.32721433  0.90408739  0.99872739  1  0.120493  0.00012  0.956447  0.0  0.129555  0.000272  1.017575  0.0  0.133408  0.000199  1.016702  0.0  0.108675  0.127004  0.000324  1.018096  0.0
H  H10  1  0.82721425  0.90409289  0.50127438  1  0.120462  0.000115  0.95646  0.0  0.129522  0.000273  1.017572  0.0  0.133377  0.000199  1.016695  0.0  0.108646  0.126972  0.000325  1.01809  0.0
H  H11  1  0.67278965  0.09591424  0.00126946  1  0.120483  0.000121  0.956548  0.0  0.129564  0.000272  1.017628  0.0  0.133418  0.000199  1.016753  0.0  0.108654  0.127013  0.000324  1.01815  0.0
H  H12  1  0.20183069  0.19098103  0.62496196  1  0.079614  0.00046  0.951316  0.001  0.084136  0.000318  1.024965  0.001  0.085642  -3.9e-05  1.022299  0.001  0.11771  0.083024  0.000688  1.026895  0.001
H  H13  1  0.29816749  0.80901467  0.12495796  1  0.079531  0.000465  0.95123  0.001  0.084058  0.000318  1.024886  0.001  0.085566  -3.9e-05  1.022215  0.001  0.117645  0.082942  0.000688  1.026822  0.001
H  H14  1  0.79818352  0.80902075  0.37504161  1  0.0795  0.00046  0.951045  0.001  0.084051  0.000318  1.024686  0.001  0.085559  -3.9e-05  1.022018  0.001  0.117642  0.082939  0.000689  1.026619  0.001
H  H15  1  0.70182912  0.19098406  0.87503786  1  0.079504  0.000459  0.951207  0.001  0.084032  0.000318  1.024844  0.001  0.08554  -3.9e-05  1.022175  0.001  0.117635  0.082919  0.000688  1.026775  0.001
H  H16  1  0.89838769  0.57422010  0.64251134  1  0.324279  -0.000666  0.919329  0.0  0.299661  -0.000649  0.999886  0.0  0.306028  -0.000764  0.995487  0.0  0.299596  0.294944  -0.000521  1.003523  0.0
H  H17  1  0.60161258  0.42577880  0.14251193  1  0.324188  -0.000659  0.919252  0.0  0.299578  -0.000649  0.999825  0.0  0.305948  -0.000764  0.995426  0.0  0.2995  0.294855  -0.000521  1.003465  0.0
H  H18  1  0.10161490  0.42577450  0.35748551  1  0.32426  -0.000665  0.919327  0.0  0.29964  -0.000649  0.999894  0.0  0.30601  -0.000764  0.995493  0.0  0.299534  0.294923  -0.000521  1.003537  0.0
H  H19  1  0.39838748  0.57421155  0.85748647  1  0.324293  -0.000665  0.919401  0.0  0.299676  -0.000649  0.999942  0.0  0.306045  -0.000764  0.995541  0.0  0.299524  0.294957  -0.000521  1.003581  0.0
H  H20  1  0.03344008  0.56752347  0.56102988  1  0.329476  0.000148  0.930762  0.0  0.30166  0.000141  1.011306  0.0  0.311104  5.2e-05  1.003369  0.0  0.293649  0.295292  0.000257  1.016231  0.0
H  H21  1  0.46653970  0.43247316  0.06102118  1  0.329446  0.000151  0.930693  0.0  0.301583  0.000142  1.01132  0.0  0.311031  5.1e-05  1.003381  0.0  0.293522  0.29521  0.000257  1.016246  0.0
H  H22  1  0.96655483  0.43247523  0.43897575  1  0.329517  0.000145  0.930623  0.0  0.301651  0.000142  1.011232  0.0  0.311096  5.1e-05  1.003298  0.0  0.293617  0.295284  0.000257  1.016158  0.0
H  H23  1  0.53345636  0.56752275  0.93897309  1  0.329548  0.000151  0.930546  0.0  0.301661  0.000141  1.011209  0.0  0.311106  5.1e-05  1.003272  0.0  0.29359  0.29529  0.000257  1.016135  0.0
C  C24  1  0.71393151  0.40211929  0.57091593  1  0.625599  -0.001885  3.810307  -0.001  0.58654  0.000102  4.076843  0.001  0.614005  -0.000534  4.085691  0.0  0.343927  0.568578  0.000646  4.070248  0.001
C  C25  1  0.78609496  0.59788608  0.07091036  1  0.625399  -0.001869  3.81028  -0.001  0.586403  0.000103  4.076741  0.001  0.613869  -0.000534  4.085589  0.0  0.343893  0.568435  0.000647  4.070147  0.001
C  C26  1  0.28608582  0.59788112  0.42909177  1  0.625482  -0.001873  3.810428  -0.001  0.586337  0.000102  4.077083  0.001  0.6138  -0.000534  4.085932  0.0  0.343793  0.568374  0.000647  4.070493  0.001
C  C27  1  0.21391671  0.40211145  0.92908184  1  0.625861  -0.001883  3.810001  -0.001  0.586827  0.000102  4.076516  0.001  0.614288  -0.000535  4.085359  0.0  0.344003  0.56886  0.000646  4.069927  0.001
C  C28  1  0.52250048  0.23997621  0.47961347  1  0.201801  -0.002804  3.731852  -0.002  0.167597  -4.9e-05  3.991301  0.0  0.182997  -0.000612  4.004007  0.0  0.06238  0.15771  0.000434  3.982226  0.001
C  C29  1  0.97748579  0.76002653  0.97961252  1  0.201818  -0.002805  3.732104  -0.002  0.167634  -4.9e-05  3.991562  0.0  0.183034  -0.000613  4.004267  0.0  0.062446  0.15775  0.000433  3.982477  0.001
C  C30  1  0.47749727  0.76001973  0.52038752  1  0.201765  -0.002805  3.732138  -0.002  0.16755  -4.9e-05  3.991621  0.0  0.182946  -0.000613  4.00433  0.0  0.062433  0.157671  0.000435  3.98253  0.001
C  C31  1  0.02252326  0.23998359  0.02038485  1  0.201878  -0.002818  3.73184  -0.002  0.167739  -5e-05  3.991249  0.0  0.183132  -0.000614  4.003952  0.0  0.062464  0.157854  0.000432  3.982168  0.001
C  C32  1  0.32658830  0.18209041  0.52005536  1  -0.217427  0.005393  3.741891  0.005  -0.231677  0.002395  4.001327  0.003  -0.246317  0.00173  4.021492  0.002  -0.106035  -0.222284  0.003023  3.987182  0.003
C  C33  1  0.17339713  0.81789835  0.02005805  1  -0.217444  0.005385  3.742161  0.005  -0.231754  0.002394  4.001648  0.003  -0.246396  0.00173  4.021817  0.002  -0.106091  -0.222357  0.003021  3.987496  0.003
C  C34  1  0.67340323  0.81789982  0.47994408  1  -0.217446  0.005396  3.742312  0.005  -0.231689  0.002394  4.001732  0.003  -0.246329  0.00173  4.021903  0.002  -0.106055  -0.222292  0.003022  3.98758  0.003
C  C35  1  0.82660463  0.18209202  0.97994294  1  -0.217527  0.005393  3.742027  0.005  -0.231834  0.002394  4.001448  0.003  -0.246472  0.00173  4.021614  0.002  -0.106124  -0.222441  0.003022  3.987304  0.003
C  C36  1  0.34193055  0.23664282  0.58868845  1  0.207457  -0.005364  3.700795  -0.004  0.170259  -0.001627  3.968775  -0.001  0.186364  -0.002382  3.984417  -0.002  0.060193  0.160128  -0.000914  3.95803  -0.001
C  C37  1  0.15805820  0.76335786  0.08868456  1  0.207539  -0.005368  3.700952  -0.004  0.170365  -0.001626  3.968902  -0.001  0.186468  -0.00238  3.984541  -0.002  0.060265  0.160229  -0.000913  3.958164  -0.001
C  C38  1  0.65804958  0.76335849  0.41131718  1  0.207617  -0.005361  3.700834  -0.004  0.170413  -0.001627  3.968779  -0.001  0.186514  -0.002381  3.984419  -0.002  0.060283  0.160279  -0.000913  3.958047  -0.001
C  C39  1  0.84193528  0.23664222  0.91131436  1  0.207596  -0.005363  3.700753  -0.004  0.170434  -0.001626  3.968699  -0.001  0.186533  -0.002381  3.984337  -0.002  0.060284  0.160299  -0.000913  3.957956  -0.001
N  N40  1  0.53233823  0.34515721  0.61467647  1  -0.472114  0.047926  3.227966  0.057  -0.420441  0.032919  3.52223  0.043  -0.45811  0.023908  3.537064  0.035  -0.364997  -0.398053  0.038567  3.513178  0.047
N  N41  1  0.96766410  0.65485041  0.11468299  1  -0.472076  0.047897  3.227839  0.057  -0.420459  0.032907  3.52211  0.043  -0.458118  0.023903  3.536911  0.035  -0.365058  -0.398074  0.038555  3.513062  0.047
N  N42  1  0.46765470  0.65484006  0.38532348  1  -0.472126  0.047904  3.22793  0.057  -0.420449  0.032909  3.522231  0.043  -0.458105  0.023902  3.537048  0.035  -0.364976  -0.398062  0.038555  3.513187  0.047
N  N43  1  0.03233449  0.34514975  0.88531645  1  -0.472197  0.047915  3.227852  0.057  -0.420581  0.032911  3.522173  0.043  -0.458222  0.023906  3.536954  0.035  -0.365043  -0.398187  0.038561  3.513117  0.047
N  N44  1  0.71349641  0.34784591  0.50373048  1  -0.451005  0.009151  3.012412  0.01  -0.393351  0.004649  3.261017  0.005  -0.414936  0.002711  3.272003  0.003  -0.318207  -0.378452  0.006844  3.252259  0.007
N  N45  1  0.78649896  0.65216274  0.00372460  1  -0.450678  0.009132  3.012736  0.01  -0.393011  0.004644  3.261262  0.005  -0.414592  0.002709  3.272257  0.003  -0.318042  -0.378113  0.006837  3.252494  0.007
N  N46  1  0.28650923  0.65216417  0.49627206  1  -0.450665  0.009143  3.012866  0.01  -0.392983  0.004647  3.261464  0.005  -0.414574  0.00271  3.272477  0.003  -0.318029  -0.378085  0.006841  3.252698  0.007
N  N47  1  0.21350811  0.34784595  0.99626760  1  -0.450879  0.009143  3.012587  0.01  -0.393248  0.004645  3.261146  0.005  -0.41484  0.002709  3.272168  0.003  -0.31817  -0.37835  0.006838  3.252382  0.007
N  N48  1  0.90297386  0.51425464  0.59510468  1  -0.68714  -0.001911  3.119446  -0.001  -0.651551  -0.001581  3.367088  -0.001  -0.675433  -0.00193  3.363823  -0.001  -0.567117  -0.635133  -0.001135  3.368867  0.0
N  N49  1  0.59702505  0.48575677  0.09510275  1  -0.687143  -0.001936  3.118869  -0.001  -0.651546  -0.001582  3.366565  -0.001  -0.675434  -0.001931  3.363306  -0.001  -0.567029  -0.635123  -0.001135  3.368341  0.0
N  N50  1  0.09702501  0.48574693  0.40489631  1  -0.687341  -0.001913  3.119016  -0.001  -0.651681  -0.001581  3.366779  -0.001  -0.675568  -0.001931  3.363519  -0.001  -0.56714  -0.63526  -0.001135  3.368562  0.0
N  N51  1  0.40298543  0.51425197  0.90489204  1  -0.687483  -0.001918  3.118986  -0.001  -0.651848  -0.001582  3.366687  -0.001  -0.675731  -0.001931  3.36342  -0.001  -0.567085  -0.635425  -0.001136  3.368468  0.0
N  N52  1  0.77559405  0.19273497  0.73081256  1  -0.519161  0.117674  2.86253  0.134  -0.569267  0.069607  3.254618  0.088  -0.626167  0.045679  3.270089  0.068  -0.34488  -0.539972  0.081716  3.248967  0.095
N  N53  1  0.72442003  0.80727356  0.23081187  1  -0.519335  0.117694  2.862633  0.134  -0.569434  0.069621  3.254699  0.088  -0.626356  0.045688  3.270187  0.068  -0.344972  -0.54012  0.081734  3.249002  0.095
N  N54  1  0.22440759  0.80728067  0.26919152  1  -0.519199  0.11768  2.862721  0.134  -0.569287  0.069609  3.254781  0.088  -0.626206  0.045678  3.270269  0.068  -0.344821  -0.539971  0.081718  3.249082  0.095
N  N55  1  0.27558284  0.19272244  0.76919273  1  -0.519161  0.11767  2.862784  0.134  -0.569279  0.069609  3.254856  0.088  -0.626181  0.045685  3.270332  0.068  -0.344871  -0.539958  0.081721  3.249151  0.095
N  N56  1  0.79794871  0.07490746  0.68802693  1  0.387923  -0.057801  4.144207  -0.06  0.435341  -0.014997  4.459906  -0.018  0.457218  -0.021578  4.497707  -0.021  0.092661  0.422526  -0.007742  4.436185  -0.013
N  N57  1  0.70204794  0.92509553  0.18802832  1  0.388173  -0.057779  4.144301  -0.06  0.435614  -0.014991  4.459939  -0.018  0.457493  -0.021566  4.497741  -0.021  0.092873  0.4228  -0.007742  4.436222  -0.013
N  N58  1  0.20204532  0.92509544  0.31197405  1  0.388038  -0.05778  4.144594  -0.06  0.435464  -0.014992  4.46027  -0.018  0.457341  -0.021563  4.498075  -0.021  0.092676  0.422654  -0.007742  4.436556  -0.013
N  N59  1  0.29795945  0.07490615  0.81197267  1  0.388009  -0.057746  4.144697  -0.06  0.435432  -0.014989  4.460375  -0.018  0.457304  -0.02156  4.498182  -0.021  0.092691  0.42262  -0.007738  4.436652  -0.013
N  N60  1  0.82224462  0.96017483  0.64783802  1  -0.291424  0.160756  2.347559  0.167  -0.308923  0.086116  2.58181  0.095  -0.320257  0.071135  2.595269  0.085  -0.144505  -0.30315  0.096146  2.573423  0.101
N  N61  1  0.67775875  0.03981758  0.14783867  1  -0.291535  0.160735  2.347551  0.167  -0.309066  0.086113  2.581811  0.095  -0.320401  0.071127  2.595268  0.085  -0.144614  -0.303283  0.096147  2.57342  0.101
N  N62  1  0.17774605  0.03981960  0.35216141  1  -0.291492  0.160748  2.347633  0.167  -0.309032  0.086108  2.581909  0.095  -0.320372  0.071119  2.595368  0.085  -0.144554  -0.303248  0.09614  2.573522  0.101
N  N63  1  0.32225089  0.96018694  0.85216077  1  -0.291486  0.160729  2.347657  0.167  -0.309003  0.086105  2.581928  0.095  -0.320341  0.071119  2.595389  0.085  -0.144541  -0.303218  0.096138  2.573537  0.101
N  N64  1  0.34770635  0.55647725  0.73997702  1  -0.569662  0.092643  2.935718  0.107  -0.600521  0.062889  3.319625  0.08  -0.654875  0.042508  3.330335  0.063  -0.361216  -0.571691  0.074274  3.316188  0.087
N  N65  1  0.15227819  0.44351048  0.23997638  1  -0.569689  0.092663  2.935685  0.107  -0.600498  0.0629  3.319514  0.08  -0.654894  0.042515  3.33029  0.063  -0.361193  -0.571672  0.074288  3.316076  0.087
N  N66  1  0.65228487  0.44352000  0.26002293  1  -0.569821  0.092674  2.935534  0.107  -0.600633  0.062907  3.319417  0.08  -0.655018  0.042519  3.330159  0.063  -0.361268  -0.571801  0.074293  3.315981  0.087
N  N67  1  0.84772274  0.55647567  0.76002254  1  -0.569717  0.092666  2.935652  0.107  -0.600566  0.062902  3.319545  0.08  -0.654945  0.04252  3.330304  0.063  -0.361277  -0.571732  0.07429  3.316109  0.087
N  N68  1  0.32544481  0.69498808  0.70676584  1  0.393349  -0.044865  4.129576  -0.047  0.439879  -0.012477  4.424022  -0.015  0.461227  -0.019402  4.457156  -0.019  0.092599  0.42702  -0.005699  4.402179  -0.011
N  N69  1  0.17456088  0.30500675  0.20676654  1  0.393383  -0.044844  4.129871  -0.047  0.439893  -0.01247  4.424324  -0.015  0.461241  -0.01939  4.457461  -0.019  0.092561  0.427037  -0.005697  4.402467  -0.011
N  N70  1  0.67455580  0.30500509  0.29323463  1  0.393443  -0.044863  4.129508  -0.047  0.439948  -0.012473  4.423964  -0.015  0.461299  -0.019394  4.457096  -0.019  0.09264  0.42709  -0.005696  4.402124  -0.011
N  N71  1  0.82543743  0.69499200  0.79323290  1  0.393358  -0.044858  4.129675  -0.047  0.439878  -0.012474  4.424121  -0.015  0.46122  -0.019397  4.457257  -0.019  0.09259  0.427019  -0.005695  4.402273  -0.011
N  N72  1  0.29751393  0.82837429  0.67679112  1  -0.275991  0.132683  2.387076  0.139  -0.274761  0.077124  2.610415  0.086  -0.279551  0.064704  2.620875  0.078  -0.130185  -0.271578  0.086795  2.602959  0.092
N  N73  1  0.20248215  0.17162890  0.17679108  1  -0.276047  0.132652  2.387289  0.138  -0.274825  0.077111  2.610652  0.086  -0.279614  0.064686  2.621113  0.078  -0.130175  -0.271633  0.086784  2.603185  0.092
N  N74  1  0.70247899  0.17162298  0.32320986  1  -0.275942  0.132664  2.387192  0.139  -0.274725  0.077117  2.610578  0.086  -0.27951  0.064695  2.621033  0.078  -0.130141  -0.271544  0.086788  2.603127  0.092
N  N75  1  0.79751557  0.82837545  0.82320888  1  -0.275958  0.132666  2.38728  0.139  -0.274701  0.07712  2.610609  0.086  -0.279484  0.0647  2.621072  0.078  -0.130109  -0.271515  0.086791  2.60315  0.092
