# generated using pymatgen
data_CuMo6H20C16(N3O11)2
_symmetry_space_group_name_H-M   'P 1'
_cell_length_a   7.65766140
_cell_length_b   9.94821357
_cell_length_c   10.41133041
_cell_angle_alpha   105.46908998
_cell_angle_beta   92.80365390
_cell_angle_gamma   98.50026838
_symmetry_Int_Tables_number   1
_chemical_formula_structural   CuMo6H20C16(N3O11)2
_chemical_formula_sum   'Cu1 Mo6 H20 C16 N6 O22'
_cell_volume   752.75342834
_cell_formula_units_Z   1
loop_
 _symmetry_equiv_pos_site_id
 _symmetry_equiv_pos_as_xyz
  1  'x, y, z'
loop_
 _atom_site_type_symbol
 _atom_site_label
 _atom_site_symmetry_multiplicity
 _atom_site_fract_x
 _atom_site_fract_y
 _atom_site_fract_z
 _atom_site_occupancy
 _atom_site_hle17_ddec_charge
 _atom_site_hle17_ddec_spin_density
 _atom_site_hle17_ddec_sum_bond_order
 _atom_site_hle17_magmom
 _atom_site_hse06_10hf_ddec_charge
 _atom_site_hse06_10hf_ddec_spin_density
 _atom_site_hse06_10hf_ddec_sum_bond_order
 _atom_site_hse06_10hf_magmom
 _atom_site_hse06_ddec_charge
 _atom_site_hse06_ddec_spin_density
 _atom_site_hse06_ddec_sum_bond_order
 _atom_site_hse06_magmom
 _atom_site_pbe_cm5_charge
 _atom_site_pbe_ddec_charge
 _atom_site_pbe_ddec_spin_density
 _atom_site_pbe_ddec_sum_bond_order
 _atom_site_pbe_magmom
Cu  Cu0  1  0.50000094  0.00000023  0.00000100  1  0.989817  0.750441  1.802157  0.581  0.990084  0.828428  2.178034  0.695  1.057526  0.883752  2.129551  0.773  0.782784  0.944289  0.785879  2.216585  0.638
Mo  Mo1  1  0.19450272  0.80602451  0.35995184  1  2.1764  -0.000561  4.150467  0.0  2.174719  -5.5e-05  4.692201  0.0  2.27536  -6.2e-05  4.655618  0.0  1.480275  2.102208  1.1e-05  4.723199  0.0
Mo  Mo2  1  0.80549701  0.19397791  0.64004954  1  2.176413  -0.000565  4.150406  0.0  2.174725  -6.4e-05  4.692148  0.0  2.275371  -6.9e-05  4.655559  0.0  1.480267  2.102215  1.2e-05  4.723151  0.0
Mo  Mo3  1  0.50808554  0.90132169  0.61490506  1  2.278629  -0.008978  4.031756  -0.007  2.288234  -0.005316  4.542844  -0.004  2.391155  -0.004421  4.506492  -0.003  1.533558  2.213498  -0.00638  4.573121  -0.005
Mo  Mo4  1  0.49191679  0.09868071  0.38509448  1  2.278512  -0.008884  4.031961  -0.007  2.288095  -0.005323  4.54306  -0.004  2.391012  -0.004404  4.506712  -0.003  1.533487  2.213337  -0.006379  4.573349  -0.005
Mo  Mo5  1  0.98985375  0.07753593  0.35826002  1  2.253781  -0.000772  4.03208  -0.001  2.259362  -0.00014  4.552443  0.0  2.360021  -9e-05  4.517495  0.0  1.519804  2.185613  -0.000194  4.584128  0.0
Mo  Mo6  1  0.01014903  0.92246859  0.64174007  1  2.25369  -0.000824  4.032155  -0.001  2.25928  -0.000142  4.552518  0.0  2.359947  -9.9e-05  4.51757  0.0  1.519793  2.185534  -0.000194  4.584224  0.0
H  H7  1  0.42300197  0.16691056  0.81734494  1  0.320297  -1.8e-05  0.875471  0.0  0.297975  0.00012  0.940217  0.0  0.305293  9e-05  0.93393  0.0  0.336259  0.292844  0.000152  0.944641  0.0
H  H8  1  0.57699835  0.83308232  0.18265401  1  0.320309  -1.7e-05  0.875547  0.0  0.297964  0.000121  0.940312  0.0  0.30528  9e-05  0.934026  0.0  0.336294  0.292836  0.000152  0.944726  0.0
H  H9  1  0.15706811  0.60248240  0.57240990  1  0.323745  -9e-06  0.858497  0.0  0.301031  -1.6e-05  0.922172  0.0  0.309675  -1.5e-05  0.915228  0.0  0.325887  0.295248  -1.4e-05  0.926889  0.0
H  H10  1  0.84292573  0.39751685  0.42759145  1  0.323783  -9e-06  0.85848  0.0  0.301066  -1.6e-05  0.922158  0.0  0.309714  -1.5e-05  0.915208  0.0  0.325882  0.295277  -1.4e-05  0.926875  0.0
H  H11  1  0.15982390  0.93652506  0.94627699  1  0.439199  -0.000623  0.844197  -0.001  0.414976  0.000283  0.900995  0.0  0.425829  0.000128  0.885232  0.0  0.299057  0.407286  0.000412  0.912242  0.0
H  H12  1  0.84018033  0.06347417  0.05371891  1  0.439238  -0.000623  0.844109  -0.001  0.415016  0.000284  0.900929  0.0  0.425868  0.000129  0.885168  0.0  0.299096  0.407328  0.000412  0.912175  0.0
H  H13  1  0.20929801  0.86302652  0.06381537  1  0.448568  -0.000261  0.83712  -0.001  0.423658  0.000447  0.891144  0.001  0.435066  0.000267  0.874715  0.0  0.296435  0.416024  0.000611  0.902095  0.001
H  H14  1  0.79070231  0.13697271  0.93618137  1  0.448526  -0.000261  0.837183  -0.001  0.423628  0.000447  0.891193  0.001  0.435038  0.000268  0.874761  0.0  0.296404  0.415996  0.000611  0.902143  0.001
H  H15  1  0.34047394  0.25508046  0.21255853  1  0.116043  2.2e-05  0.980539  0.0  0.119823  9.7e-05  1.048736  0.0  0.121832  4.1e-05  1.04636  0.0  0.12349  0.11843  0.000154  1.050192  0.001
H  H16  1  0.65953017  0.74492406  0.78744449  1  0.116042  2.1e-05  0.980536  0.0  0.11983  9.6e-05  1.048739  0.0  0.121844  4.1e-05  1.046351  0.0  0.1235  0.118438  0.000154  1.050206  0.001
H  H17  1  0.23105712  0.46826752  0.12670055  1  0.140994  0.000633  0.954513  0.001  0.148736  0.000451  1.015052  0.001  0.151343  0.000316  1.015285  0.0  0.115663  0.146883  0.00058  1.015013  0.001
H  H18  1  0.76894106  0.53173384  0.87329859  1  0.141054  0.000632  0.954398  0.001  0.148749  0.000451  1.015008  0.001  0.151356  0.000316  1.015236  0.0  0.115677  0.146898  0.00058  1.014974  0.001
H  H19  1  0.32532929  0.42375940  0.50916053  1  0.122102  -5e-06  0.931187  0.0  0.131552  2e-06  0.98612  0.0  0.134699  -1e-06  0.982501  0.0  0.135111  0.129416  6e-06  0.988498  0.0
H  H20  1  0.67467611  0.57624512  0.49084060  1  0.122062  -2e-06  0.931199  0.0  0.131518  1e-06  0.986137  0.0  0.134665  -0.0  0.98252  0.0  0.135098  0.129384  6e-06  0.988516  0.0
H  H21  1  0.40869413  0.29580140  0.67110468  1  0.138615  3.4e-05  0.968511  0.0  0.143832  -4e-06  1.03171  0.0  0.148438  -3e-06  1.029068  0.0  0.114481  0.140622  1e-06  1.033575  0.0
H  H22  1  0.59131364  0.70420205  0.32889433  1  0.138571  3.3e-05  0.968622  0.0  0.143812  -4e-06  1.031796  0.0  0.148419  -3e-06  1.029154  0.0  0.114488  0.140604  1e-06  1.033661  0.0
H  H23  1  0.14436071  0.57464399  0.96620148  1  0.126391  5.7e-05  0.944591  0.0  0.138019  6.1e-05  1.001454  0.0  0.141911  4.5e-05  0.999934  0.0  0.114905  0.135265  7.6e-05  1.002755  0.0
H  H24  1  0.85562409  0.42534365  0.03379469  1  0.126391  6e-05  0.944662  0.0  0.138016  6.1e-05  1.001514  0.0  0.141906  4.5e-05  0.999996  0.0  0.114893  0.135262  7.6e-05  1.002816  0.0
H  H25  1  0.06175151  0.68348464  0.78572874  1  0.103243  0.000155  0.958339  0.0  0.112446  0.000187  1.01939  0.0  0.115315  0.000132  1.016633  0.0  0.131425  0.110227  0.000245  1.021698  0.0
H  H26  1  0.93823528  0.31650617  0.21426926  1  0.103247  0.000159  0.958336  0.0  0.11246  0.000186  1.019384  0.0  0.115326  0.000132  1.016627  0.0  0.131425  0.11024  0.000245  1.021682  0.0
C  C27  1  0.34031205  0.27035909  0.11339456  1  0.070435  -0.006731  3.668622  -0.002  0.033984  -0.001088  3.943494  0.001  0.042825  -0.002874  3.959201  -0.001  0.02945  0.028433  0.0002  3.932432  0.002
C  C28  1  0.65969182  0.72964438  0.88660626  1  0.070499  -0.006704  3.668437  -0.002  0.03405  -0.001091  3.943277  0.001  0.042893  -0.002869  3.958981  -0.001  0.029494  0.028499  0.000199  3.932235  0.002
C  C29  1  0.28445520  0.37865308  0.06792691  1  -0.221669  0.006625  3.678337  0.008  -0.240278  0.002697  3.933247  0.003  -0.249437  0.002306  3.954352  0.003  -0.097528  -0.234121  0.00308  3.918358  0.004
C  C30  1  0.71554470  0.62134404  0.93207216  1  -0.221737  0.006611  3.67811  0.007  -0.240342  0.002702  3.933069  0.003  -0.249499  0.002303  3.954177  0.003  -0.097564  -0.234187  0.003081  3.918183  0.004
C  C31  1  0.31662423  0.34903880  0.93259469  1  0.166157  -0.005769  3.743795  -0.003  0.145727  -0.001537  4.000058  0.0  0.151288  -0.002726  4.019377  -0.001  0.108804  0.142475  -0.000736  3.986135  0.001
C  C32  1  0.68337545  0.65095727  0.06740506  1  0.166166  -0.005728  3.74377  -0.003  0.1458  -0.001544  3.999959  0.0  0.151359  -0.002721  4.019278  -0.001  0.108797  0.14255  -0.000735  3.98603  0.001
C  C33  1  0.28747683  0.45043979  0.61074315  1  0.191075  0.000452  3.562358  0.001  0.148482  9.2e-05  3.815952  0.0  0.159436  0.000156  3.827211  0.0  0.079703  0.141234  6.9e-05  3.808852  0.0
C  C34  1  0.71252528  0.54956156  0.38925707  1  0.191143  0.000423  3.56225  0.001  0.148525  9.3e-05  3.815879  0.0  0.159478  0.000153  3.827138  0.0  0.079692  0.141275  6.9e-05  3.808781  0.0
C  C35  1  0.33262302  0.38128180  0.70296039  1  -0.127371  -0.002691  3.612843  -0.002  -0.150329  -0.000916  3.869734  -0.001  -0.15868  -0.001107  3.887209  -0.001  -0.068799  -0.145735  -0.00081  3.8589  0.0
C  C36  1  0.66738061  0.61872060  0.29703919  1  -0.12731  -0.002634  3.61285  -0.002  -0.150287  -0.000915  3.869771  -0.001  -0.158641  -0.001103  3.887248  -0.001  -0.068769  -0.145695  -0.000811  3.858938  0.0
C  C37  1  0.27907698  0.42170602  0.83308155  1  0.100978  0.001302  3.76982  0.002  0.108347  0.000497  4.014478  0.001  0.115395  0.000497  4.033628  0.001  0.031055  0.103665  0.000497  4.001378  0.001
C  C38  1  0.72092009  0.57829005  0.16691812  1  0.100903  0.001271  3.769978  0.002  0.108225  0.000495  4.014688  0.001  0.115276  0.000495  4.033836  0.001  0.031026  0.103541  0.000497  4.001587  0.001
C  C39  1  0.18366808  0.53487165  0.86575895  1  -0.144017  -0.001325  3.655131  -0.001  -0.166285  -0.000614  3.909069  0.0  -0.174601  -0.00094  3.927586  -0.001  -0.069694  -0.160954  -0.000239  3.897215  0.0
C  C40  1  0.81632394  0.46511914  0.13423921  1  -0.143962  -0.001286  3.655176  -0.001  -0.166198  -0.00061  3.909088  0.0  -0.174515  -0.000934  3.927604  -0.001  -0.069667  -0.160865  -0.000239  3.897235  0.0
C  C41  1  0.13887944  0.59838226  0.76892901  1  0.173816  0.000614  3.600351  0.001  0.129638  0.00018  3.855409  0.0  0.140497  0.000167  3.867754  0.0  0.073204  0.1223  0.000256  3.847891  0.0
C  C42  1  0.86111172  0.40161065  0.23106967  1  0.173761  0.000578  3.600241  0.001  0.129558  0.00018  3.855326  0.0  0.140425  0.000165  3.867664  0.0  0.073159  0.122221  0.000256  3.847788  0.0
N  N43  1  0.39007728  0.22926177  0.90536120  1  -0.164542  0.00201  3.406255  0.002  -0.100603  0.001369  3.636879  0.001  -0.11046  0.00083  3.655206  0.001  -0.262779  -0.093859  0.001852  3.624013  0.002
N  N44  1  0.60991919  0.77073748  0.09464311  1  -0.164631  0.001987  3.406328  0.002  -0.100701  0.00137  3.636991  0.001  -0.110559  0.000831  3.655316  0.001  -0.262827  -0.093954  0.001852  3.62412  0.002
N  N45  1  0.40351161  0.18003873  0.01293901  1  -0.186049  0.073894  3.187007  0.097  -0.167981  0.047476  3.492826  0.066  -0.191395  0.037013  3.513952  0.055  -0.253435  -0.152444  0.054626  3.478904  0.073
N  N46  1  0.59649031  0.81996156  0.98706478  1  -0.185986  0.073885  3.186901  0.097  -0.167912  0.047479  3.492702  0.066  -0.191326  0.037012  3.513831  0.055  -0.253418  -0.152376  0.054627  3.478787  0.073
N  N47  1  0.19019782  0.55452791  0.64484293  1  -0.197653  -0.002288  3.452988  -0.002  -0.123166  -0.000909  3.673831  -0.001  -0.138013  -0.001049  3.686874  -0.001  -0.337456  -0.114109  -0.000818  3.665563  -0.001
N  N48  1  0.80979710  0.44547029  0.35515818  1  -0.197702  -0.002243  3.452845  -0.002  -0.123188  -0.000911  3.673663  -0.001  -0.138037  -0.001045  3.686703  -0.001  -0.337427  -0.114129  -0.000818  3.665385  -0.001
O  O49  1  0.45110562  0.87179489  0.40982095  1  -1.002674  -3e-05  1.763057  0.0  -0.993238  -0.000108  2.050074  0.0  -1.033051  -9.3e-05  2.041019  0.0  -0.606661  -0.963301  -0.000106  2.0557  0.0
O  O50  1  0.54889980  0.12820962  0.59018211  1  -1.002675  -2.7e-05  1.763099  0.0  -0.993239  -0.000113  2.050136  0.0  -1.033053  -9.2e-05  2.041086  0.0  -0.606639  -0.963298  -0.000106  2.05575  0.0
O  O51  1  0.23820473  0.90755701  0.58538411  1  -1.007423  4.6e-05  1.932364  0.0  -1.001338  -1.9e-05  2.238118  0.0  -1.048319  -3.2e-05  2.236741  0.0  -0.618616  -0.966815  1e-05  2.239058  0.0
O  O52  1  0.76179978  0.09244962  0.41461466  1  -1.007458  4.9e-05  1.932319  0.0  -1.001357  -1.9e-05  2.23805  0.0  -1.048348  -2.8e-05  2.236698  0.0  -0.618621  -0.966838  1e-05  2.238983  0.0
O  O53  1  0.24495285  0.04405082  0.38063896  1  -1.000196  -0.000307  1.956134  0.0  -0.992157  -0.000254  2.260297  0.0  -1.038442  -0.000224  2.258865  0.0  -0.617609  -0.958169  -0.000215  2.261546  0.0
O  O54  1  0.75505055  0.95595053  0.61935938  1  -1.000164  -0.000302  1.956057  0.0  -0.992084  -0.000256  2.260134  0.0  -1.038415  -0.000218  2.258809  0.0  -0.61759  -0.958099  -0.000215  2.261392  0.0
O  O55  1  0.98025750  0.87503212  0.40200361  1  -0.954793  9.2e-05  1.704338  0.0  -0.951561  1e-05  1.992741  0.0  -0.992544  0.0  1.987754  0.0  -0.593987  -0.921062  1.8e-05  1.996069  0.0
O  O56  1  0.01974507  0.12497135  0.59799813  1  -0.954796  7.6e-05  1.704292  0.0  -0.95156  1.9e-05  1.992701  0.0  -0.992525  -6e-06  1.987678  0.0  -0.593977  -0.92106  1.8e-05  1.996031  0.0
O  O57  1  0.16444209  0.64334719  0.39365500  1  -0.724386  1.1e-05  1.453442  0.0  -0.718701  -2e-05  1.703744  0.0  -0.74652  -3.5e-05  1.696195  0.0  -0.528857  -0.698953  -3.2e-05  1.709466  0.0
O  O58  1  0.83556023  0.35665521  0.60634454  1  -0.724392  2e-05  1.453428  0.0  -0.718727  -2.7e-05  1.703759  0.0  -0.746552  -3.3e-05  1.696216  0.0  -0.528863  -0.698971  -3.2e-05  1.709469  0.0
O  O59  1  0.18869252  0.76977547  0.18640410  1  -0.760792  0.000878  1.472402  0.001  -0.748603  0.000406  1.722773  0.001  -0.77602  0.000205  1.711943  0.0  -0.536179  -0.729682  0.000592  1.730946  0.001
O  O60  1  0.81130630  0.23022271  0.81359616  1  -0.760798  0.000884  1.472412  0.001  -0.748597  0.000405  1.722773  0.001  -0.776012  0.00021  1.711938  0.0  -0.536163  -0.729679  0.000592  1.730951  0.001
O  O61  1  0.48073446  0.97615030  0.78318130  1  -0.794881  0.001514  1.654898  0.006  -0.80308  0.000552  1.959006  0.004  -0.831582  -0.000116  1.943589  0.003  -0.547376  -0.783189  0.001306  1.970406  0.005
O  O62  1  0.51926328  0.02384895  0.21681825  1  -0.794859  0.001497  1.654945  0.006  -0.803042  0.000553  1.95906  0.004  -0.831535  -0.000111  1.943622  0.003  -0.54736  -0.783148  0.001307  1.970453  0.005
O  O63  1  0.50074087  0.72484301  0.60019064  1  -0.680752  0.000986  1.485833  0.001  -0.672277  0.00037  1.732416  0.001  -0.696801  0.000201  1.724457  0.0  -0.500718  -0.655472  0.000644  1.738289  0.001
O  O64  1  0.49925731  0.27515835  0.39980850  1  -0.680635  0.000964  1.4859  0.001  -0.672143  0.000369  1.732483  0.001  -0.696671  0.000195  1.724537  0.0  -0.500663  -0.655337  0.000644  1.738351  0.001
O  O65  1  0.07236131  0.25339764  0.37725035  1  -0.705328  0.000192  1.469459  0.0  -0.703126  4.9e-05  1.723501  0.0  -0.729849  1.9e-05  1.71554  0.0  -0.515686  -0.683399  0.000174  1.729587  0.0
O  O66  1  0.92764279  0.74660687  0.62275170  1  -0.705261  0.000204  1.469482  0.0  -0.703089  5.1e-05  1.723555  0.0  -0.72981  2.1e-05  1.715597  0.0  -0.515665  -0.683358  0.000174  1.729648  0.0
O  O67  1  0.94436270  0.00735556  0.18696994  1  -0.716996  0.000627  1.450565  0.001  -0.705181  0.000262  1.6892  0.0  -0.729194  0.000111  1.677302  0.0  -0.518633  -0.688647  0.000488  1.699449  0.001
O  O68  1  0.05564379  0.99264789  0.81303192  1  -0.716968  0.000642  1.450471  0.001  -0.70517  0.000262  1.689123  0.0  -0.72918  0.000116  1.677217  0.0  -0.518632  -0.688629  0.000488  1.699377  0.001
O  O69  1  0.24728910  0.88849946  0.98194164  1  -0.795875  0.064947  1.930938  0.092  -0.777689  0.041185  2.133326  0.063  -0.809237  0.029371  2.102153  0.048  -0.565971  -0.753918  0.050544  2.154579  0.072
O  O70  1  0.75271340  0.11149766  0.01805558  1  -0.795862  0.064944  1.930868  0.092  -0.777713  0.041183  2.133292  0.063  -0.809259  0.029369  2.102111  0.048  -0.565992  -0.753944  0.050541  2.15454  0.072
