# generated using pymatgen
data_CdH10C6N2O5
_symmetry_space_group_name_H-M   'P 1'
_cell_length_a   7.31996140
_cell_length_b   7.73389542
_cell_length_c   9.66414180
_cell_angle_alpha   113.57292096
_cell_angle_beta   112.26391688
_cell_angle_gamma   90.00878598
_symmetry_Int_Tables_number   1
_chemical_formula_structural   CdH10C6N2O5
_chemical_formula_sum   'Cd2 H20 C12 N4 O10'
_cell_volume   456.58681775
_cell_formula_units_Z   2
loop_
 _symmetry_equiv_pos_site_id
 _symmetry_equiv_pos_as_xyz
  1  'x, y, z'
loop_
 _atom_site_type_symbol
 _atom_site_label
 _atom_site_symmetry_multiplicity
 _atom_site_fract_x
 _atom_site_fract_y
 _atom_site_fract_z
 _atom_site_occupancy
 _atom_site_hle17_bader_spin_density
 _atom_site_hle17_ddec_charge
 _atom_site_hle17_ddec_spin_density
 _atom_site_hle17_ddec_sum_bond_order
 _atom_site_hle17_magmom
 _atom_site_hse06_10hf_bader_spin_density
 _atom_site_hse06_10hf_ddec_charge
 _atom_site_hse06_10hf_ddec_spin_density
 _atom_site_hse06_10hf_ddec_sum_bond_order
 _atom_site_hse06_10hf_magmom
 _atom_site_hse06_bader_spin_density
 _atom_site_hse06_ddec_charge
 _atom_site_hse06_ddec_spin_density
 _atom_site_hse06_ddec_sum_bond_order
 _atom_site_hse06_magmom
 _atom_site_pbe_bader_spin_density
 _atom_site_pbe_cm5_charge
 _atom_site_pbe_ddec_charge
 _atom_site_pbe_ddec_spin_density
 _atom_site_pbe_ddec_sum_bond_order
 _atom_site_pbe_magmom
Cd  Cd0  1  0.81052123  0.19386172  0.38757443  1  0  1.17208  0  1.654913  0  0  0.991094  0  2.095512  0  0  1.047481  0  2.041148  0  0  0.765964  0.951059  0  2.132687  0
Cd  Cd1  1  0.42284504  0.80609869  0.61238733  1  0  1.172431  0  1.653743  0  0  0.991711  0  2.094186  0  0  1.0481  0  2.039848  0  0  0.765922  0.951141  0  2.13175  0
H  H2  1  0.61475819  0.88416628  0.00016230  1  0  0.090858  0  0.931116  0  0  0.100933  0  0.999985  0  0  0.102459  0  0.998339  0  0  0.120771  0.099573  0  1.001526  0
H  H3  1  0.61473710  0.11601718  0.99994862  1  0  0.091109  0  0.931942  0  0  0.101246  0  1.00037  0  0  0.102773  0  0.998758  0  0  0.120945  0.099978  0  1.001753  0
H  H4  1  0.15085588  0.97412293  0.25980393  1  0  0.07222  0  0.91964  0  0  0.085294  0  0.984909  0  0  0.085575  0  0.984927  0  0  0.116633  0.08492  0  0.985076  0
H  H5  1  0.89095828  0.02592721  0.74024826  1  0  0.072754  0  0.919232  0  0  0.085428  0  0.984406  0  0  0.08571  0  0.984414  0  0  0.116616  0.085225  0  0.984381  0
H  H6  1  0.89103261  0.71395023  0.74066179  1  0  0.072148  0  0.918965  0  0  0.085116  0  0.984525  0  0  0.08538  0  0.984535  0  0  0.116212  0.084837  0  0.984586  0
H  H7  1  0.15076772  0.28601669  0.25938869  1  0  0.071801  0  0.919468  0  0  0.085224  0  0.984601  0  0  0.085433  0  0.984646  0  0  0.116511  0.08489  0  0.98483  0
H  H8  1  0.92266423  0.80321128  0.14929828  1  0  0.081631  0  0.90882  0  0  0.09637  0  0.969085  0  0  0.097266  0  0.967907  0  0  0.121199  0.095419  0  0.970362  0
H  H9  1  0.77344963  0.19688367  0.85078298  1  0  0.081322  0  0.909346  0  0  0.095719  0  0.969785  0  0  0.096647  0  0.968534  0  0  0.121119  0.094951  0  0.970845  0
H  H10  1  0.77355251  0.65396719  0.85142831  1  0  0.081334  0  0.908775  0  0  0.09619  0  0.968864  0  0  0.09713  0  0.967574  0  0  0.121205  0.095358  0  0.970012  0
H  H11  1  0.92253779  0.34615782  0.14868704  1  0  0.081274  0  0.907743  0  0  0.096312  0  0.968022  0  0  0.097242  0  0.966692  0  0  0.121189  0.095451  0  0.969271  0
H  H12  1  0.19751707  0.94452876  0.88943241  1  0  0.06874  0  0.924974  0  0  0.080504  0  0.993264  0  0  0.080751  0  0.993137  0  0  0.114188  0.080273  0  0.993435  0
H  H13  1  0.30816741  0.05536003  0.11053268  1  0  0.068336  0  0.924905  0  0  0.080272  0  0.993173  0  0  0.080532  0  0.993004  0  0  0.114144  0.08  0  0.993422  0
H  H14  1  0.06325383  0.39294303  0.78639361  1  0  0.158347  0  0.91434  0  0  0.171289  0  0.971589  0  0  0.174682  0  0.969972  0  0  0.117133  0.168908  0  0.972767  0
H  H15  1  0.27678633  0.60693152  0.21350623  1  0  0.158242  0  0.91448  0  0  0.171145  0  0.971939  0  0  0.174554  0  0.970271  0  0  0.117176  0.168738  0  0.973169  0
H  H16  1  0.33215900  0.44309119  0.88645286  1  0  0.140966  0  0.951084  0  0  0.151661  0  1.008372  0  0  0.155758  0  1.005159  0  0  0.107299  0.148684  0  1.010872  0
H  H17  1  0.44564654  0.55689459  0.11354883  1  0  0.140378  0  0.951308  0  0  0.15153  0  1.008419  0  0  0.155531  0  1.005265  0  0  0.107279  0.148646  0  1.010825  0
H  H18  1  0.60126279  0.17088711  0.55200186  1  0  0.411527  0  0.898349  0  0  0.37832  0  0.966194  0  0  0.390074  0  0.949149  0  0  0.280946  0.370045  0  0.978157  0
H  H19  1  0.04907866  0.82907369  0.44789412  1  0  0.412246  0  0.897617  0  0  0.379102  0  0.965363  0  0  0.390862  0  0.94831  0  0  0.281175  0.370833  0  0.977296  0
H  H20  1  0.04903112  0.61873038  0.44800585  1  0  0.411929  0  0.89785  0  0  0.379156  0  0.965008  0  0  0.390844  0  0.94807  0  0  0.281218  0.370859  0  0.977014  0
H  H21  1  0.60114870  0.38119165  0.55189211  1  0  0.411516  0  0.89839  0  0  0.378422  0  0.96597  0  0  0.390138  0  0.94899  0  0  0.281225  0.370161  0  0.977923  0
C  C22  1  0.70097517  0.00007092  0.00005289  1  0  0.059617  0  3.585169  0  0  -0.012281  0  3.842491  0  0  -0.005262  0  3.854079  0  0  0.009165  -0.016931  0  3.834633  0
C  C23  1  0.00945578  0.91764953  0.14774194  1  0  0.083008  0  3.620468  0  0  0.012428  0  3.885999  0  0  0.020634  0  3.895856  0  0  0.017887  0.007042  0  3.879117  0
C  C24  1  0.86171689  0.08241140  0.85232657  1  0  0.080673  0  3.621587  0  0  0.011437  0  3.885493  0  0  0.019659  0  3.895318  0  0  0.017353  0.005813  0  3.878799  0
C  C25  1  0.86180532  0.76982893  0.85275507  1  0  0.082243  0  3.619836  0  0  0.011705  0  3.885033  0  0  0.019992  0  3.894783  0  0  0.018438  0.006149  0  3.878224  0
C  C26  1  0.00935260  0.23023053  0.14733571  1  0  0.083081  0  3.617374  0  0  0.011562  0  3.884245  0  0  0.019958  0  3.893814  0  0  0.017471  0.005914  0  3.877608  0
C  C27  1  0.16516253  0.99997504  0.99999811  1  0  0.087722  0  3.633141  0  0  0.019696  0  3.900976  0  0  0.027798  0  3.910132  0  0  0.018125  0.014169  0  3.894693  0
C  C28  1  0.20256375  0.38352277  0.76732652  1  0  -0.436376  0  3.633018  0  0  -0.476097  0  3.8771  0  0  -0.48722  0  3.877664  0  0  -0.168882  -0.468484  0  3.876747  0
C  C29  1  0.43519014  0.61643622  0.23266286  1  0  -0.43622  0  3.632446  0  0  -0.476321  0  3.877969  0  0  -0.487252  0  3.87835  0  0  -0.169533  -0.468641  0  3.877357  0
C  C30  1  0.20524637  0.50342604  0.67542010  1  0  0.745028  0  3.817135  0  0  0.694014  0  4.116831  0  0  0.729566  0  4.108482  0  0  0.217943  0.66972  0  4.121828  0
C  C31  1  0.52977999  0.49650401  0.32455872  1  0  0.745708  0  3.813501  0  0  0.694491  0  4.11368  0  0  0.729984  0  4.105333  0  0  0.218356  0.670234  0  4.118634  0
C  C32  1  0.53009491  0.82815743  0.32466192  1  0  0.744668  0  3.81724  0  0  0.69337  0  4.11759  0  0  0.728837  0  4.109259  0  0  0.217619  0.669121  0  4.122594  0
C  C33  1  0.20539614  0.17182870  0.67527965  1  0  0.74452  0  3.819181  0  0  0.694531  0  4.117232  0  0  0.730088  0  4.108892  0  0  0.217918  0.67014  0  4.122279  0
N  N34  1  0.89149333  0.07625480  0.15213949  1  0  -0.30817  0  3.179888  0  0  -0.212709  0  3.424192  0  0  -0.233349  0  3.444178  0  0  -0.346257  -0.198344  0  3.409828  0
N  N35  1  0.73925883  0.92384315  0.84793236  1  0  -0.30656  0  3.178179  0  0  -0.21144  0  3.421339  0  0  -0.23202  0  3.441299  0  0  -0.346109  -0.197  0  3.407292  0
N  N36  1  0.05183839  0.84233862  0.00021796  1  0  -0.275968  0  3.130498  0  0  -0.212915  0  3.397373  0  0  -0.228064  0  3.4139  0  0  -0.347514  -0.202413  0  3.385671  0
N  N37  1  0.05173648  0.15766278  0.99981846  1  0  -0.275628  0  3.129932  0  0  -0.212697  0  3.396442  0  0  -0.227865  0  3.412971  0  0  -0.346625  -0.202006  0  3.384887  0
O  O38  1  0.05516092  0.46886163  0.53842471  1  0  -0.681675  0  2.046339  0  0  -0.605739  0  2.293123  0  0  -0.635954  0  2.280742  0  0  -0.326242  -0.584638  0  2.301124  0
O  O39  1  0.51666548  0.53105875  0.46152210  1  0  -0.682455  0  2.044862  0  0  -0.605895  0  2.291112  0  0  -0.636198  0  2.278913  0  0  -0.326046  -0.584777  0  2.298959  0
O  O40  1  0.51709242  0.93054043  0.46166008  1  0  -0.68225  0  2.045656  0  0  -0.605783  0  2.292072  0  0  -0.636044  0  2.279926  0  0  -0.326052  -0.584477  0  2.299876  0
O  O41  1  0.05538449  0.06946901  0.53826902  1  0  -0.682545  0  2.048778  0  0  -0.60637  0  2.294586  0  0  -0.636604  0  2.282193  0  0  -0.326165  -0.585009  0  2.30219  0
O  O42  1  0.35538852  0.63537129  0.74264290  1  0  -0.633141  0  1.977026  0  0  -0.569342  0  2.22755  0  0  -0.597176  0  2.215159  0  0  -0.320343  -0.549729  0  2.235396  0
O  O43  1  0.61277659  0.36465210  0.25738718  1  0  -0.633791  0  1.976097  0  0  -0.569471  0  2.226252  0  0  -0.597315  0  2.213877  0  0  -0.320481  -0.550035  0  2.234146  0
O  O44  1  0.61313497  0.89280035  0.25747330  1  0  -0.632614  0  1.977514  0  0  -0.568533  0  2.228096  0  0  -0.596357  0  2.215766  0  0  -0.319671  -0.549127  0  2.236208  0
O  O45  1  0.35568617  0.10716158  0.74247249  1  0  -0.632968  0  1.976824  0  0  -0.569367  0  2.226653  0  0  -0.597249  0  2.214289  0  0  -0.320096  -0.549933  0  2.234622  0
O  O46  1  0.68628210  0.29732980  0.59445004  1  0  -0.838969  0  1.86519  0  0  -0.779376  0  2.059001  0  0  -0.802964  0  2.024907  0  0  -0.593119  -0.762616  0  2.082495  0
O  O47  1  0.09155513  0.70261027  0.40544341  1  0  -0.840125  0  1.864203  0  0  -0.780938  0  2.057244  0  0  -0.804543  0  2.023094  0  0  -0.593213  -0.764093  0  2.081047  0
