# generated using pymatgen
data_SnH15C11NO4
_symmetry_space_group_name_H-M   'P 1'
_cell_length_a   7.94900497
_cell_length_b   7.94889742
_cell_length_c   21.92057819
_cell_angle_alpha   83.28614423
_cell_angle_beta   83.28511481
_cell_angle_gamma   78.47831701
_symmetry_Int_Tables_number   1
_chemical_formula_structural   SnH15C11NO4
_chemical_formula_sum   'Sn4 H60 C44 N4 O16'
_cell_volume   1341.60646122
_cell_formula_units_Z   4
loop_
 _symmetry_equiv_pos_site_id
 _symmetry_equiv_pos_as_xyz
  1  'x, y, z'
loop_
 _atom_site_type_symbol
 _atom_site_label
 _atom_site_symmetry_multiplicity
 _atom_site_fract_x
 _atom_site_fract_y
 _atom_site_fract_z
 _atom_site_occupancy
 _atom_site_hle17_bader_spin_density
 _atom_site_hle17_ddec_charge
 _atom_site_hle17_ddec_spin_density
 _atom_site_hle17_ddec_sum_bond_order
 _atom_site_hle17_magmom
 _atom_site_hse06_10hf_bader_spin_density
 _atom_site_hse06_10hf_ddec_charge
 _atom_site_hse06_10hf_ddec_spin_density
 _atom_site_hse06_10hf_ddec_sum_bond_order
 _atom_site_hse06_10hf_magmom
 _atom_site_hse06_bader_spin_density
 _atom_site_hse06_ddec_charge
 _atom_site_hse06_ddec_spin_density
 _atom_site_hse06_ddec_sum_bond_order
 _atom_site_hse06_magmom
 _atom_site_pbe_bader_spin_density
 _atom_site_pbe_cm5_charge
 _atom_site_pbe_ddec_charge
 _atom_site_pbe_ddec_spin_density
 _atom_site_pbe_ddec_sum_bond_order
 _atom_site_pbe_magmom
Sn  Sn0  1  0.14385723  0.24092507  0.76747692  1  0  1.3689  0  2.88512  0  0  1.237478  0  3.372934  0  0  1.275733  0  3.358262  0  0  0.51817  1.211004  0  3.382822  0
Sn  Sn1  1  0.75907590  0.85614521  0.73252107  1  0  1.368866  0  2.885225  0  0  1.237464  0  3.373008  0  0  1.275721  0  3.358338  0  0  0.518159  1.211031  0  3.382781  0
Sn  Sn2  1  0.85614534  0.75906862  0.23252324  1  0  1.368739  0  2.885184  0  0  1.237368  0  3.372945  0  0  1.275622  0  3.358278  0  0  0.518116  1.210928  0  3.382756  0
Sn  Sn3  1  0.24092362  0.14385752  0.26748019  1  0  1.368854  0  2.88524  0  0  1.237484  0  3.373006  0  0  1.275739  0  3.35834  0  0  0.518149  1.21107  0  3.382785  0
H  H4  1  0.89058740  0.26842371  0.69109059  1  0  0.168177  0  0.995945  0  0  0.183689  0  1.055087  0  0  0.187304  0  1.054787  0  0  0.086513  0.181107  0  1.055358  0
H  H5  1  0.73156393  0.10942156  0.80890839  1  0  0.168203  0  0.995951  0  0  0.183695  0  1.055124  0  0  0.18731  0  1.054825  0  0  0.086493  0.181113  0  1.055404  0
H  H6  1  0.10940947  0.73156741  0.30891451  1  0  0.168181  0  0.995931  0  0  0.183715  0  1.055042  0  0  0.187329  0  1.054743  0  0  0.086512  0.181127  0  1.055318  0
H  H7  1  0.26844195  0.89057480  0.19109332  1  0  0.168162  0  0.99589  0  0  0.183642  0  1.055086  0  0  0.187255  0  1.054789  0  0  0.086459  0.181061  0  1.05536  0
H  H8  1  0.09442925  0.20364615  0.64893949  1  0  0.158324  0  0.984394  0  0  0.17976  0  1.033962  0  0  0.182445  0  1.034289  0  0  0.087427  0.177827  0  1.033808  0
H  H9  1  0.79633950  0.90558024  0.85105938  1  0  0.158336  0  0.984415  0  0  0.179754  0  1.033993  0  0  0.182436  0  1.034326  0  0  0.087452  0.177819  0  1.033856  0
H  H10  1  0.90556400  0.79634355  0.35106173  1  0  0.158265  0  0.984431  0  0  0.179718  0  1.033984  0  0  0.1824  0  1.034316  0  0  0.087392  0.177786  0  1.033836  0
H  H11  1  0.20366913  0.09441482  0.14894045  1  0  0.158382  0  0.984401  0  0  0.179782  0  1.034001  0  0  0.182465  0  1.034334  0  0  0.0875  0.177852  0  1.033846  0
H  H12  1  0.02233786  0.42457160  0.66458800  1  0  0.144126  0  1.010779  0  0  0.161558  0  1.07254  0  0  0.164026  0  1.073218  0  0  0.081686  0.159782  0  1.072144  0
H  H13  1  0.57541394  0.97767095  0.83540965  1  0  0.144076  0  1.010807  0  0  0.161499  0  1.072584  0  0  0.16397  0  1.07326  0  0  0.081656  0.159719  0  1.0722  0
H  H14  1  0.97765264  0.57541938  0.33541466  1  0  0.144174  0  1.01069  0  0  0.161593  0  1.072467  0  0  0.164061  0  1.073147  0  0  0.081722  0.159816  0  1.072074  0
H  H15  1  0.42459119  0.02232931  0.16459329  1  0  0.144075  0  1.010796  0  0  0.161508  0  1.072549  0  0  0.163982  0  1.073221  0  0  0.081656  0.159729  0  1.072153  0
H  H16  1  0.10040879  0.90769576  0.80324748  1  0  0.149295  0  1.003435  0  0  0.1698  0  1.058278  0  0  0.171805  0  1.060042  0  0  0.085785  0.168343  0  1.057099  0
H  H17  1  0.09230771  0.89958366  0.69675198  1  0  0.149369  0  1.00348  0  0  0.169886  0  1.058289  0  0  0.171892  0  1.060051  0  0  0.085812  0.168427  0  1.057116  0
H  H18  1  0.89958899  0.09229656  0.19675251  1  0  0.149349  0  1.003508  0  0  0.169839  0  1.058351  0  0  0.171845  0  1.060114  0  0  0.085783  0.16838  0  1.057177  0
H  H19  1  0.90769487  0.10041004  0.30324864  1  0  0.149339  0  1.003463  0  0  0.16985  0  1.058298  0  0  0.171856  0  1.060061  0  0  0.085782  0.168392  0  1.05712  0
H  H20  1  0.10968073  0.01924998  0.86855280  1  0  0.157366  0  0.994535  0  0  0.174413  0  1.052763  0  0  0.177007  0  1.053205  0  0  0.085299  0.172541  0  1.052523  0
H  H21  1  0.98076061  0.89031668  0.63144661  1  0  0.157338  0  0.994595  0  0  0.174407  0  1.052794  0  0  0.176999  0  1.053237  0  0  0.085315  0.172537  0  1.052546  0
H  H22  1  0.89031678  0.98074364  0.13144714  1  0  0.157355  0  0.994505  0  0  0.174414  0  1.052714  0  0  0.177007  0  1.053158  0  0  0.085303  0.172536  0  1.052478  0
H  H23  1  0.01924119  0.10968088  0.36855342  1  0  0.157348  0  0.994617  0  0  0.174436  0  1.052775  0  0  0.177029  0  1.053218  0  0  0.085301  0.172562  0  1.052531  0
H  H24  1  0.30418532  0.93690489  0.82219455  1  0  0.146624  0  1.006951  0  0  0.165579  0  1.064883  0  0  0.168051  0  1.065546  0  0  0.083333  0.163785  0  1.064489  0
H  H25  1  0.06309505  0.69580409  0.67780551  1  0  0.146672  0  1.006753  0  0  0.165613  0  1.064722  0  0  0.168082  0  1.06539  0  0  0.083376  0.163817  0  1.064339  0
H  H26  1  0.69580819  0.06309001  0.17780825  1  0  0.14654  0  1.006765  0  0  0.165472  0  1.064762  0  0  0.167941  0  1.065431  0  0  0.083304  0.16368  0  1.064363  0
H  H27  1  0.93689795  0.30419340  0.32219720  1  0  0.146682  0  1.006745  0  0  0.165618  0  1.064713  0  0  0.168096  0  1.06537  0  0  0.083359  0.163825  0  1.064323  0
H  H28  1  0.28007049  0.53117521  0.75843991  1  0  0.147686  0  1.006464  0  0  0.167027  0  1.063389  0  0  0.169323  0  1.064581  0  0  0.082  0.165368  0  1.062623  0
H  H29  1  0.46883072  0.71993174  0.74156343  1  0  0.147773  0  1.006303  0  0  0.167098  0  1.063247  0  0  0.169395  0  1.064436  0  0  0.082024  0.165433  0  1.062497  0
H  H30  1  0.71993923  0.46881474  0.24156238  1  0  0.147708  0  1.006538  0  0  0.16704  0  1.063469  0  0  0.169335  0  1.064661  0  0  0.081986  0.16538  0  1.062704  0
H  H31  1  0.53117797  0.28005038  0.25843653  1  0  0.147728  0  1.006544  0  0  0.167062  0  1.063466  0  0  0.169359  0  1.064655  0  0  0.082021  0.1654  0  1.062704  0
H  H32  1  0.40402866  0.36221024  0.80528994  1  0  0.15089  0  0.99038  0  0  0.170755  0  1.044098  0  0  0.172966  0  1.045471  0  0  0.082935  0.169155  0  1.043207  0
H  H33  1  0.63779214  0.59596710  0.69471100  1  0  0.150947  0  0.990436  0  0  0.17083  0  1.044107  0  0  0.173041  0  1.045479  0  0  0.082957  0.169219  0  1.043227  0
H  H34  1  0.59598384  0.63777195  0.19471075  1  0  0.150843  0  0.99044  0  0  0.170742  0  1.044122  0  0  0.172953  0  1.045495  0  0  0.082929  0.169134  0  1.043236  0
H  H35  1  0.36223324  0.40402046  0.30528977  1  0  0.150809  0  0.990458  0  0  0.170734  0  1.044109  0  0  0.172943  0  1.045484  0  0  0.08292  0.169126  0  1.043221  0
H  H36  1  0.20240320  0.48242276  0.83700539  1  0  0.159828  0  1.00755  0  0  0.173047  0  1.072  0  0  0.176614  0  1.070934  0  0  0.082905  0.1705  0  1.072806  0
H  H37  1  0.51757951  0.79759040  0.66299678  1  0  0.15986  0  1.007613  0  0  0.173039  0  1.072096  0  0  0.176607  0  1.071029  0  0  0.082871  0.17049  0  1.072907  0
H  H38  1  0.79761109  0.51755687  0.16299533  1  0  0.159867  0  1.007382  0  0  0.173073  0  1.071866  0  0  0.17664  0  1.0708  0  0  0.082922  0.17052  0  1.072681  0
H  H39  1  0.48243827  0.20239053  0.33700191  1  0  0.159912  0  1.007459  0  0  0.173074  0  1.071979  0  0  0.176641  0  1.070917  0  0  0.082922  0.170525  0  1.072788  0
H  H40  1  0.69235951  0.65890064  0.88603855  1  0  0.119964  0  0.951173  0  0  0.132681  0  1.017453  0  0  0.1347  0  1.016669  0  0  0.108979  0.131291  0  1.017982  0
H  H41  1  0.34110193  0.30763900  0.61395819  1  0  0.119951  0  0.951064  0  0  0.132686  0  1.01733  0  0  0.134706  0  1.016546  0  0  0.108967  0.131294  0  1.017858  0
H  H42  1  0.30764257  0.34109566  0.11396289  1  0  0.119826  0  0.951081  0  0  0.132603  0  1.017346  0  0  0.134623  0  1.016567  0  0  0.108942  0.13121  0  1.017873  0
H  H43  1  0.65888104  0.69236338  0.38603746  1  0  0.119892  0  0.951225  0  0  0.132643  0  1.017461  0  0  0.134664  0  1.016686  0  0  0.108952  0.13125  0  1.017986  0
H  H44  1  0.55647229  0.56197481  0.84896081  1  0  0.121956  0  0.921335  0  0  0.141127  0  0.974825  0  0  0.143325  0  0.974112  0  0  0.111439  0.139573  0  0.975368  0
H  H45  1  0.43802086  0.44353338  0.65103696  1  0  0.121923  0  0.921339  0  0  0.141081  0  0.974862  0  0  0.143277  0  0.974152  0  0  0.111423  0.139544  0  0.975393  0
H  H46  1  0.44353067  0.43802918  0.15103613  1  0  0.121848  0  0.921405  0  0  0.14106  0  0.974884  0  0  0.143259  0  0.974172  0  0  0.111399  0.139504  0  0.975432  0
H  H47  1  0.56195973  0.55646913  0.34896654  1  0  0.121805  0  0.921544  0  0  0.141003  0  0.974995  0  0  0.143207  0  0.974279  0  0  0.111345  0.139439  0  0.975546  0
H  H48  1  0.39049216  0.41148236  0.91814008  1  0  0.101715  0  0.960497  0  0  0.107601  0  1.029438  0  0  0.110981  0  1.027766  0  0  0.102881  0.105169  0  1.030719  0
H  H49  1  0.58852404  0.60951145  0.58185370  1  0  0.10186  0  0.960585  0  0  0.107745  0  1.029492  0  0  0.111116  0  1.027842  0  0  0.102938  0.105313  0  1.030773  0
H  H50  1  0.60951571  0.58851505  0.08184827  1  0  0.101651  0  0.960474  0  0  0.10765  0  1.02932  0  0  0.110996  0  1.027692  0  0  0.102903  0.105226  0  1.030599  0
H  H51  1  0.41146545  0.39049774  0.41815366  1  0  0.101613  0  0.960577  0  0  0.107612  0  1.029398  0  0  0.111016  0  1.0277  0  0  0.102888  0.105178  0  1.030678  0
H  H52  1  0.34987147  0.20035864  0.00679933  1  0  0.10007  0  0.955911  0  0  0.107618  0  1.019811  0  0  0.11094  0  1.017313  0  0  0.104532  0.105205  0  1.021672  0
H  H53  1  0.79965353  0.65012457  0.49319602  1  0  0.100047  0  0.955877  0  0  0.107574  0  1.019806  0  0  0.110896  0  1.017309  0  0  0.104532  0.105167  0  1.021671  0
H  H54  1  0.65010953  0.79963962  0.99318610  1  0  0.100041  0  0.955926  0  0  0.107547  0  1.019886  0  0  0.110864  0  1.0174  0  0  0.104545  0.105136  0  1.021753  0
H  H55  1  0.20034382  0.34990945  0.50681760  1  0  0.099943  0  0.955776  0  0  0.107475  0  1.019766  0  0  0.110795  0  1.017272  0  0  0.104508  0.105077  0  1.021601  0
H  H56  1  0.59732055  0.06412241  0.06848301  1  0  0.095108  0  0.952067  0  0  0.10667  0  1.009042  0  0  0.109251  0  1.008991  0  0  0.105294  0.104837  0  1.009178  0
H  H57  1  0.93590014  0.40266049  0.43151485  1  0  0.095055  0  0.951914  0  0  0.106571  0  1.008949  0  0  0.109153  0  1.008896  0  0  0.105286  0.104747  0  1.009082  0
H  H58  1  0.40264094  0.93586668  0.93151102  1  0  0.094953  0  0.952121  0  0  0.106547  0  1.009072  0  0  0.109129  0  1.009021  0  0  0.105254  0.10472  0  1.009208  0
H  H59  1  0.06411446  0.59738787  0.56849185  1  0  0.095123  0  0.951907  0  0  0.106699  0  1.008873  0  0  0.109282  0  1.008821  0  0  0.105291  0.104869  0  1.009016  0
H  H60  1  0.88574493  0.14516589  0.03746734  1  0  0.113755  0  0.947946  0  0  0.120026  0  1.012073  0  0  0.123811  0  1.009083  0  0  0.112828  0.117294  0  1.014277  0
H  H61  1  0.85483936  0.11424550  0.46253290  1  0  0.113706  0  0.948058  0  0  0.119937  0  1.012227  0  0  0.12372  0  1.009237  0  0  0.11277  0.117205  0  1.014424  0
H  H62  1  0.11422837  0.85480923  0.96253181  1  0  0.113624  0  0.947961  0  0  0.119973  0  1.012027  0  0  0.123758  0  1.009035  0  0  0.11277  0.117234  0  1.014244  0
H  H63  1  0.14517845  0.88579894  0.53746927  1  0  0.113706  0  0.94799  0  0  0.120024  0  1.012063  0  0  0.123808  0  1.009072  0  0  0.112843  0.11729  0  1.014264  0
C  C64  1  0.02348435  0.28986827  0.68263875  1  0  -0.719061  0  3.517526  0  0  -0.759987  0  3.748726  0  0  -0.773439  0  3.75396  0  0  -0.336024  -0.750637  0  3.745196  0
C  C65  1  0.71012418  0.97652626  0.81735849  1  0  -0.719038  0  3.517571  0  0  -0.759919  0  3.748807  0  0  -0.773374  0  3.754043  0  0  -0.336022  -0.750583  0  3.745316  0
C  C66  1  0.97650460  0.71013045  0.31736409  1  0  -0.719021  0  3.517415  0  0  -0.759963  0  3.748616  0  0  -0.773415  0  3.753857  0  0  -0.33604  -0.750613  0  3.745095  0
C  C67  1  0.28987912  0.02347651  0.18264214  1  0  -0.719038  0  3.517495  0  0  -0.759904  0  3.748744  0  0  -0.77336  0  3.753979  0  0  -0.33604  -0.750566  0  3.745212  0
C  C68  1  0.16737982  0.99542559  0.82173881  1  0  -0.705852  0  3.5006  0  0  -0.744327  0  3.72348  0  0  -0.757937  0  3.730708  0  0  -0.335139  -0.7348  0  3.718522  0
C  C69  1  0.00458396  0.83262276  0.67826180  1  0  -0.705937  0  3.500546  0  0  -0.744416  0  3.723379  0  0  -0.758026  0  3.730614  0  0  -0.335197  -0.734902  0  3.718428  0
C  C70  1  0.83262582  0.00457208  0.17826377  1  0  -0.705767  0  3.500445  0  0  -0.744188  0  3.723287  0  0  -0.757797  0  3.730527  0  0  -0.335079  -0.734664  0  3.718332  0
C  C71  1  0.99541914  0.16737486  0.32173999  1  0  -0.705946  0  3.50053  0  0  -0.74444  0  3.723376  0  0  -0.758058  0  3.730598  0  0  -0.335141  -0.734922  0  3.718422  0
C  C72  1  0.27336472  0.42761513  0.79577192  1  0  -0.720236  0  3.527443  0  0  -0.760801  0  3.758682  0  0  -0.774634  0  3.765027  0  0  -0.34096  -0.751179  0  3.754356  0
C  C73  1  0.57238981  0.72663504  0.70422667  1  0  -0.720397  0  3.52751  0  0  -0.760919  0  3.75877  0  0  -0.774752  0  3.765111  0  0  -0.340979  -0.7513  0  3.754468  0
C  C74  1  0.72664323  0.57237090  0.20422971  1  0  -0.720183  0  3.527385  0  0  -0.760768  0  3.758605  0  0  -0.7746  0  3.764957  0  0  -0.340935  -0.751142  0  3.754287  0
C  C75  1  0.42762844  0.27334976  0.29577090  1  0  -0.720239  0  3.527551  0  0  -0.760801  0  3.758807  0  0  -0.774636  0  3.765159  0  0  -0.340963  -0.751178  0  3.754478  0
C  C76  1  0.82538341  0.47966573  0.82385642  1  0  0.716643  0  3.81538  0  0  0.662641  0  4.118991  0  0  0.69688  0  4.110366  0  0  0.232843  0.639435  0  4.124057  0
C  C77  1  0.52033449  0.17461913  0.67614006  1  0  0.716734  0  3.815483  0  0  0.662647  0  4.119212  0  0  0.696889  0  4.110587  0  0  0.232819  0.63944  0  4.124296  0
C  C78  1  0.17462467  0.52033839  0.17614347  1  0  0.716776  0  3.815139  0  0  0.662738  0  4.118876  0  0  0.69698  0  4.11025  0  0  0.232871  0.639531  0  4.123944  0
C  C79  1  0.47965557  0.82537947  0.32385544  1  0  0.716552  0  3.815462  0  0  0.662532  0  4.119135  0  0  0.696755  0  4.110538  0  0  0.232844  0.63932  0  4.12421  0
C  C80  1  0.67616045  0.53545946  0.87206494  1  0  -0.322703  0  3.715425  0  0  -0.374343  0  3.967017  0  0  -0.379923  0  3.973624  0  0  -0.157551  -0.370407  0  3.962315  0
C  C81  1  0.46454547  0.32384514  0.62793418  1  0  -0.322603  0  3.715131  0  0  -0.374193  0  3.966576  0  0  -0.379779  0  3.97318  0  0  -0.157493  -0.370273  0  3.961873  0
C  C82  1  0.32385930  0.46454356  0.12793630  1  0  -0.322331  0  3.715123  0  0  -0.374123  0  3.966668  0  0  -0.379704  0  3.97328  0  0  -0.157458  -0.370193  0  3.961964  0
C  C83  1  0.53545304  0.67614327  0.37206412  1  0  -0.322454  0  3.715259  0  0  -0.374073  0  3.96667  0  0  -0.37966  0  3.973272  0  0  -0.157469  -0.370135  0  3.961984  0
C  C84  1  0.65796702  0.40662512  0.92724145  1  0  0.107807  0  3.706532  0  0  0.12085  0  3.942926  0  0  0.123813  0  3.965909  0  0  0.007911  0.118876  0  3.927469  0
C  C85  1  0.59338153  0.34204082  0.57275208  1  0  0.107765  0  3.706712  0  0  0.120933  0  3.943059  0  0  0.123915  0  3.966004  0  0  0.007895  0.118962  0  3.927598  0
C  C86  1  0.34203727  0.59336595  0.07275602  1  0  0.10731  0  3.706648  0  0  0.120784  0  3.942884  0  0  0.123739  0  3.965877  0  0  0.007845  0.118815  0  3.927406  0
C  C87  1  0.40661528  0.65798120  0.42724477  1  0  0.107704  0  3.706269  0  0  0.120837  0  3.942781  0  0  0.123822  0  3.965725  0  0  0.007847  0.118862  0  3.927314  0
C  C88  1  0.49932526  0.35523830  0.94462881  1  0  -0.115603  0  3.703058  0  0  -0.136139  0  3.954466  0  0  -0.141376  0  3.976866  0  0  -0.085878  -0.132643  0  3.939365  0
C  C89  1  0.64475336  0.50067671  0.55537015  1  0  -0.115781  0  3.703056  0  0  -0.13633  0  3.954414  0  0  -0.141576  0  3.97681  0  0  -0.08593  -0.132836  0  3.93932  0
C  C90  1  0.50067459  0.64475515  0.05536191  1  0  -0.115385  0  3.702991  0  0  -0.13608  0  3.954281  0  0  -0.141285  0  3.976682  0  0  -0.085833  -0.132602  0  3.93919  0
C  C91  1  0.35522574  0.49934010  0.44463778  1  0  -0.115494  0  3.703027  0  0  -0.136073  0  3.954357  0  0  -0.141338  0  3.976742  0  0  -0.085804  -0.132573  0  3.939262  0
C  C92  1  0.47637738  0.23485559  0.99504796  1  0  -0.03443  0  3.737027  0  0  -0.056599  0  3.99718  0  0  -0.055834  0  4.017212  0  0  -0.078942  -0.056847  0  3.983425  0
C  C93  1  0.76515399  0.52361709  0.50494562  1  0  -0.0344  0  3.736791  0  0  -0.056552  0  3.996922  0  0  -0.055783  0  4.016948  0  0  -0.078942  -0.056811  0  3.983198  0
C  C94  1  0.52360850  0.76513760  0.00493975  1  0  -0.034486  0  3.737197  0  0  -0.05667  0  3.997441  0  0  -0.055896  0  4.017454  0  0  -0.078979  -0.056932  0  3.983726  0
C  C95  1  0.23484554  0.47641166  0.49506220  1  0  -0.034365  0  3.737157  0  0  -0.056588  0  3.997369  0  0  -0.055818  0  4.017402  0  0  -0.078957  -0.056839  0  3.983635  0
C  C96  1  0.61405597  0.15894364  0.02931371  1  0  -0.066183  0  3.756797  0  0  -0.078676  0  4.009828  0  0  -0.083091  0  4.032341  0  0  -0.086472  -0.075812  0  3.994546  0
C  C97  1  0.84106049  0.38592929  0.47068599  1  0  -0.066008  0  3.757049  0  0  -0.078453  0  4.010025  0  0  -0.082868  0  4.032541  0  0  -0.08644  -0.075592  0  3.994763  0
C  C98  1  0.38592064  0.84104562  0.97067780  1  0  -0.065805  0  3.756977  0  0  -0.078284  0  4.009944  0  0  -0.082702  0  4.032456  0  0  -0.08642  -0.075421  0  3.994678  0
C  C99  1  0.15893647  0.61410589  0.52932121  1  0  -0.066106  0  3.756797  0  0  -0.078569  0  4.009764  0  0  -0.082991  0  4.032278  0  0  -0.086551  -0.075705  0  3.994495  0
C  C100  1  0.77468964  0.20343852  0.01252994  1  0  -0.084185  0  3.73153  0  0  -0.112831  0  3.989275  0  0  -0.111744  0  4.007488  0  0  -0.076529  -0.113321  0  3.976948  0
C  C101  1  0.79657676  0.22530099  0.48746403  1  0  -0.084329  0  3.731672  0  0  -0.112876  0  3.989458  0  0  -0.111789  0  4.007674  0  0  -0.076545  -0.113372  0  3.97713  0
C  C102  1  0.22530101  0.79654455  0.98746577  1  0  -0.084443  0  3.731418  0  0  -0.112991  0  3.989326  0  0  -0.111904  0  4.007548  0  0  -0.076534  -0.113487  0  3.977001  0
C  C103  1  0.20343978  0.77473042  0.51253514  1  0  -0.084402  0  3.731362  0  0  -0.112949  0  3.989226  0  0  -0.111866  0  4.007451  0  0  -0.076569  -0.113438  0  3.976883  0
C  C104  1  0.79401393  0.32674646  0.96269946  1  0  0.020495  0  3.665026  0  0  0.009965  0  3.919319  0  0  0.006085  0  3.940776  0  0  0.079286  0.012295  0  3.905062  0
C  C105  1  0.67324746  0.20598514  0.53729932  1  0  0.020498  0  3.664839  0  0  0.009748  0  3.919352  0  0  0.005863  0  3.940805  0  0  0.079265  0.012087  0  3.905069  0
C  C106  1  0.20596820  0.67323527  0.03729990  1  0  0.021228  0  3.664582  0  0  0.010064  0  3.919475  0  0  0.006181  0  3.940939  0  0  0.0794  0.0124  0  3.905186  0
C  C107  1  0.32675163  0.79404471  0.46269935  1  0  0.020849  0  3.66454  0  0  0.009866  0  3.919357  0  0  0.005981  0  3.940805  0  0  0.079321  0.012206  0  3.905071  0
N  N108  1  0.96644759  0.36755167  0.94820585  1  0  0.515792  0  3.896423  0  0  0.533766  0  4.21157  0  0  0.556288  0  4.218072  0  0  0.055022  0.518654  0  4.207222  0
N  N109  1  0.63247490  0.03353547  0.55178943  1  0  0.515721  0  3.897146  0  0  0.533775  0  4.212277  0  0  0.556302  0  4.218777  0  0  0.054889  0.518661  0  4.207918  0
N  N110  1  0.03355726  0.63241889  0.05180074  1  0  0.515566  0  3.897164  0  0  0.533763  0  4.212241  0  0  0.556291  0  4.218749  0  0  0.055017  0.518657  0  4.207887  0
N  N111  1  0.36757579  0.96646393  0.44820326  1  0  0.515657  0  3.896527  0  0  0.533843  0  4.211561  0  0  0.556367  0  4.218066  0  0  0.055141  0.51874  0  4.207189  0
O  O112  1  0.89764594  0.32035123  0.82794064  1  0  -0.623763  0  2.057899  0  0  -0.549881  0  2.293641  0  0  -0.577482  0  2.289308  0  0  -0.276637  -0.530698  0  2.295955  0
O  O113  1  0.67964618  0.10235822  0.67205690  1  0  -0.623764  0  2.05785  0  0  -0.549859  0  2.29362  0  0  -0.577462  0  2.289289  0  0  -0.276639  -0.530674  0  2.295907  0
O  O114  1  0.10236061  0.67965415  0.17205881  1  0  -0.62383  0  2.057802  0  0  -0.549933  0  2.293513  0  0  -0.577532  0  2.289173  0  0  -0.276687  -0.53078  0  2.295875  0
O  O115  1  0.32033509  0.89764681  0.32794326  1  0  -0.6237  0  2.05789  0  0  -0.549845  0  2.293626  0  0  -0.577442  0  2.289299  0  0  -0.276658  -0.530678  0  2.295962  0
O  O116  1  0.87342804  0.58845968  0.78205026  1  0  -0.637135  0  2.052401  0  0  -0.563984  0  2.293227  0  0  -0.591241  0  2.287595  0  0  -0.277322  -0.544943  0  2.296316  0
O  O117  1  0.41153938  0.12657168  0.71794478  1  0  -0.637258  0  2.052657  0  0  -0.564021  0  2.293464  0  0  -0.591282  0  2.287835  0  0  -0.277304  -0.544997  0  2.296583  0
O  O118  1  0.12658514  0.41154455  0.21795121  1  0  -0.637252  0  2.052551  0  0  -0.564062  0  2.293372  0  0  -0.591322  0  2.287741  0  0  -0.277283  -0.545034  0  2.296481  0
O  O119  1  0.58844436  0.87340733  0.28204688  1  0  -0.637077  0  2.052769  0  0  -0.563927  0  2.293608  0  0  -0.59118  0  2.287983  0  0  -0.277225  -0.544896  0  2.296724  0
O  O120  1  0.09217549  0.24927673  0.95656351  1  0  -0.367252  0  1.751331  0  0  -0.343257  0  1.964467  0  0  -0.356251  0  1.960906  0  0  -0.119291  -0.334378  0  1.966871  0
O  O121  1  0.75070713  0.90783305  0.54343610  1  0  -0.366946  0  1.75288  0  0  -0.342892  0  1.966014  0  0  -0.355852  0  1.962408  0  0  -0.118972  -0.334035  0  1.96841  0
O  O122  1  0.90781369  0.75070923  0.04344765  1  0  -0.367349  0  1.751099  0  0  -0.343415  0  1.964235  0  0  -0.35639  0  1.960618  0  0  -0.119423  -0.334503  0  1.966573  0
O  O123  1  0.24930377  0.09220731  0.45656155  1  0  -0.367091  0  1.750867  0  0  -0.343165  0  1.963997  0  0  -0.356147  0  1.960406  0  0  -0.119307  -0.334301  0  1.966384  0
O  O124  1  0.97943381  0.51838684  0.92862230  1  0  -0.368131  0  1.750739  0  0  -0.345241  0  1.962027  0  0  -0.358416  0  1.958589  0  0  -0.126296  -0.33637  0  1.964412  0
O  O125  1  0.48159318  0.02056818  0.57137654  1  0  -0.368239  0  1.749817  0  0  -0.345496  0  1.961169  0  0  -0.358691  0  1.957738  0  0  -0.126436  -0.336634  0  1.963566  0
O  O126  1  0.02056653  0.48159906  0.07137832  1  0  -0.368007  0  1.751298  0  0  -0.345244  0  1.962655  0  0  -0.358415  0  1.959215  0  0  -0.126252  -0.336377  0  1.965015  0
O  O127  1  0.51840597  0.97944223  0.42862119  1  0  -0.368201  0  1.750964  0  0  -0.345414  0  1.962264  0  0  -0.358592  0  1.958828  0  0  -0.12638  -0.336542  0  1.964624  0
