# generated using pymatgen
data_ZnMo6H20C16(N3O11)2
_symmetry_space_group_name_H-M   'P 1'
_cell_length_a   7.65849812
_cell_length_b   10.09165503
_cell_length_c   10.27858499
_cell_angle_alpha   106.26509925
_cell_angle_beta   92.36771401
_cell_angle_gamma   98.71631578
_symmetry_Int_Tables_number   1
_chemical_formula_structural   ZnMo6H20C16(N3O11)2
_chemical_formula_sum   'Zn1 Mo6 H20 C16 N6 O22'
_cell_volume   750.85539748
_cell_formula_units_Z   1
loop_
 _symmetry_equiv_pos_site_id
 _symmetry_equiv_pos_as_xyz
  1  'x, y, z'
loop_
 _atom_site_type_symbol
 _atom_site_label
 _atom_site_symmetry_multiplicity
 _atom_site_fract_x
 _atom_site_fract_y
 _atom_site_fract_z
 _atom_site_occupancy
 _atom_site_pbe_bader_spin_density
 _atom_site_pbe_cm5_charge
 _atom_site_pbe_ddec_charge
 _atom_site_pbe_ddec_spin_density
 _atom_site_pbe_ddec_sum_bond_order
 _atom_site_pbe_magmom
Zn  Zn0  1  0.50000048  0.50000038  0.50000103  1  0  0.695021  0.959974  0  2.319832  0
Mo  Mo1  1  0.19696460  0.30590606  0.85965111  1  0  1.481952  2.094721  0  4.727715  0
Mo  Mo2  1  0.80303744  0.69409365  0.14035069  1  0  1.481974  2.094764  0  4.727628  0
Mo  Mo3  1  0.49296820  0.59452551  0.88073328  1  0  1.543298  2.216642  0  4.572439  0
Mo  Mo4  1  0.50703298  0.40547629  0.11926907  1  0  1.543301  2.216552  0  4.572466  0
Mo  Mo5  1  0.99128291  0.57345490  0.85743701  1  0  1.5222  2.185362  0  4.581413  0
Mo  Mo6  1  0.00872195  0.42654585  0.14256418  1  0  1.522126  2.185275  0  4.581531  0
H  H7  1  0.42442008  0.68213743  0.31682081  1  0  0.335798  0.282369  0  0.94472  0
H  H8  1  0.57558324  0.31786226  0.68317908  1  0  0.335805  0.282371  0  0.944738  0
H  H9  1  0.15798551  0.10554327  0.06791976  1  0  0.322668  0.293216  0  0.938677  0
H  H10  1  0.84201410  0.89445746  0.93207836  1  0  0.322655  0.293201  0  0.938681  0
H  H11  1  0.14790553  0.44050332  0.44862832  1  0  0.298628  0.404119  0  0.917792  0
H  H12  1  0.85209477  0.55949430  0.55137482  1  0  0.298629  0.404175  0  0.917723  0
H  H13  1  0.19561726  0.36322835  0.56106606  1  0  0.29575  0.410998  0  0.909923  0
H  H14  1  0.80438480  0.63677137  0.43893769  1  0  0.295742  0.411  0  0.909924  0
H  H15  1  0.33840740  0.77196252  0.71812838  1  0  0.120681  0.117724  0  1.045855  0
H  H16  1  0.66159244  0.22803927  0.28187101  1  0  0.12069  0.117704  0  1.045855  0
H  H17  1  0.22685339  0.97984572  0.62991883  1  0  0.112896  0.142257  0  1.026115  0
H  H18  1  0.77314862  0.02015397  0.37008005  1  0  0.112883  0.142241  0  1.026117  0
H  H19  1  0.32320482  0.92725785  0.00286616  1  0  0.134679  0.126793  0  0.985654  0
H  H20  1  0.67679631  0.07274392  0.99713035  1  0  0.134691  0.12679  0  0.985685  0
H  H21  1  0.40480279  0.80238038  0.16666681  1  0  0.113741  0.138899  0  1.031836  0
H  H22  1  0.59520252  0.19762246  0.83333398  1  0  0.113759  0.138976  0  1.031776  0
H  H23  1  0.14221922  0.08221093  0.46800376  1  0  0.114762  0.137543  0  1.007167  0
H  H24  1  0.85777404  0.91778456  0.53199277  1  0  0.114752  0.13753  0  1.007199  0
H  H25  1  0.06175054  0.18803375  0.28575073  1  0  0.130745  0.108965  0  1.026371  0
H  H26  1  0.93824731  0.81196488  0.71424678  1  0  0.130737  0.109008  0  1.026355  0
C  C27  1  0.33878822  0.78570588  0.61732229  1  0  0.025366  0.022796  0  3.946398  0
C  C28  1  0.66120900  0.21429590  0.38267606  1  0  0.025353  0.022845  0  3.946379  0
C  C29  1  0.28146779  0.89103121  0.57091463  1  0  -0.1009  -0.237064  0  3.932433  0
C  C30  1  0.71852921  0.10896952  0.42908343  1  0  -0.10089  -0.237072  0  3.932431  0
C  C31  1  0.31388308  0.85938588  0.43325738  1  0  0.105472  0.133476  0  3.993107  0
C  C32  1  0.68611478  0.14061276  0.56674013  1  0  0.105534  0.133549  0  3.993164  0
C  C33  1  0.28538945  0.95491571  0.10628783  1  0  0.077422  0.137411  0  3.81749  0
C  C34  1  0.71460864  0.04508398  0.89371095  1  0  0.077418  0.137417  0  3.817548  0
C  C35  1  0.32962280  0.88751303  0.19950996  1  0  -0.070355  -0.150106  0  3.864607  0
C  C36  1  0.67037681  0.11248770  0.80048817  1  0  -0.07034  -0.150133  0  3.864562  0
C  C37  1  0.27624892  0.92923593  0.33219766  1  0  0.029415  0.10629  0  3.996485  0
C  C38  1  0.72374894  0.07076271  0.66780083  1  0  0.029421  0.106285  0  3.996511  0
C  C39  1  0.18143438  0.04149862  0.36573661  1  0  -0.069993  -0.161115  0  3.893758  0
C  C40  1  0.81856064  0.95849897  0.63426054  1  0  -0.069966  -0.161069  0  3.893753  0
C  C41  1  0.13765944  0.10330871  0.26779862  1  0  0.072705  0.122538  0  3.849968  0
C  C42  1  0.86233733  0.89669097  0.73219817  1  0  0.072686  0.122494  0  3.849989  0
N  N43  1  0.38840383  0.74136426  0.40642391  1  0  -0.262706  -0.091752  0  3.639611  0
N  N44  1  0.61159534  0.25863438  0.59357461  1  0  -0.262707  -0.091699  0  3.639626  0
N  N45  1  0.40315144  0.69486631  0.51596323  1  0  -0.224303  -0.155008  0  3.379648  0
N  N46  1  0.59684687  0.30513442  0.48403486  1  0  -0.224387  -0.155181  0  3.379682  0
N  N47  1  0.18907108  0.05855949  0.14144362  1  0  -0.339644  -0.117575  0  3.668654  0
N  N48  1  0.81092439  0.94144019  0.85855411  1  0  -0.339641  -0.117612  0  3.668733  0
O  O49  1  0.24711897  0.54079197  0.88037943  1  0  -0.615237  -0.95307  0  2.264605  0
O  O50  1  0.75288199  0.45920879  0.11962360  1  0  -0.615211  -0.953044  0  2.264545  0
O  O51  1  0.45310352  0.37246590  0.90766522  1  0  -0.606469  -0.967128  0  2.040001  0
O  O52  1  0.54689875  0.62753486  0.09233785  1  0  -0.606482  -0.967115  0  2.039951  0
O  O53  1  0.98261292  0.37502780  0.90378411  1  0  -0.596413  -0.923706  0  2.005328  0
O  O54  1  0.01738912  0.62497190  0.09621769  1  0  -0.596413  -0.923742  0  2.005346  0
O  O55  1  0.18766638  0.26469402  0.68349790  1  0  -0.528982  -0.714764  0  1.74256  0
O  O56  1  0.81233718  0.73530674  0.31650423  1  0  -0.529005  -0.714801  0  1.742534  0
O  O57  1  0.24057050  0.41147540  0.09048053  1  0  -0.618978  -0.971676  0  2.233793  0
O  O58  1  0.75943153  0.58852431  0.90952127  1  0  -0.618992  -0.971716  0  2.233755  0
O  O59  1  0.16622437  0.14675571  0.89577602  1  0  -0.527974  -0.69976  0  1.726191  0
O  O60  1  0.83377744  0.85324294  0.10422452  1  0  -0.527978  -0.699723  0  1.726115  0
O  O61  1  0.51398645  0.52255753  0.70668276  1  0  -0.535113  -0.75646  0  1.993634  0
O  O62  1  0.48601473  0.47744427  0.29331959  1  0  -0.535137  -0.756455  0  1.993646  0
O  O63  1  0.49985278  0.76920568  0.90047088  1  0  -0.494423  -0.644396  0  1.74546  0
O  O64  1  0.50014818  0.23079508  0.09953216  1  0  -0.49442  -0.644332  0  1.74543  0
O  O65  1  0.95066925  0.49764821  0.68386443  1  0  -0.512897  -0.680411  0  1.711316  0
O  O66  1  0.04933431  0.50235254  0.31613672  1  0  -0.512876  -0.680356  0  1.711219  0
O  O67  1  0.07415709  0.74637764  0.87358730  1  0  -0.512122  -0.677359  0  1.732085  0
O  O68  1  0.92584538  0.25362416  0.12641313  1  0  -0.512109  -0.677358  0  1.73218  0
O  O69  1  0.23550932  0.39242492  0.48145224  1  0  -0.569152  -0.760722  0  2.143543  0
O  O70  1  0.76449273  0.60757480  0.51855151  1  0  -0.569141  -0.760792  0  2.14338  0
