# generated using pymatgen
data_KH23C19O11
_symmetry_space_group_name_H-M   'P 1'
_cell_length_a   9.80996686
_cell_length_b   10.66158435
_cell_length_c   11.40900000
_cell_angle_alpha   96.65883541
_cell_angle_beta   92.28466468
_cell_angle_gamma   115.60534788
_symmetry_Int_Tables_number   1
_chemical_formula_structural   KH23C19O11
_chemical_formula_sum   'K2 H46 C38 O22'
_cell_volume   1063.41159252
_cell_formula_units_Z   2
loop_
 _symmetry_equiv_pos_site_id
 _symmetry_equiv_pos_as_xyz
  1  'x, y, z'
loop_
 _atom_site_type_symbol
 _atom_site_label
 _atom_site_symmetry_multiplicity
 _atom_site_fract_x
 _atom_site_fract_y
 _atom_site_fract_z
 _atom_site_occupancy
 _atom_site_hle17_bader_spin_density
 _atom_site_hle17_ddec_charge
 _atom_site_hle17_ddec_spin_density
 _atom_site_hle17_ddec_sum_bond_order
 _atom_site_hle17_magmom
 _atom_site_hse06_10hf_bader_spin_density
 _atom_site_hse06_10hf_ddec_charge
 _atom_site_hse06_10hf_ddec_spin_density
 _atom_site_hse06_10hf_ddec_sum_bond_order
 _atom_site_hse06_10hf_magmom
 _atom_site_hse06_bader_spin_density
 _atom_site_hse06_ddec_charge
 _atom_site_hse06_ddec_spin_density
 _atom_site_hse06_ddec_sum_bond_order
 _atom_site_hse06_magmom
 _atom_site_pbe_bader_charge
 _atom_site_pbe_bader_spin_density
 _atom_site_pbe_cm5_charge
 _atom_site_pbe_ddec_charge
 _atom_site_pbe_ddec_spin_density
 _atom_site_pbe_ddec_sum_bond_order
 _atom_site_pbe_magmom
K  K0  1  0.95200391  0.69674720  0.75384326  1  0  0.936202  0  0.465256  0  0  0.894263  0  0.645516  0  0  0.90898  0  0.621115  0  0.90466  0  0.789885  0.883104  0  0.663244  0
K  K1  1  0.04800363  0.30327389  0.24616586  1  0  0.936201  0  0.465238  0  0  0.894258  0  0.645503  0  0  0.908992  0  0.621089  0  0.904645  0  0.789881  0.883107  0  0.663222  0
H  H2  1  0.22092294  0.56553264  0.02506763  1  0  0.104137  0  0.956328  0  0  0.119842  0  1.022349  0  0  0.120658  0  1.021944  0  0.058652  0  0.108478  0.118998  0  1.022984  0
H  H3  1  0.77907614  0.43446636  0.97492829  1  0  0.104142  0  0.956356  0  0  0.119855  0  1.022355  0  0  0.12067  0  1.021955  0  0.058643  0  0.108478  0.119012  0  1.022989  0
H  H4  1  0.38348401  0.71670423  0.10257432  1  0  0.095247  0  0.95564  0  0  0.110713  0  1.022706  0  0  0.112029  0  1.021283  0  0.079155  0  0.102877  0.109656  0  1.023804  0
H  H5  1  0.61651607  0.28329687  0.89742010  1  0  0.09526  0  0.95564  0  0  0.11074  0  1.022691  0  0  0.112057  0  1.021269  0  0.079136  0  0.102899  0.109683  0  1.02379  0
H  H6  1  0.28446958  0.73136624  0.97206377  1  0  0.080364  0  0.942941  0  0  0.096249  0  1.010523  0  0  0.097231  0  1.009016  0  0.069806  0  0.102208  0.095486  0  1.011595  0
H  H7  1  0.71553203  0.26863592  0.02793345  1  0  0.080363  0  0.942957  0  0  0.096256  0  1.010531  0  0  0.097239  0  1.009026  0  0.069748  0  0.102182  0.095494  0  1.011604  0
H  H8  1  0.13858241  0.59292268  0.53094467  1  0  0.103413  0  0.961737  0  0  0.118539  0  1.028896  0  0  0.119675  0  1.027833  0  0.114232  0  0.111434  0.117693  0  1.029601  0
H  H9  1  0.86141973  0.40707632  0.46905223  1  0  0.103409  0  0.961771  0  0  0.118613  0  1.028852  0  0  0.119752  0  1.027783  0  0.114149  0  0.111457  0.117767  0  1.029559  0
H  H10  1  0.29781064  0.76310062  0.56505527  1  0  0.091029  0  0.949418  0  0  0.108357  0  1.015924  0  0  0.109225  0  1.014841  0  0.068861  0  0.105307  0.107456  0  1.017  0
H  H11  1  0.70219096  0.23690154  0.43493932  1  0  0.09113  0  0.949386  0  0  0.108458  0  1.015888  0  0  0.109317  0  1.014815  0  0.068818  0  0.105347  0.107559  0  1.01696  0
H  H12  1  0.29015312  0.64260546  0.43705008  1  0  0.091361  0  0.944929  0  0  0.107953  0  1.012149  0  0  0.108312  0  1.011836  0  0.064523  0  0.10686  0.107469  0  1.012561  0
H  H13  1  0.70985054  0.35739459  0.56294611  1  0  0.091391  0  0.944899  0  0  0.107976  0  1.012125  0  0  0.108335  0  1.011811  0  0.064605  0  0.106868  0.107492  0  1.012538  0
H  H14  1  0.69055499  0.81592991  0.64213143  1  0  0.077194  0  0.970353  0  0  0.093135  0  1.040339  0  0  0.093941  0  1.039114  0  0.051279  0  0.099977  0.092397  0  1.041463  0
H  H15  1  0.30944455  0.18407435  0.35787296  1  0  0.077119  0  0.970411  0  0  0.093064  0  1.040406  0  0  0.093868  0  1.03918  0  0.051253  0  0.099963  0.092326  0  1.041531  0
H  H16  1  0.75082015  0.00148177  0.63886350  1  0  0.096942  0  0.951254  0  0  0.113489  0  1.017921  0  0  0.114089  0  1.017786  0  0.078953  0  0.103882  0.113042  0  1.017955  0
H  H17  1  0.24918141  0.99852460  0.36113856  1  0  0.096882  0  0.9513  0  0  0.113462  0  1.017924  0  0  0.114061  0  1.017788  0  0.079031  0  0.103883  0.113018  0  1.01796  0
H  H18  1  0.88539173  0.93986289  0.68257767  1  0  0.093167  0  0.957637  0  0  0.106431  0  1.029699  0  0  0.106759  0  1.030388  0  0.101495  0  0.106  0.106308  0  1.028948  0
H  H19  1  0.11460783  0.06013926  0.31741685  1  0  0.093131  0  0.957607  0  0  0.106389  0  1.029687  0  0  0.106716  0  1.030376  0  0.101414  0  0.105974  0.106266  0  1.028938  0
H  H20  1  0.54743492  0.99835108  0.40408736  1  0  0.085952  0  0.942804  0  0  0.105067  0  1.005099  0  0  0.105411  0  1.00467  0  0.067381  0  0.101877  0.104846  0  1.004982  0
H  H21  1  0.45255852  0.00165108  0.59591045  1  0  0.085958  0  0.942801  0  0  0.10507  0  1.005072  0  0  0.105412  0  1.004644  0  0.067368  0  0.101853  0.104868  0  1.004939  0
H  H22  1  0.38714214  0.85896209  0.31245092  1  0  0.10558  0  0.957456  0  0  0.118297  0  1.025601  0  0  0.119865  0  1.024257  0  0.102554  0  0.106898  0.117118  0  1.026585  0
H  H23  1  0.61285336  0.14103796  0.68754586  1  0  0.105611  0  0.957317  0  0  0.118207  0  1.025603  0  0  0.119774  0  1.024257  0  0.1026  0  0.106845  0.11703  0  1.026588  0
H  H24  1  0.51823772  0.00805769  0.25032148  1  0  0.0869  0  0.941591  0  0  0.105139  0  1.0049  0  0  0.105707  0  1.004227  0  0.08355  0  0.102549  0.104462  0  1.005723  0
H  H25  1  0.48175930  0.99194341  0.74967284  1  0  0.086882  0  0.941574  0  0  0.105101  0  1.004896  0  0  0.105668  0  1.004222  0  0.083649  0  0.10251  0.104424  0  1.005722  0
H  H26  1  0.79691378  0.02787696  0.90711117  1  0  0.096246  0  0.964173  0  0  0.110503  0  1.032568  0  0  0.110951  0  1.032836  0  0.087964  0  0.10485  0.110074  0  1.032541  0
H  H27  1  0.20308678  0.97212730  0.09289062  1  0  0.096258  0  0.964144  0  0  0.110518  0  1.032541  0  0  0.110965  0  1.032812  0  0.087989  0  0.10486  0.110089  0  1.032512  0
H  H28  1  0.61107707  0.98891048  0.95356472  1  0  0.085026  0  0.938194  0  0  0.104297  0  1.000895  0  0  0.104982  0  0.99978  0  0.038964  0  0.102336  0.103689  0  1.001744  0
H  H29  1  0.38892295  0.01109694  0.04643214  1  0  0.08507  0  0.93813  0  0  0.1043  0  1.000894  0  0  0.104985  0  0.99978  0  0.038816  0  0.102347  0.103691  0  1.001745  0
H  H30  1  0.64032937  0.86254189  0.85200383  1  0  0.078755  0  0.956932  0  0  0.098667  0  1.021627  0  0  0.099073  0  1.021119  0  0.04282  0  0.100733  0.098064  0  1.022507  0
H  H31  1  0.35966915  0.13746237  0.14799527  1  0  0.07873  0  0.957002  0  0  0.098658  0  1.021689  0  0  0.099059  0  1.021187  0  0.04335  0  0.100753  0.098055  0  1.022568  0
H  H32  1  0.48254307  0.38665341  0.62672379  1  0  0.044493  0  0.935655  0  0  0.056036  0  1.004703  0  0  0.057277  0  1.003281  0  0.019758  0  0.089912  0.054936  0  1.006102  0
H  H33  1  0.51746428  0.61333508  0.37328003  1  0  0.044558  0  0.935616  0  0  0.056046  0  1.004728  0  0  0.057281  0  1.0033  0  0.019887  0  0.089872  0.054944  0  1.006128  0
H  H34  1  0.60939611  0.54827728  0.57864523  1  0  0.056369  0  0.958985  0  0  0.070331  0  1.026957  0  0  0.070153  0  1.027724  0  0.065682  0  0.103016  0.070426  0  1.026449  0
H  H35  1  0.39061067  0.45171646  0.42136791  1  0  0.056381  0  0.958977  0  0  0.070336  0  1.026947  0  0  0.070157  0  1.027708  0  0.065521  0  0.103003  0.07043  0  1.026438  0
H  H36  1  0.31340946  0.49576453  0.62944795  1  0  0.0841  0  0.961681  0  0  0.100964  0  1.023827  0  0  0.1011  0  1.025895  0  0.066933  0  0.09427  0.100697  0  1.022721  0
H  H37  1  0.68659082  0.50421554  0.37055560  1  0  0.084153  0  0.961635  0  0  0.100984  0  1.023808  0  0  0.10112  0  1.025876  0  0.066936  0  0.094297  0.100717  0  1.022702  0
H  H38  1  0.46507094  0.66754728  0.65901081  1  0  0.053838  0  0.963107  0  0  0.072886  0  1.024353  0  0  0.073542  0  1.024567  0  0.002093  0  0.084052  0.072176  0  1.024733  0
H  H39  1  0.53492676  0.33243595  0.34099211  1  0  0.053828  0  0.963005  0  0  0.072826  0  1.024331  0  0  0.073482  0  1.024545  0  0.001848  0  0.083994  0.072115  0  1.024712  0
H  H40  1  0.43809775  0.66116275  0.86096967  1  0  0.060739  0  0.967891  0  0  0.080079  0  1.026946  0  0  0.080347  0  1.027675  0  0.002482  0  0.086918  0.079699  0  1.026736  0
H  H41  1  0.56190751  0.33882994  0.13903104  1  0  0.06072  0  0.967924  0  0  0.080113  0  1.026925  0  0  0.080387  0  1.027645  0  0.002364  0  0.086924  0.079731  0  1.026716  0
H  H42  1  0.30846188  0.48060405  0.83482813  1  0  0.078007  0  0.970312  0  0  0.093256  0  1.035335  0  0  0.093189  0  1.038126  0  0.064518  0  0.089962  0.093157  0  1.033654  0
H  H43  1  0.69153879  0.51938970  0.16517691  1  0  0.078031  0  0.970258  0  0  0.093288  0  1.03529  0  0  0.093206  0  1.038097  0  0.065032  0  0.089967  0.093188  0  1.033608  0
H  H44  1  0.61927204  0.58433602  0.93197690  1  0  0.055797  0  0.937873  0  0  0.071059  0  1.000555  0  0  0.070656  0  1.001269  0  0.024929  0  0.103444  0.071259  0  1.00019  0
H  H45  1  0.38073014  0.41565878  0.06803181  1  0  0.055716  0  0.937835  0  0  0.071076  0  1.000471  0  0  0.070673  0  1.001183  0  0.024932  0  0.103416  0.07128  0  1.00011  0
H  H46  1  0.49859197  0.40770520  0.86376054  1  0  0.040359  0  0.946793  0  0  0.049666  0  1.020626  0  0  0.050309  0  1.020221  0  0.035539  0  0.090288  0.049143  0  1.021012  0
H  H47  1  0.50140871  0.59228644  0.13624778  1  0  0.040428  0  0.946753  0  0  0.049776  0  1.020579  0  0  0.05041  0  1.020197  0  0.035709  0  0.090315  0.049257  0  1.020967  0
C  C48  1  0.95932696  0.74222235  0.16191445  1  0  -0.140598  0  3.783409  0  0  -0.143233  0  4.046092  0  0  -0.150258  0  4.068279  0  -0.03128  0  -0.036511  -0.138506  0  4.031321  0
C  C49  1  0.04067412  0.25778086  0.83808462  1  0  -0.14056  0  3.783347  0  0  -0.143288  0  4.046016  0  0  -0.150299  0  4.068187  0  -0.031255  0  -0.036546  -0.138558  0  4.031251  0
C  C50  1  0.96359998  0.73108966  0.28352527  1  0  -0.109536  0  3.765269  0  0  -0.113465  0  4.026165  0  0  -0.116377  0  4.046285  0  -0.012199  0  -0.029052  -0.111338  0  4.012986  0
C  C51  1  0.03639806  0.26891145  0.71647172  1  0  -0.109588  0  3.76543  0  0  -0.113489  0  4.026266  0  0  -0.116417  0  4.046379  0  -0.012394  0  -0.029072  -0.111373  0  4.013103  0
C  C52  1  0.87814578  0.79662911  0.33834139  1  0  -0.150721  0  3.79303  0  0  -0.153275  0  4.056109  0  0  -0.164457  0  4.080248  0  0.049139  0  -0.040528  -0.145962  0  4.040232  0
C  C53  1  0.12185578  0.20337726  0.66165716  1  0  -0.150694  0  3.793033  0  0  -0.153292  0  4.056179  0  0  -0.164486  0  4.08033  0  0.049122  0  -0.040515  -0.145975  0  4.040305  0
C  C54  1  0.82195391  0.84976337  0.24922879  1  0  -0.106078  0  3.747552  0  0  -0.113635  0  4.01776  0  0  -0.114307  0  4.036716  0  -0.057285  0  -0.027395  -0.112701  0  4.004438  0
C  C55  1  0.17804515  0.15023773  0.75077086  1  0  -0.106119  0  3.74748  0  0  -0.11363  0  4.017669  0  0  -0.114288  0  4.036591  0  -0.057331  0  -0.027365  -0.112696  0  4.004349  0
C  C56  1  0.86912242  0.81515064  0.13951320  1  0  -0.148291  0  3.783026  0  0  -0.153783  0  4.051931  0  0  -0.16369  0  4.075595  0  0.028751  0  -0.038758  -0.147414  0  4.036072  0
C  C57  1  0.13087560  0.18485256  0.86048401  1  0  -0.148185  0  3.783029  0  0  -0.153675  0  4.051908  0  0  -0.163592  0  4.075568  0  0.029073  0  -0.038724  -0.147307  0  4.036046  0
C  C58  1  0.04266542  0.69594269  0.07744149  1  0  0.604166  0  3.813272  0  0  0.559533  0  4.104835  0  0  0.59374  0  4.094777  0  1.459382  0  0.234544  0.536292  0  4.111249  0
C  C59  1  0.95733816  0.30406577  0.92255823  1  0  0.604032  0  3.813508  0  0  0.559593  0  4.104812  0  0  0.593794  0  4.094752  0  1.459354  0  0.234579  0.536348  0  4.111227  0
C  C60  1  0.27308022  0.67980418  0.05147305  1  0  -0.075622  0  3.611285  0  0  -0.17634  0  3.880097  0  0  -0.168433  0  3.88219  0  0.363536  0  -0.141526  -0.181461  0  3.878688  0
C  C61  1  0.72692088  0.32019693  0.94852492  1  0  -0.075726  0  3.611344  0  0  -0.176455  0  3.880187  0  0  -0.168546  0  3.882274  0  0.363561  0  -0.141591  -0.181581  0  3.878779  0
C  C62  1  0.03906341  0.65846739  0.34276020  1  0  0.628881  0  3.8025  0  0  0.576734  0  4.106345  0  0  0.61148  0  4.093747  0  1.511327  0  0.244869  0.552843  0  4.115025  0
C  C63  1  0.96093875  0.34152951  0.65723559  1  0  0.628673  0  3.802731  0  0  0.576586  0  4.106461  0  0  0.611366  0  4.093798  0  1.511513  0  0.244784  0.552699  0  4.115142  0
C  C64  1  0.22402171  0.68070754  0.49375209  1  0  -0.079077  0  3.600031  0  0  -0.180783  0  3.868699  0  0  -0.172719  0  3.870874  0  0.326714  0  -0.137619  -0.185961  0  3.867246  0
C  C65  1  0.77598043  0.31929146  0.50624305  1  0  -0.07934  0  3.60011  0  0  -0.18113  0  3.868777  0  0  -0.173063  0  3.870954  0  0.326697  0  -0.137726  -0.186309  0  3.867328  0
C  C66  1  0.85308055  0.80204822  0.46318295  1  0  0.599927  0  3.828653  0  0  0.551454  0  4.126268  0  0  0.586543  0  4.116188  0  1.442857  0  0.22618  0.527547  0  4.132829  0
C  C67  1  0.14691696  0.19795604  0.53681611  1  0  0.599906  0  3.828553  0  0  0.551397  0  4.126225  0  0  0.586495  0  4.116141  0  1.442817  0  0.226172  0.52749  0  4.132786  0
C  C68  1  0.78232671  0.91472652  0.62454005  1  0  -0.073602  0  3.614263  0  0  -0.174719  0  3.881892  0  0  -0.166779  0  3.884573  0  0.327358  0  -0.1422  -0.179873  0  3.879874  0
C  C69  1  0.21766623  0.08527458  0.37545763  1  0  -0.073372  0  3.614058  0  0  -0.174505  0  3.881698  0  0  -0.166555  0  3.88437  0  0.327533  0  -0.142084  -0.179665  0  3.879684  0
C  C70  1  0.73843601  0.93629151  0.27040001  1  0  0.63417  0  3.806825  0  0  0.578658  0  4.11996  0  0  0.613037  0  4.107185  0  1.521885  0  0.243177  0.55522  0  4.127974  0
C  C71  1  0.26156051  0.06370854  0.72959768  1  0  0.634342  0  3.806599  0  0  0.57879  0  4.11982  0  0  0.613165  0  4.107053  0  1.52185  0  0.243193  0.555346  0  4.127837  0
C  C72  1  0.50555428  0.93651551  0.31534123  1  0  -0.072161  0  3.607759  0  0  -0.169604  0  3.872199  0  0  -0.161829  0  3.874682  0  0.309606  0  -0.140822  -0.174369  0  3.869929  0
C  C73  1  0.49444068  0.06348769  0.68465588  1  0  -0.072221  0  3.607734  0  0  -0.16949  0  3.872134  0  0  -0.161712  0  3.874618  0  0.309465  0  -0.140765  -0.174278  0  3.869851  0
C  C74  1  0.83525996  0.85202020  0.02657331  1  0  0.598567  0  3.825609  0  0  0.552896  0  4.120088  0  0  0.587616  0  4.110556  0  1.439065  0  0.226439  0.52928  0  4.126283  0
C  C75  1  0.16473806  0.14798301  0.97342477  1  0  0.598331  0  3.825933  0  0  0.552652  0  4.120412  0  0  0.587382  0  4.110862  0  1.438712  0  0.226293  0.529037  0  4.126603  0
C  C76  1  0.69063582  0.94561959  0.92897123  1  0  -0.064132  0  3.626903  0  0  -0.16369  0  3.889401  0  0  -0.15526  0  3.891256  0  0.391784  0  -0.140414  -0.16914  0  3.888219  0
C  C77  1  0.30936218  0.05438572  0.07102621  1  0  -0.06419  0  3.626848  0  0  -0.163786  0  3.889373  0  0  -0.155357  0  3.891233  0  0.391328  0  -0.140473  -0.169234  0  3.888189  0
C  C78  1  0.53978685  0.50248243  0.64930808  1  0  0.07361  0  3.63744  0  0  0.020615  0  3.910811  0  0  0.027265  0  3.916822  0  0.414713  0  -0.080855  0.016194  0  3.906634  0
C  C79  1  0.46021945  0.49750816  0.35069857  1  0  0.073554  0  3.637966  0  0  0.020603  0  3.911225  0  0  0.02727  0  3.917225  0  0.414546  0  -0.080787  0.016185  0  3.907041  0
C  C80  1  0.42474957  0.55980013  0.67945829  1  0  -0.147307  0  3.656986  0  0  -0.186913  0  3.910951  0  0  -0.189034  0  3.924857  0  -0.052675  0  -0.170509  -0.185351  0  3.90183  0
C  C81  1  0.57524659  0.44018414  0.32054733  1  0  -0.14722  0  3.65711  0  0  -0.186795  0  3.911089  0  0  -0.188917  0  3.924997  0  -0.052519  0  -0.170453  -0.18523  0  3.901965  0
C  C82  1  0.41887447  0.55813538  0.81456253  1  0  -0.145392  0  3.634536  0  0  -0.181965  0  3.881577  0  0  -0.18394  0  3.895351  0  -0.026087  0  -0.169727  -0.180338  0  3.87215  0
C  C83  1  0.58112927  0.44185626  0.18544326  1  0  -0.14544  0  3.634503  0  0  -0.182026  0  3.881591  0  0  -0.183995  0  3.895376  0  -0.026322  0  -0.169739  -0.180389  0  3.872167  0
C  C84  1  0.54658786  0.51932029  0.85161907  1  0  0.091126  0  3.601865  0  0  0.040368  0  3.869509  0  0  0.04709  0  3.876182  0  0.423588  0  -0.074081  0.035913  0  3.86461  0
C  C85  1  0.45341639  0.48067240  0.14839212  1  0  0.091173  0  3.601669  0  0  0.040199  0  3.869553  0  0  0.046918  0  3.876225  0  0.423436  0  -0.074148  0.035722  0  3.864685  0
O  O86  1  0.00192582  0.64663010  0.97228973  1  0  -0.567913  0  1.997378  0  0  -0.529775  0  2.224664  0  0  -0.549213  0  2.215095  0  -1.16285  0  -0.351953  -0.516257  0  2.23098  0
O  O87  1  0.99807214  0.35337942  0.02770904  1  0  -0.56788  0  1.997627  0  0  -0.529801  0  2.224806  0  0  -0.549266  0  2.215292  0  -1.162837  0  -0.351945  -0.516284  0  2.231124  0
O  O88  1  0.18071057  0.71835005  0.12947909  1  0  -0.30082  0  2.297048  0  0  -0.224505  0  2.538354  0  0  -0.246291  0  2.538476  0  -1.055236  0  -0.175075  -0.209714  0  2.538201  0
O  O89  1  0.81929201  0.28165631  0.87051687  1  0  -0.300689  0  2.297069  0  0  -0.224465  0  2.538331  0  0  -0.246251  0  2.538459  0  -1.0552  0  -0.175009  -0.209665  0  2.538172  0
O  O90  1  0.00506534  0.53237328  0.31939759  1  0  -0.575584  0  1.95466  0  0  -0.53837  0  2.180789  0  0  -0.558131  0  2.170243  0  -1.164071  0  -0.348288  -0.524798  0  2.188155  0
O  O91  1  0.99493476  0.46762572  0.68060187  1  0  -0.575532  0  1.954622  0  0  -0.538331  0  2.180674  0  0  -0.558105  0  2.170111  0  -1.164018  0  -0.348232  -0.524757  0  2.188037  0
O  O92  1  0.15204092  0.74658141  0.42617821  1  0  -0.283577  0  2.296704  0  0  -0.211651  0  2.54245  0  0  -0.232761  0  2.540759  0  -1.060202  0  -0.166728  -0.197412  0  2.54349  0
O  O93  1  0.84795765  0.25341864  0.57381605  1  0  -0.283349  0  2.296739  0  0  -0.211397  0  2.542447  0  0  -0.232511  0  2.540745  0  -1.060233  0  -0.166641  -0.197159  0  2.543485  0
O  O94  1  0.86690679  0.72318446  0.52924560  1  0  -0.590225  0  1.961362  0  0  -0.549681  0  2.191322  0  0  -0.569467  0  2.18193  0  -1.16627  0  -0.350722  -0.535932  0  2.197423  0
O  O95  1  0.13309779  0.27682611  0.47075264  1  0  -0.590256  0  1.961298  0  0  -0.549709  0  2.191312  0  0  -0.569496  0  2.181906  0  -1.166436  0  -0.350794  -0.535961  0  2.197416  0
O  O96  1  0.81067118  0.90426162  0.50163331  1  0  -0.284183  0  2.299601  0  0  -0.205645  0  2.537964  0  0  -0.226349  0  2.536439  0  -1.053789  0  -0.171957  -0.191423  0  2.538576  0
O  O97  1  0.18931566  0.09573738  0.49836394  1  0  -0.284169  0  2.299405  0  0  -0.205641  0  2.53782  0  0  -0.22635  0  2.536297  0  -1.053765  0  -0.17196  -0.191416  0  2.538433  0
O  O98  1  0.79362713  0.06432796  0.27397405  1  0  -0.565593  0  1.942351  0  0  -0.531463  0  2.16625  0  0  -0.551544  0  2.156373  0  -1.153572  0  -0.335366  -0.517092  0  2.172488  0
O  O99  1  0.20637193  0.93567315  0.72602998  1  0  -0.56567  0  1.942248  0  0  -0.531531  0  2.166184  0  0  -0.551611  0  2.156311  0  -1.153562  0  -0.33541  -0.517159  0  2.172425  0
O  O100  1  0.59126824  0.85764649  0.28726298  1  0  -0.288256  0  2.289179  0  0  -0.219028  0  2.539672  0  0  -0.239828  0  2.53747  0  -1.048209  0  -0.172156  -0.204613  0  2.540646  0
O  O101  1  0.40872724  0.14235567  0.71273316  1  0  -0.288289  0  2.289264  0  0  -0.219099  0  2.539765  0  0  -0.239903  0  2.537563  0  -1.048114  0  -0.17211  -0.204675  0  2.540738  0
O  O102  1  0.89823237  0.85184773  0.93546658  1  0  -0.574931  0  1.990451  0  0  -0.537925  0  2.224367  0  0  -0.558159  0  2.216379  0  -1.168711  0  -0.351915  -0.523887  0  2.229402  0
O  O103  1  0.10176259  0.14815548  0.06452877  1  0  -0.574806  0  1.99053  0  0  -0.537793  0  2.224418  0  0  -0.558035  0  2.216427  0  -1.16865  0  -0.351803  -0.523758  0  2.22945  0
O  O104  1  0.71759845  0.88907589  0.03102575  1  0  -0.305237  0  2.299921  0  0  -0.226546  0  2.539858  0  0  -0.247156  0  2.538065  0  -1.053224  0  -0.180079  -0.212392  0  2.540689  0
O  O105  1  0.28239854  0.11092942  0.96897341  1  0  -0.305139  0  2.29998  0  0  -0.226384  0  2.539874  0  0  -0.246988  0  2.538071  0  -1.053058  0  -0.180003  -0.21223  0  2.540701  0
O  O106  1  0.64171842  0.54152468  0.75565742  1  0  -0.362822  0  2.189423  0  0  -0.299478  0  2.444484  0  0  -0.314238  0  2.442895  0  -1.040831  0  -0.299017  -0.288712  0  2.445286  0
O  O107  1  0.35828684  0.45846801  0.24435380  1  0  -0.362935  0  2.189631  0  0  -0.299481  0  2.4447  0  0  -0.314242  0  2.443104  0  -1.04075  0  -0.298985  -0.28871  0  2.445508  0
