# generated using pymatgen
data_ZnH18C12S2(NO4)2
_symmetry_space_group_name_H-M   'P 1'
_cell_length_a   9.72370659
_cell_length_b   9.83862349
_cell_length_c   10.13989792
_cell_angle_alpha   69.41363211
_cell_angle_beta   69.06299974
_cell_angle_gamma   86.97501960
_symmetry_Int_Tables_number   1
_chemical_formula_structural   ZnH18C12S2(NO4)2
_chemical_formula_sum   'Zn2 H36 C24 S4 N4 O16'
_cell_volume   845.20671183
_cell_formula_units_Z   2
loop_
 _symmetry_equiv_pos_site_id
 _symmetry_equiv_pos_as_xyz
  1  'x, y, z'
loop_
 _atom_site_type_symbol
 _atom_site_label
 _atom_site_symmetry_multiplicity
 _atom_site_fract_x
 _atom_site_fract_y
 _atom_site_fract_z
 _atom_site_occupancy
 _atom_site_hle17_bader_spin_density
 _atom_site_hle17_ddec_charge
 _atom_site_hle17_ddec_spin_density
 _atom_site_hle17_ddec_sum_bond_order
 _atom_site_hle17_magmom
 _atom_site_hse06_10hf_bader_spin_density
 _atom_site_hse06_10hf_ddec_charge
 _atom_site_hse06_10hf_ddec_spin_density
 _atom_site_hse06_10hf_ddec_sum_bond_order
 _atom_site_hse06_10hf_magmom
 _atom_site_hse06_bader_spin_density
 _atom_site_hse06_ddec_charge
 _atom_site_hse06_ddec_spin_density
 _atom_site_hse06_ddec_sum_bond_order
 _atom_site_hse06_magmom
 _atom_site_pbe_bader_spin_density
 _atom_site_pbe_cm5_charge
 _atom_site_pbe_ddec_charge
 _atom_site_pbe_ddec_spin_density
 _atom_site_pbe_ddec_sum_bond_order
 _atom_site_pbe_magmom
Zn  Zn0  1  0.50000095  0.50000057  0.49999944  1  0  1.27018  0  1.674485  0  0  1.116319  0  2.12991  0  0  1.161207  0  2.068855  0  0  0.721448  1.083454  0  2.173263  0
Zn  Zn1  1  0.49999984  0.50000058  0.00000014  1  0  1.250747  0  1.689156  0  0  1.10041  0  2.14078  0  0  1.144931  0  2.081565  0  0  0.713104  1.068628  0  2.182046  0
H  H2  1  0.85349412  0.43817945  0.27427372  1  0  0.112705  0  0.969752  0  0  0.118293  0  1.036794  0  0  0.121786  0  1.035321  0  0  0.106548  0.115259  0  1.039222  0
H  H3  1  0.14650667  0.56182168  0.72572456  1  0  0.112688  0  0.969753  0  0  0.118275  0  1.036804  0  0  0.121771  0  1.035331  0  0  0.106552  0.115243  0  1.039231  0
H  H4  1  0.90962528  0.67722989  0.80954389  1  0  0.106596  0  0.942377  0  0  0.115279  0  1.004721  0  0  0.118671  0  1.002926  0  0  0.108076  0.112701  0  1.006551  0
H  H5  1  0.09037332  0.32277123  0.19045516  1  0  0.106581  0  0.9423  0  0  0.115265  0  1.004656  0  0  0.118659  0  1.00286  0  0  0.10806  0.112688  0  1.006485  0
H  H6  1  0.42801390  0.74634197  0.23778804  1  0  0.051974  0  0.937905  0  0  0.05764  0  1.012298  0  0  0.060059  0  1.006475  0  0  0.125959  0.055806  0  1.016261  0
H  H7  1  0.57198545  0.25365481  0.76221421  1  0  0.05194  0  0.937951  0  0  0.0576  0  1.012351  0  0  0.06002  0  1.006527  0  0  0.125952  0.055763  0  1.016312  0
H  H8  1  0.34744890  0.93527635  0.10474738  1  0  0.106069  0  0.9289  0  0  0.128288  0  0.987521  0  0  0.129026  0  0.987409  0  0  0.110189  0.127508  0  0.988017  0
H  H9  1  0.65255173  0.06472261  0.89525368  1  0  0.106062  0  0.928911  0  0  0.128277  0  0.987533  0  0  0.129015  0  0.987421  0  0  0.110182  0.127496  0  0.988032  0
H  H10  1  0.28766597  0.07065657  0.18888755  1  0  0.11898  0  0.946006  0  0  0.134666  0  1.013943  0  0  0.135889  0  1.013285  0  0  0.105762  0.1337  0  1.014497  0
H  H11  1  0.71233466  0.92934239  0.81111350  1  0  0.118956  0  0.946032  0  0  0.134638  0  1.013972  0  0  0.135861  0  1.013314  0  0  0.105735  0.133668  0  1.014528  0
H  H12  1  0.15528574  0.95265762  0.18846107  1  0  0.098116  0  0.932497  0  0  0.11952  0  0.994285  0  0  0.120211  0  0.994282  0  0  0.103595  0.118906  0  0.994415  0
H  H13  1  0.84471481  0.04734025  0.81154039  1  0  0.098127  0  0.932468  0  0  0.119536  0  0.994247  0  0  0.120228  0  0.994244  0  0  0.103602  0.11892  0  0.994381  0
H  H14  1  0.15516685  0.98276565  0.46774353  1  0  0.119138  0  0.963453  0  0  0.139922  0  1.024272  0  0  0.141065  0  1.023588  0  0  0.107845  0.138736  0  1.025218  0
H  H15  1  0.84483378  0.01723331  0.53225655  1  0  0.119138  0  0.963424  0  0  0.139918  0  1.024253  0  0  0.14106  0  1.023568  0  0  0.107838  0.138735  0  1.025195  0
H  H16  1  0.18591818  0.80288125  0.57490648  1  0  0.112953  0  0.948141  0  0  0.133063  0  1.008138  0  0  0.13433  0  1.00757  0  0  0.110381  0.131823  0  1.009046  0
H  H17  1  0.81408126  0.19711661  0.42509438  1  0  0.112954  0  0.948166  0  0  0.133063  0  1.008161  0  0  0.134331  0  1.007594  0  0  0.110376  0.131823  0  1.00907  0
H  H18  1  0.04355718  0.82740815  0.49742366  1  0  0.10131  0  0.954615  0  0  0.119458  0  1.023407  0  0  0.119232  0  1.024731  0  0  0.100425  0.119351  0  1.022555  0
H  H19  1  0.95644354  0.17259190  0.50257601  1  0  0.10132  0  0.954597  0  0  0.119474  0  1.023384  0  0  0.119247  0  1.024707  0  0  0.100438  0.119368  0  1.022534  0
H  H20  1  0.83760073  0.40521672  0.77221849  1  0  0.115288  0  0.961577  0  0  0.121048  0  1.028389  0  0  0.124817  0  1.026438  0  0  0.108084  0.117802  0  1.031181  0
H  H21  1  0.16240118  0.59478442  0.22778039  1  0  0.115292  0  0.961575  0  0  0.12103  0  1.02841  0  0  0.124799  0  1.02646  0  0  0.108069  0.117788  0  1.031208  0
H  H22  1  0.92585669  0.70774380  0.31862567  1  0  0.109788  0  0.926929  0  0  0.121591  0  0.983362  0  0  0.125198  0  0.981195  0  0  0.112354  0.11897  0  0.985281  0
H  H23  1  0.07414410  0.29225733  0.68137162  1  0  0.109793  0  0.926963  0  0  0.121597  0  0.983396  0  0  0.125204  0  0.981229  0  0  0.112352  0.118966  0  0.985312  0
H  H24  1  0.49092428  0.20011740  0.22966426  1  0  0.047194  0  0.961162  0  0  0.054476  0  1.033736  0  0  0.056565  0  1.028325  0  0  0.122978  0.052858  0  1.037564  0
H  H25  1  0.50907423  0.79988265  0.77033716  1  0  0.047163  0  0.961138  0  0  0.054465  0  1.033703  0  0  0.056555  0  1.02829  0  0  0.122979  0.05285  0  1.037529  0
H  H26  1  0.87084094  0.04054077  0.04537795  1  0  0.10868  0  0.948726  0  0  0.130276  0  1.010635  0  0  0.130899  0  1.010488  0  0  0.107238  0.129563  0  1.011272  0
H  H27  1  0.12915867  0.95945927  0.95462112  1  0  0.108685  0  0.948732  0  0  0.130283  0  1.010638  0  0  0.130904  0  1.010493  0  0  0.10724  0.129569  0  1.011273  0
H  H28  1  0.91875867  0.12567362  0.15389246  1  0  0.094948  0  0.939007  0  0  0.116638  0  1.001939  0  0  0.116697  0  1.002502  0  0  0.102523  0.116501  0  1.001561  0
H  H29  1  0.08124085  0.87432533  0.84610800  1  0  0.094925  0  0.939052  0  0  0.116618  0  1.001978  0  0  0.116676  0  1.00254  0  0  0.102517  0.11648  0  1.001603  0
H  H30  1  0.87764708  0.23601859  0.99324447  1  0  0.112125  0  0.953013  0  0  0.1312  0  1.01642  0  0  0.131664  0  1.017399  0  0  0.109579  0.130669  0  1.01602  0
H  H31  1  0.12235355  0.76398037  0.00675560  1  0  0.112129  0  0.952995  0  0  0.131203  0  1.016407  0  0  0.131665  0  1.017388  0  0  0.109577  0.130672  0  1.01601  0
H  H32  1  0.51878955  0.98888612  0.36898275  1  0  0.10275  0  0.942684  0  0  0.123513  0  1.004931  0  0  0.123993  0  1.005495  0  0  0.108031  0.122914  0  1.004755  0
H  H33  1  0.48120998  0.01111284  0.63101869  1  0  0.102749  0  0.942713  0  0  0.123516  0  1.004948  0  0  0.123995  0  1.005514  0  0  0.108031  0.12292  0  1.004772  0
H  H34  1  0.69397882  0.97292343  0.39070753  1  0  0.102576  0  0.951108  0  0  0.119568  0  1.019827  0  0  0.120704  0  1.019349  0  0  0.10013  0.118507  0  1.020335  0
H  H35  1  0.30602062  0.02707443  0.60929333  1  0  0.102592  0  0.95112  0  0  0.119564  0  1.019855  0  0  0.120707  0  1.019372  0  0  0.100115  0.118508  0  1.02036  0
H  H36  1  0.65660835  0.89186531  0.27437918  1  0  0.121667  0  0.964849  0  0  0.137615  0  1.030527  0  0  0.139137  0  1.029726  0  0  0.103249  0.1364  0  1.031057  0
H  H37  1  0.34339117  0.10813364  0.72562029  1  0  0.121672  0  0.964866  0  0  0.137623  0  1.030537  0  0  0.139144  0  1.029738  0  0  0.103254  0.136407  0  1.031068  0
C  C38  1  0.87081216  0.56448946  0.04657949  1  0  -0.102579  0  3.732141  0  0  -0.077682  0  3.976049  0  0  -0.082203  0  3.99584  0  0  -0.014175  -0.075206  0  3.962412  0
C  C39  1  0.12918744  0.43551057  0.95341859  1  0  -0.102618  0  3.732105  0  0  -0.077744  0  3.976062  0  0  -0.082267  0  3.995852  0  0  -0.014187  -0.075269  0  3.962429  0
C  C40  1  0.91890281  0.46431981  0.15478898  1  0  -0.07  0  3.723218  0  0  -0.093842  0  3.973692  0  0  -0.094645  0  3.993219  0  0  -0.084311  -0.092881  0  3.961912  0
C  C41  1  0.08109578  0.53568132  0.84521007  1  0  -0.069925  0  3.723248  0  0  -0.093769  0  3.973743  0  0  -0.094573  0  3.993268  0  0  -0.084293  -0.092806  0  3.961965  0
C  C42  1  0.95050616  0.60050260  0.89208515  1  0  -0.061498  0  3.7303  0  0  -0.085509  0  3.984256  0  0  -0.085541  0  4.002702  0  0  -0.080998  -0.085142  0  3.972255  0
C  C43  1  0.04949235  0.39949743  0.10791430  1  0  -0.061425  0  3.730128  0  0  -0.085439  0  3.984106  0  0  -0.085471  0  4.002551  0  0  -0.080968  -0.085069  0  3.972104  0
C  C44  1  0.35189753  0.74709448  0.34807912  1  0  0.39902  0  3.78749  0  0  0.321434  0  4.077827  0  0  0.349265  0  4.079594  0  0  0.179727  0.302936  0  4.075392  0
C  C45  1  0.64810208  0.25290557  0.65192191  1  0  0.399034  0  3.787478  0  0  0.321451  0  4.077827  0  0  0.349283  0  4.079591  0  0  0.179746  0.302963  0  4.075385  0
C  C46  1  0.26360983  0.95924957  0.19805504  1  0  -0.172682  0  3.652838  0  0  -0.276164  0  3.904602  0  0  -0.27272  0  3.91537  0  0  -0.13041  -0.278279  0  3.897536  0
C  C47  1  0.73639080  0.04074940  0.80194601  1  0  -0.172679  0  3.652819  0  0  -0.276149  0  3.904555  0  0  -0.272711  0  3.915335  0  0  -0.130384  -0.278262  0  3.897495  0
C  C48  1  0.15481950  0.86780776  0.47906474  1  0  -0.184186  0  3.61787  0  0  -0.282729  0  3.854981  0  0  -0.279407  0  3.865144  0  0  -0.13931  -0.284536  0  3.848506  0
C  C49  1  0.84518122  0.13219229  0.52093592  1  0  -0.184223  0  3.617899  0  0  -0.282764  0  3.855008  0  0  -0.279442  0  3.865171  0  0  -0.139307  -0.284577  0  3.848535  0
C  C50  1  0.87077366  0.56269141  0.55068915  1  0  -0.111653  0  3.736603  0  0  -0.087394  0  3.983075  0  0  -0.092284  0  4.003485  0  0  -0.014853  -0.084797  0  3.969335  0
C  C51  1  0.12922823  0.43730973  0.44930875  1  0  -0.111653  0  3.736592  0  0  -0.087385  0  3.983039  0  0  -0.092274  0  4.00345  0  0  -0.014871  -0.084794  0  3.969312  0
C  C52  1  0.90949441  0.44504407  0.65348136  1  0  -0.067913  0  3.730797  0  0  -0.091589  0  3.982669  0  0  -0.092578  0  4.002449  0  0  -0.082969  -0.090523  0  3.970541  0
C  C53  1  0.09050749  0.55495707  0.34651654  1  0  -0.067937  0  3.73074  0  0  -0.091592  0  3.982595  0  0  -0.092579  0  4.002375  0  0  -0.082945  -0.090532  0  3.970491  0
C  C54  1  0.95992180  0.61807890  0.39755493  1  0  -0.054412  0  3.72023  0  0  -0.079719  0  3.974723  0  0  -0.079124  0  3.992134  0  0  -0.079322  -0.079762  0  3.963306  0
C  C55  1  0.04007908  0.38192333  0.60244295  1  0  -0.054425  0  3.72032  0  0  -0.079736  0  3.974815  0  0  -0.07914  0  3.992225  0  0  -0.079297  -0.079766  0  3.96338  0
C  C56  1  0.60633245  0.22535360  0.15015425  1  0  0.396128  0  3.779278  0  0  0.322279  0  4.058694  0  0  0.351012  0  4.058927  0  0  0.17611  0.30301  0  4.057597  0
C  C57  1  0.39366598  0.77464536  0.84984758  1  0  0.396177  0  3.779291  0  0  0.322296  0  4.058724  0  0  0.351027  0  4.058958  0  0  0.176106  0.303028  0  4.057622  0
C  C58  1  0.84969692  0.13141984  0.08709387  1  0  -0.171704  0  3.643325  0  0  -0.274782  0  3.888318  0  0  -0.271014  0  3.898981  0  0  -0.133264  -0.277068  0  3.88147  0
C  C59  1  0.15030159  0.86858020  0.91290558  1  0  -0.171684  0  3.643303  0  0  -0.274774  0  3.888314  0  0  -0.271005  0  3.898977  0  0  -0.133262  -0.277055  0  3.881467  0
C  C60  1  0.63734607  0.98568471  0.31126991  1  0  -0.185779  0  3.642723  0  0  -0.287871  0  3.892041  0  0  -0.284921  0  3.902313  0  0  -0.140829  -0.289452  0  3.885072  0
C  C61  1  0.36265354  0.01431533  0.68873014  1  0  -0.185794  0  3.642796  0  0  -0.287875  0  3.892102  0  0  -0.28493  0  3.902369  0  0  -0.140812  -0.289458  0  3.885131  0
S  S62  1  0.71147970  0.65647401  0.10697620  1  0  1.322036  0  5.62884  0  0  1.221899  0  6.147252  0  0  1.270242  0  6.122736  0  0  0.519348  1.188658  0  6.162629  0
S  S63  1  0.28852119  0.34352822  0.89302266  1  0  1.322091  0  5.628891  0  0  1.221953  0  6.147327  0  0  1.270301  0  6.1228  0  0  0.519357  1.188709  0  6.162708  0
S  S64  1  0.70732151  0.64706057  0.61681513  1  0  1.325335  0  5.630264  0  0  1.224423  0  6.147755  0  0  1.272409  0  6.124247  0  0  0.524099  1.191475  0  6.162324  0
S  S65  1  0.29267929  0.35294057  0.38318414  1  0  1.325401  0  5.630184  0  0  1.224498  0  6.147654  0  0  1.27248  0  6.124146  0  0  0.524124  1.191552  0  6.162225  0
N  N66  1  0.26246805  0.85458513  0.34180285  1  0  -0.082313  0  3.515322  0  0  0.02335  0  3.747928  0  0  0.002749  0  3.774899  0  0  -0.278902  0.036989  0  3.729206  0
N  N67  1  0.73753368  0.14541383  0.65819685  1  0  -0.082279  0  3.515289  0  0  0.023376  0  3.74789  0  0  0.002775  0  3.77486  0  0  -0.27893  0.037011  0  3.729166  0
N  N68  1  0.69421413  0.11984132  0.18076496  1  0  -0.074823  0  3.503481  0  0  0.031224  0  3.733743  0  0  0.011351  0  3.759015  0  0  -0.277948  0.044209  0  3.716751  0
N  N69  1  0.30578548  0.88015872  0.81923509  1  0  -0.07482  0  3.503379  0  0  0.031231  0  3.733648  0  0  0.011357  0  3.758921  0  0  -0.277939  0.044216  0  3.716656  0
O  O70  1  0.63002693  0.56507845  0.26470661  1  0  -0.697085  0  2.125839  0  0  -0.63468  0  2.418965  0  0  -0.656936  0  2.399998  0  0  -0.334861  -0.619092  0  2.432024  0
O  O71  1  0.36997269  0.43492159  0.73529344  1  0  -0.69706  0  2.12587  0  0  -0.634659  0  2.419001  0  0  -0.656915  0  2.400029  0  0  -0.334848  -0.619067  0  2.432054  0
O  O72  1  0.62815802  0.66619803  0.00697837  1  0  -0.703854  0  2.054025  0  0  -0.64519  0  2.342088  0  0  -0.668336  0  2.324171  0  0  -0.339143  -0.628508  0  2.353441  0
O  O73  1  0.37184168  0.33380310  0.99302128  1  0  -0.703884  0  2.054037  0  0  -0.645214  0  2.342101  0  0  -0.668363  0  2.324181  0  0  -0.339124  -0.628535  0  2.353458  0
O  O74  1  0.76563923  0.80084651  0.08662360  1  0  -0.654897  0  1.921785  0  0  -0.606133  0  2.165956  0  0  -0.627614  0  2.15425  0  0  -0.338669  -0.590781  0  2.173487  0
O  O75  1  0.23436149  0.19915354  0.91337607  1  0  -0.654935  0  1.921762  0  0  -0.606171  0  2.165933  0  0  -0.627651  0  2.154225  0  0  -0.338709  -0.590816  0  2.173465  0
O  O76  1  0.35028313  0.65241187  0.47064246  1  0  -0.551224  0  2.150677  0  0  -0.485929  0  2.425181  0  0  -0.512574  0  2.417123  0  0  -0.296434  -0.466928  0  2.429777  0
O  O77  1  0.64971759  0.34758819  0.52935917  1  0  -0.551199  0  2.150658  0  0  -0.485904  0  2.425156  0  0  -0.512547  0  2.417098  0  0  -0.296426  -0.466908  0  2.429751  0
O  O78  1  0.62642034  0.66172175  0.51430621  1  0  -0.689254  0  2.0648  0  0  -0.626012  0  2.345445  0  0  -0.649626  0  2.329205  0  0  -0.330332  -0.608852  0  2.355191  0
O  O79  1  0.37358038  0.33827830  0.48569444  1  0  -0.689276  0  2.064808  0  0  -0.626046  0  2.345457  0  0  -0.649659  0  2.32922  0  0  -0.330336  -0.608881  0  2.355196  0
O  O80  1  0.62788633  0.54551705  0.77076514  1  0  -0.699334  0  2.152159  0  0  -0.634324  0  2.445537  0  0  -0.657497  0  2.42794  0  0  -0.333609  -0.618162  0  2.457411  0
O  O81  1  0.37211328  0.45448300  0.22923491  1  0  -0.699357  0  2.152159  0  0  -0.634351  0  2.445529  0  0  -0.657521  0  2.427928  0  0  -0.333624  -0.618189  0  2.457403  0
O  O82  1  0.75462191  0.78933099  0.60882728  1  0  -0.660315  0  1.937871  0  0  -0.617027  0  2.190045  0  0  -0.637425  0  2.176465  0  0  -0.339121  -0.602133  0  2.199183  0
O  O83  1  0.24537880  0.21066906  0.39117239  1  0  -0.660339  0  1.937827  0  0  -0.617036  0  2.189978  0  0  -0.637437  0  2.176406  0  0  -0.339114  -0.602144  0  2.199117  0
O  O84  1  0.64820288  0.34446656  0.04010286  1  0  -0.550353  0  2.13248  0  0  -0.488476  0  2.404453  0  0  -0.515617  0  2.397036  0  0  -0.300072  -0.469213  0  2.408557  0
O  O85  1  0.35179453  0.65553348  0.95989992  1  0  -0.550402  0  2.132569  0  0  -0.488485  0  2.404502  0  0  -0.515625  0  2.397093  0  0  -0.300076  -0.469232  0  2.408633  0
