# generated using pymatgen
data_NdH2C4N3O5
_symmetry_space_group_name_H-M   'P 1'
_cell_length_a   8.64019042
_cell_length_b   8.64013621
_cell_length_c   9.94840246
_cell_angle_alpha   90.00088299
_cell_angle_beta   89.99898887
_cell_angle_gamma   120.00260763
_symmetry_Int_Tables_number   1
_chemical_formula_structural   NdH2C4N3O5
_chemical_formula_sum   'Nd3 H6 C12 N9 O15'
_cell_volume   643.15621133
_cell_formula_units_Z   3
loop_
 _symmetry_equiv_pos_site_id
 _symmetry_equiv_pos_as_xyz
  1  'x, y, z'
loop_
 _atom_site_type_symbol
 _atom_site_label
 _atom_site_symmetry_multiplicity
 _atom_site_fract_x
 _atom_site_fract_y
 _atom_site_fract_z
 _atom_site_occupancy
 _atom_site_hle17_bader_spin_density
 _atom_site_hle17_ddec_charge
 _atom_site_hle17_ddec_spin_density
 _atom_site_hle17_ddec_sum_bond_order
 _atom_site_hle17_magmom
 _atom_site_hse06_10hf_bader_spin_density
 _atom_site_hse06_10hf_ddec_charge
 _atom_site_hse06_10hf_ddec_spin_density
 _atom_site_hse06_10hf_ddec_sum_bond_order
 _atom_site_hse06_10hf_magmom
 _atom_site_hse06_bader_spin_density
 _atom_site_hse06_ddec_charge
 _atom_site_hse06_ddec_spin_density
 _atom_site_hse06_ddec_sum_bond_order
 _atom_site_hse06_magmom
 _atom_site_pbe_bader_spin_density
 _atom_site_pbe_cm5_charge
 _atom_site_pbe_ddec_charge
 _atom_site_pbe_ddec_spin_density
 _atom_site_pbe_ddec_sum_bond_order
 _atom_site_pbe_magmom
Nd  Nd0  1  0.78216877  0.99997398  0.66663132  1  0  2.168573  0  1.793887  0  0  1.958648  0  2.322443  0  0  2.004205  0  2.274053  0  0  1.544086  1.923714  0  2.359917  0
Nd  Nd1  1  0.99997447  0.78217331  0.33336563  1  0  2.168586  0  1.793831  0  0  1.958683  0  2.32233  0  0  2.004236  0  2.273942  0  0  1.544105  1.923759  0  2.359793  0
Nd  Nd2  1  0.21779123  0.21778947  0.00000179  1  0  2.16797  0  1.793989  0  0  1.957285  0  2.323716  0  0  2.002841  0  2.275353  0  0  1.544019  1.922808  0  2.360389  0
H  H3  1  0.09052256  0.36338695  0.79354422  1  0  0.47417  0  0.765022  0  0  0.450913  0  0.821258  0  0  0.461123  0  0.809416  0  0  0.352116  0.443535  0  0.829835  0
H  H4  1  0.63659316  0.72709859  0.46024773  1  0  0.474432  0  0.764066  0  0  0.450993  0  0.820729  0  0  0.461209  0  0.808852  0  0  0.352155  0.443583  0  0.82938  0
H  H5  1  0.27277491  0.90946367  0.12699624  1  0  0.474309  0  0.764227  0  0  0.450988  0  0.820671  0  0  0.461197  0  0.80881  0  0  0.351928  0.443593  0  0.829314  0
H  H6  1  0.72708162  0.63659722  0.53974563  1  0  0.474528  0  0.763967  0  0  0.451091  0  0.820611  0  0  0.461308  0  0.808736  0  0  0.3522  0.44368  0  0.829263  0
H  H7  1  0.90947436  0.27278447  0.87300132  1  0  0.474316  0  0.764212  0  0  0.451  0  0.820651  0  0  0.461209  0  0.808788  0  0  0.351904  0.443606  0  0.829293  0
H  H8  1  0.36339157  0.09051366  0.20645005  1  0  0.474207  0  0.765061  0  0  0.450946  0  0.821292  0  0  0.461157  0  0.809452  0  0  0.352132  0.443571  0  0.829862  0
C  C9  1  0.39061005  0.90677504  0.49776138  1  0  0.714367  0  3.885914  0  0  0.667582  0  4.180377  0  0  0.703485  0  4.167377  0  0  0.239863  0.643165  0  4.188448  0
C  C10  1  0.09325570  0.48389476  0.16441787  1  0  0.716955  0  3.883173  0  0  0.669016  0  4.179558  0  0  0.705048  0  4.166296  0  0  0.239851  0.644511  0  4.187802  0
C  C11  1  0.51614094  0.60936214  0.83109636  1  0  0.716637  0  3.882252  0  0  0.668617  0  4.1789  0  0  0.704653  0  4.165723  0  0  0.240138  0.644108  0  4.187092  0
C  C12  1  0.48388119  0.09324649  0.83557729  1  0  0.717279  0  3.882988  0  0  0.669178  0  4.179624  0  0  0.70521  0  4.166363  0  0  0.239935  0.644673  0  4.187869  0
C  C13  1  0.60936494  0.51613168  0.16890528  1  0  0.716536  0  3.882244  0  0  0.668583  0  4.178775  0  0  0.704619  0  4.165599  0  0  0.240089  0.644076  0  4.186964  0
C  C14  1  0.90677572  0.39061677  0.50223808  1  0  0.714297  0  3.88587  0  0  0.667566  0  4.180265  0  0  0.703461  0  4.167267  0  0  0.239862  0.643149  0  4.188335  0
C  C15  1  0.30364512  0.96389973  0.60113179  1  0  0.00412  0  3.683781  0  0  -0.001206  0  3.93872  0  0  -0.003597  0  3.956065  0  0  0.106295  0.000198  0  3.92709  0
C  C16  1  0.03617137  0.33979592  0.26779273  1  0  0.002808  0  3.682888  0  0  -0.002528  0  3.93853  0  0  -0.004952  0  3.955829  0  0  0.106052  -0.001071  0  3.926922  0
C  C17  1  0.66020668  0.69639544  0.93448128  1  0  0.002826  0  3.682747  0  0  -0.0024  0  3.938381  0  0  -0.004868  0  3.955813  0  0  0.105838  -0.000917  0  3.926655  0
C  C18  1  0.33978406  0.03616437  0.73220664  1  0  0.002953  0  3.682822  0  0  -0.00236  0  3.938525  0  0  -0.00478  0  3.955824  0  0  0.106118  -0.000905  0  3.926921  0
C  C19  1  0.69639569  0.66020119  0.06552114  1  0  0.002886  0  3.682713  0  0  -0.002362  0  3.938323  0  0  -0.004827  0  3.955754  0  0  0.105851  -0.00088  0  3.926599  0
C  C20  1  0.96390183  0.30364912  0.39886769  1  0  0.004173  0  3.683693  0  0  -0.001199  0  3.938663  0  0  -0.003584  0  3.956004  0  0  0.106253  0.000205  0  3.927029  0
N  N21  1  0.08310553  0.00003983  0.66668127  1  0  -0.163741  0  3.236149  0  0  -0.134549  0  3.540132  0  0  -0.138372  0  3.555584  0  0  -0.17665  -0.131517  0  3.529101  0
N  N22  1  0.00004126  0.08311060  0.33331940  1  0  -0.163657  0  3.236154  0  0  -0.134463  0  3.540128  0  0  -0.138286  0  3.555581  0  0  -0.176603  -0.131435  0  3.529099  0
N  N23  1  0.91691869  0.91691985  0.00000109  1  0  -0.162303  0  3.23609  0  0  -0.132694  0  3.539499  0  0  -0.13653  0  3.554958  0  0  -0.17726  -0.129722  0  3.528463  0
N  N24  1  0.14312161  0.94433256  0.56537741  1  0  -0.32134  0  3.211414  0  0  -0.287468  0  3.497031  0  0  -0.294775  0  3.514002  0  0  -0.269598  -0.281922  0  3.485164  0
N  N25  1  0.05575590  0.19885612  0.23202710  1  0  -0.320511  0  3.211306  0  0  -0.286288  0  3.496632  0  0  -0.293605  0  3.513628  0  0  -0.268988  -0.280799  0  3.48475  0
N  N26  1  0.80115884  0.85691959  0.89871974  1  0  -0.32125  0  3.212572  0  0  -0.287291  0  3.498071  0  0  -0.29457  0  3.515062  0  0  -0.268669  -0.281769  0  3.486216  0
N  N27  1  0.19884958  0.05575237  0.76797340  1  0  -0.320535  0  3.211297  0  0  -0.286302  0  3.496624  0  0  -0.29362  0  3.513621  0  0  -0.26898  -0.280812  0  3.48474  0
N  N28  1  0.85691748  0.80115759  0.10128236  1  0  -0.32129  0  3.212514  0  0  -0.287335  0  3.498022  0  0  -0.294614  0  3.515011  0  0  -0.268672  -0.281815  0  3.486168  0
N  N29  1  0.94433272  0.14312560  0.43462326  1  0  -0.321346  0  3.211438  0  0  -0.287465  0  3.497067  0  0  -0.294775  0  3.514037  0  0  -0.269606  -0.281918  0  3.485199  0
O  O30  1  0.00000827  0.24977412  0.83323395  1  0  -0.915697  0  1.949644  0  0  -0.861392  0  2.173714  0  0  -0.880053  0  2.145994  0  0  -0.610945  -0.847772  0  2.193045  0
O  O31  1  0.75016714  0.75017258  0.49999410  1  0  -0.916449  0  1.94935  0  0  -0.861556  0  2.172243  0  0  -0.88023  0  2.144601  0  0  -0.611152  -0.847848  0  2.191518  0
O  O32  1  0.24977639  0.00000685  0.16676053  1  0  -0.915727  0  1.949698  0  0  -0.861414  0  2.173758  0  0  -0.880082  0  2.146037  0  0  -0.611006  -0.847797  0  2.19309  0
O  O33  1  0.30178133  0.83996209  0.39069920  1  0  -0.700621  0  2.002637  0  0  -0.650794  0  2.243391  0  0  -0.674326  0  2.230527  0  0  -0.390612  -0.634176  0  2.251855  0
O  O34  1  0.16009145  0.46192306  0.05735278  1  0  -0.701727  0  2.002076  0  0  -0.651401  0  2.243441  0  0  -0.674973  0  2.23047  0  0  -0.390502  -0.634812  0  2.251952  0
O  O35  1  0.53810896  0.69813782  0.72401024  1  0  -0.701597  0  2.00131  0  0  -0.651339  0  2.242683  0  0  -0.674906  0  2.22974  0  0  -0.390682  -0.63469  0  2.251187  0
O  O36  1  0.46192082  0.16008307  0.94264534  1  0  -0.701897  0  2.002068  0  0  -0.651513  0  2.243509  0  0  -0.675084  0  2.230539  0  0  -0.390565  -0.634924  0  2.252019  0
O  O37  1  0.69814522  0.53809141  0.27598726  1  0  -0.70153  0  2.001251  0  0  -0.651296  0  2.24257  0  0  -0.674863  0  2.229631  0  0  -0.390658  -0.634651  0  2.251072  0
O  O38  1  0.83995241  0.30178371  0.60929639  1  0  -0.700557  0  2.002627  0  0  -0.65074  0  2.243353  0  0  -0.674271  0  2.230493  0  0  -0.390571  -0.634121  0  2.251815  0
O  O39  1  0.54476050  0.92681941  0.51684681  1  0  -0.715218  0  2.061406  0  0  -0.660345  0  2.31663  0  0  -0.684762  0  2.301841  0  0  -0.416376  -0.642992  0  2.326427  0
O  O40  1  0.07313321  0.61795106  0.18353355  1  0  -0.71657  0  2.061157  0  0  -0.6612  0  2.316952  0  0  -0.685666  0  2.302081  0  0  -0.416582  -0.643818  0  2.326799  0
O  O41  1  0.38206127  0.45521582  0.85023411  1  0  -0.715682  0  2.060977  0  0  -0.660215  0  2.316841  0  0  -0.684674  0  2.302003  0  0  -0.41654  -0.642914  0  2.326638  0
O  O42  1  0.61793634  0.07312332  0.81646250  1  0  -0.716762  0  2.061109  0  0  -0.661347  0  2.317002  0  0  -0.685815  0  2.302132  0  0  -0.416656  -0.643962  0  2.32685  0
O  O43  1  0.45521441  0.38205194  0.14976682  1  0  -0.715656  0  2.060933  0  0  -0.660211  0  2.31676  0  0  -0.684668  0  2.30192  0  0  -0.416506  -0.642909  0  2.326556  0
O  O44  1  0.92683322  0.54477439  0.48315650  1  0  -0.715265  0  2.061427  0  0  -0.660416  0  2.316623  0  0  -0.684831  0  2.301833  0  0  -0.416411  -0.643067  0  2.326422  0
