# generated using pymatgen
data_ErH11C17O6
_symmetry_space_group_name_H-M   'P 1'
_cell_length_a   6.72967898
_cell_length_b   12.69300450
_cell_length_c   17.06000000
_cell_angle_alpha   90.00000000
_cell_angle_beta   93.51813391
_cell_angle_gamma   90.00000000
_symmetry_Int_Tables_number   1
_chemical_formula_structural   ErH11C17O6
_chemical_formula_sum   'Er4 H44 C68 O24'
_cell_volume   1454.51624789
_cell_formula_units_Z   4
loop_
 _symmetry_equiv_pos_site_id
 _symmetry_equiv_pos_as_xyz
  1  'x, y, z'
loop_
 _atom_site_type_symbol
 _atom_site_label
 _atom_site_symmetry_multiplicity
 _atom_site_fract_x
 _atom_site_fract_y
 _atom_site_fract_z
 _atom_site_occupancy
 _atom_site_hle17_bader_spin_density
 _atom_site_hle17_ddec_charge
 _atom_site_hle17_ddec_spin_density
 _atom_site_hle17_ddec_sum_bond_order
 _atom_site_hle17_magmom
 _atom_site_hse06_10hf_bader_spin_density
 _atom_site_hse06_10hf_ddec_charge
 _atom_site_hse06_10hf_ddec_spin_density
 _atom_site_hse06_10hf_ddec_sum_bond_order
 _atom_site_hse06_10hf_magmom
 _atom_site_hse06_bader_spin_density
 _atom_site_hse06_ddec_charge
 _atom_site_hse06_ddec_spin_density
 _atom_site_hse06_ddec_sum_bond_order
 _atom_site_hse06_magmom
 _atom_site_pbe_bader_charge
 _atom_site_pbe_bader_spin_density
 _atom_site_pbe_cm5_charge
 _atom_site_pbe_ddec_charge
 _atom_site_pbe_ddec_spin_density
 _atom_site_pbe_ddec_sum_bond_order
 _atom_site_pbe_magmom
Er  Er0  1  0.61307908  0.62788523  0.54675609  1  0  2.2839  0  1.656945  0  0  2.141795  0  2.13103  0  0  2.275239  0  1.935141  0  2.185109  0  1.538853  2.104481  0  2.162328  0
Er  Er1  1  0.88691427  0.12788855  0.45324284  1  0  2.283908  0  1.656909  0  0  2.141862  0  2.130907  0  0  2.275247  0  1.935108  0  2.184967  0  1.538861  2.104544  0  2.162218  0
Er  Er2  1  0.38691550  0.37211206  0.45324395  1  0  2.283924  0  1.656904  0  0  2.141877  0  2.130897  0  0  2.275255  0  1.935098  0  2.185194  0  1.538853  2.10455  0  2.162208  0
Er  Er3  1  0.11308477  0.87211345  0.54675556  1  0  2.283942  0  1.656913  0  0  2.141921  0  2.130901  0  0  2.275284  0  1.935109  0  2.185091  0  1.538882  2.104586  0  2.162221  0
H  H4  1  0.10925121  0.78859343  0.78805842  1  0  0.095078  0  0.989133  0  0  0.103906  0  1.054734  0  0  0.106227  0  1.054461  0  0.098392  0  0.103364  0.102295  0  1.054774  0
H  H5  1  0.39074905  0.28859125  0.21194226  1  0  0.09509  0  0.9891  0  0  0.103915  0  1.05471  0  0  0.106238  0  1.054436  0  0.098434  0  0.103384  0.102307  0  1.054747  0
H  H6  1  0.89075081  0.21140858  0.21194121  1  0  0.095084  0  0.989145  0  0  0.103925  0  1.05474  0  0  0.106246  0  1.054469  0  0.098333  0  0.103379  0.102315  0  1.054782  0
H  H7  1  0.60924850  0.71140840  0.78805903  1  0  0.095101  0  0.989114  0  0  0.103925  0  1.054728  0  0  0.106248  0  1.054453  0  0.098334  0  0.103386  0.102313  0  1.054772  0
H  H8  1  0.04276316  0.75897003  0.92748298  1  0  0.082119  0  0.978575  0  0  0.093393  0  1.040757  0  0  0.095491  0  1.04127  0  0.071531  0  0.093818  0.091897  0  1.040465  0
H  H9  1  0.45724157  0.25896863  0.07251840  1  0  0.082175  0  0.978538  0  0  0.093437  0  1.040726  0  0  0.095535  0  1.041237  0  0.071561  0  0.093834  0.091943  0  1.040438  0
H  H10  1  0.95724035  0.24103198  0.07251670  1  0  0.082131  0  0.978563  0  0  0.093393  0  1.040749  0  0  0.095492  0  1.04126  0  0.071496  0  0.093819  0.0919  0  1.040459  0
H  H11  1  0.54275747  0.74103259  0.92748293  1  0  0.082162  0  0.978569  0  0  0.09342  0  1.04076  0  0  0.095521  0  1.04127  0  0.071524  0  0.093829  0.091926  0  1.040472  0
H  H12  1  0.75547160  0.46481036  0.86304348  1  0  0.086051  0  0.959077  0  0  0.09753  0  1.020636  0  0  0.100073  0  1.020533  0  0.046395  0  0.097007  0.095718  0  1.020806  0
H  H13  1  0.74453218  0.96481018  0.13695746  1  0  0.086067  0  0.959051  0  0  0.097524  0  1.020635  0  0  0.100061  0  1.020528  0  0.04647  0  0.097036  0.095715  0  1.020798  0
H  H14  1  0.24453043  0.53519086  0.13695557  1  0  0.086056  0  0.959009  0  0  0.097502  0  1.020613  0  0  0.100038  0  1.020507  0  0.046368  0  0.097004  0.095692  0  1.02078  0
H  H15  1  0.25546389  0.03519025  0.86304321  1  0  0.086069  0  0.959056  0  0  0.097508  0  1.020659  0  0  0.100044  0  1.02055  0  0.046427  0  0.097022  0.0957  0  1.020823  0
H  H16  1  0.82004957  0.49747717  0.72316238  1  0  0.10307  0  0.937683  0  0  0.11222  0  0.998686  0  0  0.115199  0  0.997322  0  0.086062  0  0.110687  0.109996  0  0.999932  0
H  H17  1  0.67995123  0.99747385  0.27683849  1  0  0.103046  0  0.937697  0  0  0.112198  0  0.998697  0  0  0.115174  0  0.997333  0  0.085997  0  0.110649  0.109975  0  0.999944  0
H  H18  1  0.17995097  0.50252562  0.27683723  1  0  0.103066  0  0.937693  0  0  0.112212  0  0.998701  0  0  0.115188  0  0.997343  0  0.085972  0  0.110672  0.10999  0  0.999945  0
H  H19  1  0.32004335  0.00252580  0.72316214  1  0  0.103052  0  0.937696  0  0  0.112209  0  0.998698  0  0  0.115182  0  0.997339  0  0.085996  0  0.110657  0.109985  0  0.999945  0
H  H20  1  0.76549542  0.51365616  0.99327382  1  0  0.081389  0  0.962397  0  0  0.095021  0  1.022184  0  0  0.09772  0  1.020666  0  0.066192  0  0.098086  0.093115  0  1.023277  0
H  H21  1  0.73450389  0.01365555  0.00672526  1  0  0.081387  0  0.962388  0  0  0.095018  0  1.022177  0  0  0.097715  0  1.020662  0  0.066188  0  0.098084  0.093112  0  1.02327  0
H  H22  1  0.23450511  0.48634427  0.00672462  1  0  0.081356  0  0.962418  0  0  0.094993  0  1.022205  0  0  0.097692  0  1.02069  0  0.066188  0  0.098069  0.093088  0  1.023298  0
H  H23  1  0.26549069  0.98634646  0.99327478  1  0  0.081341  0  0.96246  0  0  0.094989  0  1.022231  0  0  0.097687  0  1.020715  0  0.066133  0  0.098069  0.093082  0  1.023327  0
H  H24  1  0.91833755  0.73503401  0.03996187  1  0  0.087866  0  0.954861  0  0  0.101687  0  1.013688  0  0  0.104483  0  1.012567  0  0.073297  0  0.097989  0.099686  0  1.014556  0
H  H25  1  0.58166326  0.23503419  0.96003842  1  0  0.087884  0  0.954845  0  0  0.101708  0  1.013672  0  0  0.104505  0  1.012546  0  0.073305  0  0.097996  0.099707  0  1.01454  0
H  H26  1  0.08166001  0.26496564  0.96003825  1  0  0.087881  0  0.954829  0  0  0.101679  0  1.013682  0  0  0.104474  0  1.01256  0  0.073285  0  0.097982  0.099677  0  1.014551  0
H  H27  1  0.41833579  0.76496703  0.03996174  1  0  0.087935  0  0.954824  0  0  0.101724  0  1.013679  0  0  0.10452  0  1.012557  0  0.073329  0  0.097999  0.099722  0  1.014546  0
H  H28  1  0.92341720  0.77444863  0.17654497  1  0  0.087482  0  0.982828  0  0  0.095979  0  1.049133  0  0  0.09785  0  1.0507  0  0.065073  0  0.094896  0.094655  0  1.048107  0
H  H29  1  0.57658063  0.27444881  0.82345407  1  0  0.087479  0  0.982779  0  0  0.09598  0  1.049084  0  0  0.09785  0  1.050653  0  0.065197  0  0.09492  0.094657  0  1.048058  0
H  H30  1  0.07658185  0.22555022  0.82345343  1  0  0.087519  0  0.982751  0  0  0.095983  0  1.0491  0  0  0.097856  0  1.050664  0  0.065068  0  0.094918  0.094662  0  1.048065  0
H  H31  1  0.42341842  0.72555241  0.17654549  1  0  0.087523  0  0.982792  0  0  0.095986  0  1.049144  0  0  0.097857  0  1.050712  0  0.065191  0  0.094886  0.094667  0  1.048107  0
H  H32  1  0.83906700  0.73178655  0.31303773  1  0  0.104376  0  0.936243  0  0  0.114461  0  0.994876  0  0  0.117889  0  0.992357  0  0.115111  0  0.106471  0.11213  0  0.996301  0
H  H33  1  0.66093529  0.23178673  0.68696201  1  0  0.104364  0  0.936238  0  0  0.114443  0  0.994881  0  0  0.117874  0  0.992356  0  0.115101  0  0.106458  0.112112  0  0.99631  0
H  H34  1  0.16093652  0.26821152  0.68696136  1  0  0.104345  0  0.93628  0  0  0.114426  0  0.994921  0  0  0.117856  0  0.992396  0  0.115061  0  0.106452  0.11209  0  0.996357  0
H  H35  1  0.33907268  0.76821607  0.31303836  1  0  0.104406  0  0.936243  0  0  0.114474  0  0.994886  0  0  0.117905  0  0.992361  0  0.115088  0  0.106453  0.112143  0  0.996321  0
H  H36  1  0.56303588  0.44416434  0.23116430  1  0  0.106115  0  0.960014  0  0  0.113846  0  1.025187  0  0  0.117286  0  1.022754  0  0.13569  0  0.107233  0.111493  0  1.026634  0
H  H37  1  0.93696790  0.94416417  0.76883605  1  0  0.106138  0  0.959928  0  0  0.113855  0  1.025136  0  0  0.117297  0  1.022699  0  0.135656  0  0.107249  0.111512  0  1.026555  0
H  H38  1  0.43696912  0.55583373  0.76883600  1  0  0.106182  0  0.959901  0  0  0.113893  0  1.025115  0  0  0.117334  0  1.022676  0  0.135678  0  0.107262  0.111554  0  1.02652  0
H  H39  1  0.06303115  0.05583548  0.23116469  1  0  0.106156  0  0.959916  0  0  0.113873  0  1.025119  0  0  0.117316  0  1.02268  0  0.135652  0  0.107244  0.111525  0  1.026553  0
H  H40  1  0.64019090  0.48559661  0.09513160  1  0  0.08656  0  0.956668  0  0  0.100402  0  1.013375  0  0  0.103228  0  1.012465  0  0.057185  0  0.098342  0.098386  0  1.014155  0
H  H41  1  0.85980692  0.98559565  0.90486744  1  0  0.086573  0  0.956657  0  0  0.100414  0  1.013365  0  0  0.103243  0  1.012452  0  0.057201  0  0.098334  0.098398  0  1.014146  0
H  H42  1  0.35980665  0.51440224  0.90486734  1  0  0.086611  0  0.95664  0  0  0.10045  0  1.013349  0  0  0.103277  0  1.012438  0  0.05723  0  0.098353  0.098434  0  1.01413  0
H  H43  1  0.14018766  0.01440321  0.09513202  1  0  0.086562  0  0.956626  0  0  0.100396  0  1.013349  0  0  0.103223  0  1.012439  0  0.057271  0  0.098331  0.098381  0  1.01413  0
H  H44  1  0.55141759  0.87092382  0.45340651  1  0  0.04495  0  0.899787  0  0  0.052375  0  0.965761  0  0  0.053718  0  0.960439  0  0.131896  0  0.139985  0.051057  0  0.970136  0
H  H45  1  0.94858470  0.37092636  0.54659557  1  0  0.044949  0  0.899726  0  0  0.05236  0  0.965721  0  0  0.053701  0  0.9604  0  0.131917  0  0.139996  0.051045  0  0.970092  0
H  H46  1  0.44857996  0.12907267  0.54659361  1  0  0.044842  0  0.899952  0  0  0.052425  0  0.965778  0  0  0.053766  0  0.960455  0  0.131905  0  0.13998  0.051105  0  0.970157  0
H  H47  1  0.05141137  0.62907565  0.45340569  1  0  0.044939  0  0.899737  0  0  0.052346  0  0.965733  0  0  0.053697  0  0.960401  0  0.131844  0  0.139963  0.051032  0  0.970104  0
C  C48  1  0.98987101  0.67240896  0.66281947  1  0  0.739509  0  3.826454  0  0  0.691273  0  4.115715  0  0  0.728415  0  4.108365  0  1.59334  0  0.239493  0.665965  0  4.124271  0
C  C49  1  0.51012682  0.17240678  0.33718074  1  0  0.739468  0  3.826501  0  0  0.691236  0  4.11577  0  0  0.728392  0  4.108418  0  1.593332  0  0.239481  0.665934  0  4.124328  0
C  C50  1  0.01012506  0.32759068  0.33717944  1  0  0.739412  0  3.826574  0  0  0.691163  0  4.115857  0  0  0.728308  0  4.108509  0  1.593335  0  0.239462  0.665852  0  4.124424  0
C  C51  1  0.48986776  0.82759208  0.66281930  1  0  0.73938  0  3.826651  0  0  0.691155  0  4.115853  0  0  0.728287  0  4.108531  0  1.593334  0  0.239456  0.665871  0  4.124382  0
C  C52  1  0.96766316  0.64581242  0.74693840  1  0  -0.073459  0  3.724312  0  0  -0.048975  0  3.953279  0  0  -0.056927  0  3.972812  0  0.083185  0  -0.010708  -0.04352  0  3.939258  0
C  C53  1  0.53233764  0.14580866  0.25306247  1  0  -0.07352  0  3.724429  0  0  -0.049101  0  3.953474  0  0  -0.057068  0  3.973018  0  0.083121  0  -0.010702  -0.04365  0  3.939455  0
C  C54  1  0.03233886  0.35418880  0.25306124  1  0  -0.073433  0  3.72433  0  0  -0.048965  0  3.953335  0  0  -0.056925  0  3.972876  0  0.083141  0  -0.010643  -0.043512  0  3.939318  0
C  C55  1  0.46765545  0.85419020  0.74693812  1  0  -0.073558  0  3.724553  0  0  -0.049  0  3.95343  0  0  -0.056954  0  3.972969  0  0.083138  0  -0.010697  -0.043554  0  3.93941  0
C  C56  1  0.03213490  0.71790962  0.80549593  1  0  -0.050206  0  3.726438  0  0  -0.076006  0  3.971624  0  0  -0.074726  0  3.991509  0  -0.002199  0  -0.078475  -0.076475  0  3.957473  0
C  C57  1  0.46786835  0.21790664  0.19450483  1  0  -0.05003  0  3.726416  0  0  -0.075804  0  3.971612  0  0  -0.074512  0  3.991486  0  -0.002067  0  -0.078391  -0.076269  0  3.957458  0
C  C58  1  0.96786861  0.28209239  0.19450316  1  0  -0.050155  0  3.726489  0  0  -0.075975  0  3.971706  0  0  -0.074693  0  3.991595  0  -0.001986  0  -0.078474  -0.076439  0  3.957551  0
C  C59  1  0.53212921  0.78209300  0.80549529  1  0  -0.050072  0  3.726432  0  0  -0.075912  0  3.971637  0  0  -0.074625  0  3.991517  0  -0.002047  0  -0.078424  -0.076378  0  3.957488  0
C  C60  1  0.99329665  0.70099715  0.88333791  1  0  -0.117009  0  3.720514  0  0  -0.131528  0  3.961643  0  0  -0.136199  0  3.98359  0  -0.082753  0  -0.089891  -0.128365  0  3.946661  0
C  C61  1  0.50671011  0.20099575  0.11666310  1  0  -0.117228  0  3.720643  0  0  -0.131755  0  3.961795  0  0  -0.136429  0  3.983743  0  -0.082733  0  -0.090011  -0.128594  0  3.946814  0
C  C62  1  0.00670984  0.29900407  0.11666184  1  0  -0.117094  0  3.72062  0  0  -0.131616  0  3.961756  0  0  -0.136287  0  3.983705  0  -0.08271  0  -0.089932  -0.128455  0  3.946778  0
C  C63  1  0.49328745  0.79900468  0.88333760  1  0  -0.117174  0  3.720622  0  0  -0.131691  0  3.961764  0  0  -0.136365  0  3.983712  0  -0.082682  0  -0.089962  -0.128533  0  3.946784  0
C  C64  1  0.88910275  0.61040079  0.90532219  1  0  0.08838  0  3.828506  0  0  0.107135  0  4.057226  0  0  0.108663  0  4.081716  0  -0.001892  0  -0.010119  0.106238  0  4.04044  0
C  C65  1  0.61090103  0.11040018  0.09467875  1  0  0.088489  0  3.828472  0  0  0.107276  0  4.057133  0  0  0.108806  0  4.08162  0  -0.001765  0  -0.010047  0.106377  0  4.040351  0
C  C66  1  0.11090076  0.38960043  0.09467690  1  0  0.088433  0  3.828623  0  0  0.107239  0  4.05727  0  0  0.108767  0  4.081762  0  -0.002144  0  -0.010089  0.106339  0  4.040488  0
C  C67  1  0.38909355  0.88959946  0.90532188  1  0  0.088503  0  3.82858  0  0  0.107307  0  4.057211  0  0  0.108837  0  4.081701  0  -0.001705  0  -0.010072  0.106412  0  4.040427  0
C  C68  1  0.83293479  0.53617802  0.84652411  1  0  -0.118775  0  3.729078  0  0  -0.134814  0  3.975446  0  0  -0.139937  0  3.998026  0  -0.07334  0  -0.086252  -0.131354  0  3.959983  0
C  C69  1  0.66707345  0.03617820  0.15347694  1  0  -0.118788  0  3.728985  0  0  -0.134831  0  3.975362  0  0  -0.13994  0  3.997926  0  -0.073537  0  -0.086305  -0.131369  0  3.959899  0
C  C70  1  0.16706872  0.46382320  0.15347557  1  0  -0.118742  0  3.728998  0  0  -0.134777  0  3.975374  0  0  -0.139887  0  3.997941  0  -0.073071  0  -0.086234  -0.131314  0  3.959907  0
C  C71  1  0.33292708  0.96382381  0.84652442  1  0  -0.118813  0  3.728976  0  0  -0.134848  0  3.975368  0  0  -0.139954  0  3.99793  0  -0.073666  0  -0.086287  -0.131389  0  3.959906  0
C  C72  1  0.86984712  0.55373257  0.76838539  1  0  -0.049198  0  3.732187  0  0  -0.076955  0  3.986735  0  0  -0.075315  0  4.005799  0  -0.098043  0  -0.074296  -0.077862  0  3.973676  0
C  C73  1  0.63015815  0.05373038  0.23161559  1  0  -0.049219  0  3.732179  0  0  -0.076937  0  3.986712  0  0  -0.075288  0  4.005774  0  -0.098071  0  -0.074266  -0.077839  0  3.973651  0
C  C74  1  0.13015937  0.44626865  0.23161436  1  0  -0.049228  0  3.732135  0  0  -0.076971  0  3.986686  0  0  -0.075328  0  4.005745  0  -0.097977  0  -0.074314  -0.077874  0  3.973622  0
C  C75  1  0.36983941  0.94627005  0.76838570  1  0  -0.049225  0  3.732199  0  0  -0.076999  0  3.986729  0  0  -0.075352  0  4.005784  0  -0.097924  0  -0.074311  -0.077905  0  3.973673  0
C  C76  1  0.83188670  0.59107597  0.98478713  1  0  -0.109109  0  3.766904  0  0  -0.130508  0  4.021268  0  0  -0.131914  0  4.041391  0  -0.137768  0  -0.089792  -0.129398  0  4.007322  0
C  C77  1  0.66811410  0.09107615  0.01521315  1  0  -0.109084  0  3.766869  0  0  -0.130482  0  4.02122  0  0  -0.131894  0  4.041349  0  -0.137808  0  -0.089775  -0.129373  0  4.007275  0
C  C78  1  0.16811383  0.40892367  0.01521189  1  0  -0.109054  0  3.766997  0  0  -0.130458  0  4.021336  0  0  -0.131871  0  4.041466  0  -0.137812  0  -0.089718  -0.129351  0  4.007392  0
C  C79  1  0.33188346  0.90892586  0.98478755  1  0  -0.109025  0  3.766993  0  0  -0.13043  0  4.021309  0  0  -0.13184  0  4.041438  0  -0.137767  0  -0.089757  -0.129322  0  4.007365  0
C  C80  1  0.84987838  0.65772450  0.04692604  1  0  -0.117249  0  3.745689  0  0  -0.137339  0  3.997467  0  0  -0.139926  0  4.017258  0  -0.057072  0  -0.091908  -0.135466  0  3.983775  0
C  C81  1  0.65012094  0.15772389  0.95307303  1  0  -0.117349  0  3.745636  0  0  -0.137449  0  3.997431  0  0  -0.140029  0  4.017221  0  -0.057049  0  -0.091975  -0.135574  0  3.983741  0
C  C82  1  0.15011918  0.34227515  0.95307231  1  0  -0.117319  0  3.745687  0  0  -0.1374  0  3.997491  0  0  -0.139979  0  4.017279  0  -0.057062  0  -0.091958  -0.135525  0  3.983802  0
C  C83  1  0.34987364  0.84227576  0.04692643  1  0  -0.117356  0  3.745637  0  0  -0.137427  0  3.997429  0  0  -0.140012  0  4.017219  0  -0.057149  0  -0.091919  -0.135553  0  3.983737  0
C  C84  1  0.79015972  0.63330632  0.12542830  1  0  0.091168  0  3.835128  0  0  0.108968  0  4.066571  0  0  0.11149  0  4.090397  0  -0.017798  0  -0.01089  0.107408  0  4.050267  0
C  C85  1  0.70984108  0.13330492  0.87457140  1  0  0.091191  0  3.835019  0  0  0.108994  0  4.066462  0  0  0.111515  0  4.09029  0  -0.017669  0  -0.010866  0.107435  0  4.050159  0
C  C86  1  0.20984081  0.36669332  0.87457072  1  0  0.091261  0  3.835008  0  0  0.10906  0  4.066443  0  0  0.111575  0  4.090273  0  -0.017803  0  -0.010876  0.107499  0  4.05014  0
C  C87  1  0.29016094  0.86669551  0.12542882  1  0  0.091179  0  3.835106  0  0  0.108988  0  4.06654  0  0  0.111506  0  4.09037  0  -0.017689  0  -0.0109  0.107428  0  4.050235  0
C  C88  1  0.84258494  0.70222539  0.18828818  1  0  -0.125597  0  3.723663  0  0  -0.141805  0  3.970563  0  0  -0.147013  0  3.992963  0  -0.072296  0  -0.090862  -0.13834  0  3.955228  0
C  C89  1  0.65741586  0.20222556  0.81171151  1  0  -0.125499  0  3.723491  0  0  -0.141711  0  3.970404  0  0  -0.146921  0  3.99281  0  -0.072529  0  -0.090847  -0.138246  0  3.955067  0
C  C90  1  0.15741709  0.29777268  0.81171087  1  0  -0.125562  0  3.723487  0  0  -0.141753  0  3.970429  0  0  -0.146962  0  3.99283  0  -0.07232  0  -0.090858  -0.138286  0  3.955095  0
C  C91  1  0.34258765  0.79777566  0.18828933  1  0  -0.12557  0  3.72374  0  0  -0.141767  0  3.970632  0  0  -0.146974  0  3.993034  0  -0.072403  0  -0.090829  -0.138301  0  3.955299  0
C  C92  1  0.79657926  0.67843748  0.26475661  1  0  -0.056378  0  3.731387  0  0  -0.080123  0  3.980814  0  0  -0.078538  0  3.999864  0  -0.033882  0  -0.080686  -0.080717  0  3.967038  0
C  C93  1  0.70342452  0.17843923  0.73524316  1  0  -0.056402  0  3.731351  0  0  -0.080177  0  3.980774  0  0  -0.078591  0  3.999825  0  -0.033628  0  -0.080712  -0.080768  0  3.966991  0
C  C94  1  0.20342723  0.32155901  0.73524314  1  0  -0.05635  0  3.731439  0  0  -0.080194  0  3.980774  0  0  -0.078606  0  3.999823  0  -0.033556  0  -0.080718  -0.080785  0  3.966992  0
C  C95  1  0.29658197  0.82156435  0.26475776  1  0  -0.056481  0  3.731497  0  0  -0.08018  0  3.980903  0  0  -0.078595  0  3.99995  0  -0.034191  0  -0.080664  -0.080779  0  3.96713  0
C  C96  1  0.69569190  0.58483001  0.28029982  1  0  -0.078282  0  3.737126  0  0  -0.056843  0  3.968494  0  0  -0.065998  0  3.990139  0  -0.044948  0  -0.018784  -0.050513  0  3.952502  0
C  C97  1  0.80431188  0.08483098  0.71969994  1  0  -0.078429  0  3.737319  0  0  -0.05692  0  3.968549  0  0  -0.066076  0  3.990194  0  -0.045159  0  -0.018789  -0.050589  0  3.95256  0
C  C98  1  0.30431608  0.41516648  0.71969937  1  0  -0.078639  0  3.737441  0  0  -0.056898  0  3.968378  0  0  -0.066056  0  3.990022  0  -0.045259  0  -0.018809  -0.050572  0  3.952392  0
C  C99  1  0.19569610  0.91517261  0.28030101  1  0  -0.078323  0  3.737087  0  0  -0.056915  0  3.968494  0  0  -0.06607  0  3.990139  0  -0.044261  0  -0.018833  -0.050585  0  3.952502  0
C  C100  1  0.64044250  0.51660267  0.21794133  1  0  -0.059584  0  3.754425  0  0  -0.083584  0  4.004157  0  0  -0.082161  0  4.024274  0  -0.019443  0  -0.081379  -0.084111  0  3.989835  0
C  C101  1  0.85956276  0.01660363  0.78205730  1  0  -0.059382  0  3.754383  0  0  -0.083408  0  4.004069  0  0  -0.081977  0  4.02418  0  -0.019747  0  -0.081297  -0.083929  0  3.989752  0
C  C102  1  0.35956696  0.48339383  0.78205673  1  0  -0.059372  0  3.754274  0  0  -0.083462  0  4.003886  0  0  -0.082032  0  4.023998  0  -0.01971  0  -0.081329  -0.083979  0  3.989571  0
C  C103  1  0.14044075  0.98339759  0.21794237  1  0  -0.059508  0  3.75423  0  0  -0.083487  0  4.003937  0  0  -0.08206  0  4.024053  0  -0.019799  0  -0.081338  -0.084009  0  3.989616  0
C  C104  1  0.68508895  0.54054499  0.14199920  1  0  -0.121286  0  3.745724  0  0  -0.138751  0  3.992796  0  0  -0.143855  0  4.014667  0  -0.068899  0  -0.091044  -0.13541  0  3.977988  0
C  C105  1  0.81491185  0.04054438  0.85799932  1  0  -0.121409  0  3.745764  0  0  -0.13888  0  3.99284  0  0  -0.143991  0  4.014711  0  -0.068866  0  -0.091074  -0.135541  0  3.978035  0
C  C106  1  0.31491456  0.45945308  0.85799930  1  0  -0.121497  0  3.745738  0  0  -0.138973  0  3.992842  0  0  -0.14408  0  4.014714  0  -0.068858  0  -0.091091  -0.135634  0  3.978034  0
C  C107  1  0.18508570  0.95945527  0.14199962  1  0  -0.121371  0  3.745654  0  0  -0.138834  0  3.992734  0  0  -0.143942  0  4.014608  0  -0.068966  0  -0.091058  -0.135493  0  3.977926  0
C  C108  1  0.64276348  0.55475833  0.36089669  1  0  0.725785  0  3.837539  0  0  0.682497  0  4.123574  0  0  0.719561  0  4.115322  0  1.564388  0  0.2329  0.657926  0  4.130922  0
C  C109  1  0.85723434  0.05475851  0.63910352  1  0  0.7258  0  3.837473  0  0  0.682567  0  4.123384  0  0  0.719636  0  4.115131  0  1.564614  0  0.232948  0.65799  0  4.130742  0
C  C110  1  0.35723705  0.44524053  0.63910291  1  0  0.725916  0  3.83752  0  0  0.682622  0  4.123409  0  0  0.71969  0  4.115152  0  1.564671  0  0.23297  0.658046  0  4.130766  0
C  C111  1  0.14277215  0.94524429  0.36089857  1  0  0.7258  0  3.837497  0  0  0.682492  0  4.123587  0  0  0.719552  0  4.115339  0  1.564408  0  0.232847  0.657923  0  4.130932  0
C  C112  1  0.70730126  0.87051178  0.47755330  1  0  0.665827  0  3.796808  0  0  0.596084  0  4.100104  0  0  0.632516  0  4.096071  0  1.548777  0  0.180777  0.571229  0  4.110605  0
C  C113  1  0.79270103  0.37051354  0.52244878  1  0  0.665868  0  3.796585  0  0  0.596109  0  4.099941  0  0  0.632535  0  4.095927  0  1.548608  0  0.180762  0.571252  0  4.110444  0
C  C114  1  0.29269630  0.12948629  0.52244858  1  0  0.665947  0  3.796876  0  0  0.596068  0  4.100266  0  0  0.632499  0  4.096249  0  1.548685  0  0.180765  0.571215  0  4.110765  0
C  C115  1  0.20729652  0.62948690  0.47755192  1  0  0.665852  0  3.796649  0  0  0.596098  0  4.100006  0  0  0.632526  0  4.095981  0  1.548758  0  0.180783  0.571241  0  4.110506  0
O  O116  1  0.90874695  0.61085459  0.61013651  1  0  -0.766487  0  2.015005  0  0  -0.717347  0  2.279711  0  0  -0.756072  0  2.263001  0  -1.211604  0  -0.430854  -0.698816  0  2.288477  0
O  O117  1  0.59124939  0.11085476  0.38986425  1  0  -0.766455  0  2.015036  0  0  -0.717356  0  2.279804  0  0  -0.756077  0  2.263105  0  -1.211552  0  -0.430875  -0.698827  0  2.288575  0
O  O118  1  0.09124912  0.38914270  0.38986298  1  0  -0.766433  0  2.01502  0  0  -0.71728  0  2.27968  0  0  -0.755996  0  2.262978  0  -1.211542  0  -0.430829  -0.698747  0  2.288454  0
O  O119  1  0.40874817  0.88914646  0.61013587  1  0  -0.766364  0  2.015054  0  0  -0.717288  0  2.279826  0  0  -0.755999  0  2.263138  0  -1.211653  0  -0.430822  -0.698762  0  2.288588  0
O  O120  1  0.08155431  0.75605898  0.64714355  1  0  -0.715142  0  2.074324  0  0  -0.665746  0  2.336642  0  0  -0.702837  0  2.323264  0  -1.189684  0  -0.385457  -0.647672  0  2.343126  0
O  O121  1  0.41844298  0.25605758  0.35285530  1  0  -0.715198  0  2.074417  0  0  -0.665765  0  2.336705  0  0  -0.702875  0  2.323339  0  -1.189656  0  -0.385464  -0.647678  0  2.343152  0
O  O122  1  0.91844176  0.24393988  0.35285419  1  0  -0.715187  0  2.074455  0  0  -0.66575  0  2.33675  0  0  -0.70285  0  2.323378  0  -1.189603  0  -0.385501  -0.647668  0  2.343216  0
O  O123  1  0.58154713  0.74393970  0.64714581  1  0  -0.71516  0  2.074466  0  0  -0.665735  0  2.336731  0  0  -0.702866  0  2.323422  0  -1.189627  0  -0.385453  -0.647655  0  2.343164  0
O  O124  1  0.68130452  0.62010062  0.41688766  1  0  -0.750745  0  2.033626  0  0  -0.703899  0  2.290978  0  0  -0.741128  0  2.275388  0  -1.207601  0  -0.404169  -0.685699  0  2.298195  0
O  O125  1  0.81867544  0.12009607  0.58311153  1  0  -0.750729  0  2.033523  0  0  -0.70392  0  2.290824  0  0  -0.741136  0  2.275238  0  -1.20764  0  -0.404203  -0.685726  0  2.298066  0
O  O126  1  0.31867815  0.37990375  0.58311092  1  0  -0.750734  0  2.033625  0  0  -0.703914  0  2.290924  0  0  -0.741128  0  2.275334  0  -1.20764  0  -0.404179  -0.685722  0  2.298167  0
O  O127  1  0.18131467  0.87990200  0.41688841  1  0  -0.750749  0  2.033698  0  0  -0.703895  0  2.291033  0  0  -0.741103  0  2.275447  0  -1.207588  0  -0.404135  -0.685695  0  2.298262  0
O  O128  1  0.55995564  0.46533821  0.36803523  1  0  -0.727509  0  2.065969  0  0  -0.679232  0  2.323671  0  0  -0.716412  0  2.308965  0  -1.189793  0  -0.403077  -0.661556  0  2.330594  0
O  O129  1  0.94005410  0.96534118  0.63196410  1  0  -0.727514  0  2.065959  0  0  -0.679255  0  2.323614  0  0  -0.716442  0  2.308909  0  -1.189756  0  -0.403112  -0.661575  0  2.330541  0
O  O130  1  0.44005383  0.53465907  0.63196459  1  0  -0.72753  0  2.065953  0  0  -0.679272  0  2.323648  0  0  -0.716462  0  2.308935  0  -1.189814  0  -0.403127  -0.661597  0  2.330565  0
O  O131  1  0.05996877  0.03466555  0.36803721  1  0  -0.727476  0  2.065847  0  0  -0.679202  0  2.323577  0  0  -0.716384  0  2.308871  0  -1.189854  0  -0.40307  -0.661531  0  2.330503  0
O  O132  1  0.78195367  0.78779457  0.50994478  1  0  -0.754199  0  2.136057  0  0  -0.700504  0  2.411854  0  0  -0.745803  0  2.399143  0  -1.199164  0  -0.392495  -0.682641  0  2.419461  0
O  O133  1  0.71804713  0.28779711  0.49005726  1  0  -0.754155  0  2.135842  0  0  -0.700466  0  2.411666  0  0  -0.745758  0  2.398958  0  -1.19907  0  -0.392488  -0.682602  0  2.419273  0
O  O134  1  0.21804389  0.21220350  0.49005710  1  0  -0.754138  0  2.13588  0  0  -0.700459  0  2.411763  0  0  -0.745749  0  2.399051  0  -1.199119  0  -0.392458  -0.682594  0  2.419367  0
O  O135  1  0.28195340  0.71220411  0.50994175  1  0  -0.754156  0  2.135917  0  0  -0.700454  0  2.411727  0  0  -0.745748  0  2.399014  0  -1.199112  0  -0.392485  -0.682588  0  2.419326  0
O  O136  1  0.81301964  0.95242305  0.47282163  1  0  -0.769468  0  2.255981  0  0  -0.704706  0  2.521359  0  0  -0.750334  0  2.508417  0  -1.213473  0  -0.418797  -0.685867  0  2.527921  0
O  O137  1  0.68697967  0.45242480  0.52717920  1  0  -0.769465  0  2.255945  0  0  -0.704681  0  2.521332  0  0  -0.750324  0  2.508389  0  -1.213443  0  -0.418779  -0.685844  0  2.527892  0
O  O138  1  0.18697643  0.04757581  0.52718079  1  0  -0.769514  0  2.25606  0  0  -0.704754  0  2.521528  0  0  -0.750387  0  2.508591  0  -1.21347  0  -0.418801  -0.685916  0  2.528091  0
O  O139  1  0.31301491  0.54757485  0.47282143  1  0  -0.769471  0  2.255934  0  0  -0.704696  0  2.521315  0  0  -0.750336  0  2.508377  0  -1.21348  0  -0.418771  -0.685858  0  2.527875  0
