# generated using pymatgen
data_Tl2H8Au2C28Cl20O
_symmetry_space_group_name_H-M   'P 1'
_cell_length_a   9.05177562
_cell_length_b   11.29217629
_cell_length_c   21.24650000
_cell_angle_alpha   96.69091899
_cell_angle_beta   92.55363436
_cell_angle_gamma   98.68221339
_symmetry_Int_Tables_number   1
_chemical_formula_structural   Tl2H8Au2C28Cl20O
_chemical_formula_sum   'Tl4 H16 Au4 C56 Cl40 O2'
_cell_volume   2127.91222158
_cell_formula_units_Z   2
loop_
 _symmetry_equiv_pos_site_id
 _symmetry_equiv_pos_as_xyz
  1  'x, y, z'
loop_
 _atom_site_type_symbol
 _atom_site_label
 _atom_site_symmetry_multiplicity
 _atom_site_fract_x
 _atom_site_fract_y
 _atom_site_fract_z
 _atom_site_occupancy
 _atom_site_pbe_bader_charge
 _atom_site_pbe_bader_spin_density
 _atom_site_pbe_cm5_charge
 _atom_site_pbe_ddec_charge
 _atom_site_pbe_ddec_spin_density
 _atom_site_pbe_ddec_sum_bond_order
 _atom_site_pbe_magmom
Tl  Tl0  1  0.69953046  0.63890830  0.30251354  1  0.704664  0  0.195277  0.469186  0  1.739908  0
Tl  Tl1  1  0.30046747  0.36109555  0.69748464  1  0.704643  0  0.195246  0.469135  0  1.739984  0
Tl  Tl2  1  0.63585630  0.14909191  0.25401163  1  0.747378  0  0.269599  0.535189  0  1.486496  0
Tl  Tl3  1  0.36414128  0.85091014  0.74598737  1  0.747385  0  0.269608  0.535175  0  1.486502  0
H  H4  1  0.53465825  0.06972947  0.06730562  1  0.0343  0  0.092698  0.068588  0  0.992815  0
H  H5  1  0.46535472  0.93028341  0.93269387  1  0.034351  0  0.0927  0.068575  0  0.992675  0
H  H6  1  0.61048976  0.93758961  0.08381501  1  0.028508  0  0.082513  0.052315  0  1.007498  0
H  H7  1  0.38951529  0.06242237  0.91618710  1  0.028514  0  0.082492  0.052278  0  1.00756  0
H  H8  1  0.73844156  0.13111803  0.00211859  1  0.023345  0  0.077428  0.081028  0  1.0331  0
H  H9  1  0.26157146  0.86888944  0.99788151  1  0.023515  0  0.077419  0.080985  0  1.032994  0
H  H10  1  0.72524754  0.97176589  0.98495670  1  0.03823  0  0.084532  0.085999  0  1.026293  0
H  H11  1  0.27475848  0.02823976  0.01504456  1  0.038341  0  0.084498  0.085882  0  1.026268  0
H  H12  1  0.92173174  0.96559282  0.06610888  1  0.038584  0  0.081264  0.084277  0  1.018822  0
H  H13  1  0.07827172  0.03441103  0.93389363  1  0.038554  0  0.081274  0.084301  0  1.018781  0
H  H14  1  0.99152557  0.10182278  0.03539818  1  0.056172  0  0.088825  0.097654  0  1.012743  0
H  H15  1  0.00848418  0.89817926  0.96460340  1  0.056237  0  0.088843  0.097651  0  1.0128  0
H  H16  1  0.93897533  0.10145982  0.16297868  1  0.035192  0  0.085719  0.05955  0  1.031458  0
H  H17  1  0.06102849  0.89854584  0.83702349  1  0.035162  0  0.085755  0.059588  0  1.031417  0
H  H18  1  0.90740432  0.22524095  0.12150102  1  0.079261  0  0.073955  0.042391  0  1.068781  0
H  H19  1  0.09260962  0.77476562  0.87849904  1  0.079431  0  0.073901  0.042442  0  1.068663  0
Au  Au20  1  0.51501351  0.40022600  0.26504115  1  0.074454  0  0.224046  -0.058771  0  3.153708  0
Au  Au21  1  0.48499017  0.59977334  0.73496015  1  0.074529  0  0.224049  -0.05874  0  3.153593  0
Au  Au22  1  0.66211310  0.89224545  0.28350158  1  0.06332  0  0.220389  -0.072604  0  3.137216  0
Au  Au23  1  0.33788390  0.10775930  0.71649851  1  0.063227  0  0.220408  -0.072573  0  3.137153  0
C  C24  1  0.53340905  0.38727220  0.16794920  1  -0.053876  0  -0.178919  -0.249786  0  4.057935  0
C  C25  1  0.46658973  0.61271901  0.83205386  1  -0.053899  0  -0.178914  -0.249748  0  4.058032  0
C  C26  1  0.40723727  0.35792640  0.12479551  1  0.088137  0  -0.011387  0.096673  0  4.059308  0
C  C27  1  0.59275930  0.64206482  0.87520468  1  0.08803  0  -0.011346  0.096701  0  4.059364  0
C  C28  1  0.41828112  0.34099536  0.05864805  1  0.13187  0  -0.009784  0.017583  0  4.058715  0
C  C29  1  0.58171213  0.65899585  0.94135537  1  0.131934  0  -0.009884  0.017426  0  4.058778  0
C  C30  1  0.56046319  0.35791466  0.03371181  1  0.131195  0  -0.005869  0.032235  0  4.050396  0
C  C31  1  0.43953560  0.64207655  0.96628889  1  0.131089  0  -0.005712  0.032499  0  4.050346  0
C  C32  1  0.68950472  0.38960076  0.07522412  1  0.153519  0  -0.005406  0.025769  0  4.033376  0
C  C33  1  0.31049075  0.61039045  0.92477840  1  0.153527  0  -0.005352  0.025733  0  4.033099  0
C  C34  1  0.67294468  0.40080837  0.14104894  1  0.078993  0  -0.010399  0.090547  0  4.050524  0
C  C35  1  0.32705614  0.59918194  0.85894892  1  0.079279  0  -0.010495  0.090439  0  4.050425  0
C  C36  1  0.50285453  0.39525648  0.36187159  1  -0.057675  0  -0.179959  -0.256425  0  4.067929  0
C  C37  1  0.49715410  0.60474557  0.63812856  1  -0.05776  0  -0.180007  -0.256555  0  4.068016  0
C  C38  1  0.62592338  0.37775211  0.40032749  1  0.08089  0  -0.018793  0.076975  0  4.071265  0
C  C39  1  0.37408031  0.62224723  0.59967146  1  0.080808  0  -0.018763  0.076932  0  4.071373  0
C  C40  1  0.61384367  0.34774358  0.46245331  1  0.129776  0  -0.012873  0.020366  0  4.061156  0
C  C41  1  0.38616462  0.65225667  0.53754625  1  0.129922  0  -0.01294  0.020315  0  4.061341  0
C  C42  1  0.47233950  0.33553828  0.48775693  1  0.112198  0  -0.004732  0.034315  0  4.043764  0
C  C43  1  0.52766529  0.66446106  0.51224204  1  0.112157  0  -0.004741  0.034354  0  4.043827  0
C  C44  1  0.34784518  0.36062334  0.45266201  1  0.125953  0  -0.006481  0.026043  0  4.04119  0
C  C45  1  0.65216386  0.63937510  0.54733698  1  0.12567  0  -0.006432  0.026163  0  4.040817  0
C  C46  1  0.36601745  0.39212976  0.39101428  1  0.143802  0  -0.015206  0.099871  0  4.04931  0
C  C47  1  0.63398787  0.60787228  0.60898581  1  0.143826  0  -0.015126  0.099993  0  4.049088  0
C  C48  1  0.87057844  0.91564391  0.24681172  1  0.048216  0  -0.17444  -0.243881  0  4.065115  0
C  C49  1  0.12941489  0.08435904  0.75318773  1  0.047838  0  -0.17443  -0.243863  0  4.065163  0
C  C50  1  0.98817958  0.00606653  0.27305545  1  0.059921  0  -0.013571  0.084742  0  4.064196  0
C  C51  1  0.01181963  0.99393822  0.72694469  1  0.060445  0  -0.01357  0.084756  0  4.06415  0
C  C52  1  0.12881614  0.02361334  0.24697852  1  0.082945  0  -0.004385  0.022865  0  4.039834  0
C  C53  1  0.87118056  0.97638419  0.75301924  1  0.082906  0  -0.004433  0.022778  0  4.039731  0
C  C54  1  0.15517705  0.94739954  0.19286639  1  0.164587  0  -0.003318  0.034842  0  4.04189  0
C  C55  1  0.84481337  0.05259980  0.80713136  1  0.164637  0  -0.003216  0.035059  0  4.041915  0
C  C56  1  0.04122835  0.85427973  0.16573336  1  0.099495  0  -0.006547  0.018808  0  4.059025  0
C  C57  1  0.95875636  0.14571870  0.83426329  1  0.099265  0  -0.006637  0.018587  0  4.058945  0
C  C58  1  0.90182559  0.84154715  0.19284912  1  0.052926  0  -0.011445  0.087468  0  4.058269  0
C  C59  1  0.09816442  0.15845580  0.80715026  1  0.053131  0  -0.011423  0.087478  0  4.058064  0
C  C60  1  0.45216148  0.86786104  0.31846427  1  -0.007745  0  -0.182604  -0.252575  0  4.080976  0
C  C61  1  0.54783301  0.13213649  0.68153533  1  -0.007669  0  -0.182641  -0.252649  0  4.081042  0
C  C62  1  0.33825143  0.77497328  0.29158496  1  0.069673  0  -0.012991  0.088683  0  4.054136  0
C  C63  1  0.66174451  0.22502606  0.70841384  1  0.069684  0  -0.01306  0.088646  0  4.054126  0
C  C64  1  0.19587152  0.75573716  0.31573434  1  0.129149  0  -0.008213  0.025846  0  4.028857  0
C  C65  1  0.80412407  0.24426037  0.68426481  1  0.129173  0  -0.00819  0.025836  0  4.028951  0
C  C66  1  0.16407233  0.83195753  0.36877921  1  0.12715  0  -0.006133  0.033614  0  4.050806  0
C  C67  1  0.83592622  0.16803820  0.63122224  1  0.126684  0  -0.006203  0.033527  0  4.050928  0
C  C68  1  0.27395288  0.92770204  0.39647104  1  0.091939  0  -0.00795  0.024113  0  4.055741  0
C  C69  1  0.72604073  0.07229098  0.60352920  1  0.092895  0  -0.007933  0.024117  0  4.055707  0
C  C70  1  0.41516627  0.94296724  0.37094991  1  0.128168  0  -0.015808  0.087033  0  4.077317  0
C  C71  1  0.58482618  0.05703120  0.62905112  1  0.127886  0  -0.015741  0.087079  0  4.077279  0
C  C72  1  0.63846099  0.03298446  0.07566693  1  0.407757  0  -0.078467  0.044157  0  3.850819  0
C  C73  1  0.36153848  0.96703293  0.92433259  1  0.408227  0  -0.078533  0.043991  0  3.851035  0
C  C74  1  0.74638684  0.04765917  0.02310785  1  -0.009481  0  -0.176641  -0.189303  0  3.943728  0
C  C75  1  0.25362250  0.95234648  0.97689206  1  -0.009755  0  -0.176566  -0.188947  0  3.943521  0
C  C76  1  0.89867004  0.05625110  0.05938017  1  -0.0536  0  -0.174293  -0.175107  0  3.909422  0
C  C77  1  0.10133563  0.94375276  0.94062192  1  -0.053502  0  -0.174311  -0.175162  0  3.909433  0
C  C78  1  0.87674226  0.12761300  0.12262572  1  0.375763  0  -0.086684  0.032252  0  3.85075  0
C  C79  1  0.12326669  0.87239627  0.87737535  1  0.375544  0  -0.086711  0.032089  0  3.850937  0
Cl  Cl80  1  0.23076345  0.34088069  0.15405170  1  -0.192549  0  -0.015934  -0.060794  0  1.678357  0
Cl  Cl81  1  0.76923476  0.65911323  0.84594963  1  -0.192478  0  -0.015954  -0.060793  0  1.678353  0
Cl  Cl82  1  0.26107226  0.30114982  0.00783515  1  -0.180412  0  0.004474  -0.051873  0  1.782392  0
Cl  Cl83  1  0.73892723  0.69884501  0.99216862  1  -0.18041  0  0.00444  -0.051884  0  1.782364  0
Cl  Cl84  1  0.57669978  0.33838690  0.95312328  1  -0.157221  0  0.010332  -0.033648  0  1.729603  0
Cl  Cl85  1  0.42329440  0.66160341  0.04687822  1  -0.157305  0  0.010283  -0.033713  0  1.729524  0
Cl  Cl86  1  0.86357682  0.41236990  0.04538862  1  -0.174675  0  0.005793  -0.038596  0  1.746973  0
Cl  Cl87  1  0.13641387  0.58761950  0.95460852  1  -0.174777  0  0.005777  -0.038594  0  1.746941  0
Cl  Cl88  1  0.83541585  0.42890638  0.19101871  1  -0.2264  0  0.003265  -0.066705  0  1.801397  0
Cl  Cl89  1  0.16458708  0.57109477  0.80897893  1  -0.226423  0  0.00329  -0.066664  0  1.801451  0
Cl  Cl90  1  0.80300869  0.39012895  0.37043749  1  -0.225053  0  -0.00445  -0.080271  0  1.788665  0
Cl  Cl91  1  0.19699353  0.60986858  0.62956320  1  -0.225017  0  -0.004474  -0.080278  0  1.788688  0
Cl  Cl92  1  0.76621410  0.31881581  0.50550515  1  -0.169147  0  0.000176  -0.029813  0  1.792166  0
Cl  Cl93  1  0.23379383  0.68118263  0.49449383  1  -0.169107  0  0.000199  -0.02977  0  1.79217  0
Cl  Cl94  1  0.45269458  0.28424857  0.56034328  1  -0.184469  0  0.021871  -0.019342  0  1.836452  0
Cl  Cl95  1  0.54731132  0.71575076  0.43965618  1  -0.184437  0  0.021893  -0.019347  0  1.836461  0
Cl  Cl96  1  0.17640849  0.35008748  0.48463189  1  -0.171753  0  -0.003828  -0.047466  0  1.781607  0
Cl  Cl97  1  0.82360130  0.64990914  0.51536700  1  -0.171579  0  -0.003884  -0.047558  0  1.78154  0
Cl  Cl98  1  0.21451060  0.42899486  0.34935662  1  -0.193272  0  -0.026457  -0.07015  0  1.755862  0
Cl  Cl99  1  0.78549437  0.57100538  0.65064381  1  -0.193345  0  -0.026449  -0.070146  0  1.755714  0
Cl  Cl100  1  0.95944075  0.10296946  0.33933854  1  -0.189619  0  -0.001341  -0.058108  0  1.746316  0
Cl  Cl101  1  0.04056015  0.89703259  0.66066146  1  -0.189606  0  -0.001343  -0.058114  0  1.746307  0
Cl  Cl102  1  0.26531588  0.13930817  0.27982951  1  -0.175147  0  0.021269  -0.033701  0  1.916829  0
Cl  Cl103  1  0.73468529  0.86068395  0.72017083  1  -0.175164  0  0.021301  -0.033666  0  1.916867  0
Cl  Cl104  1  0.32414963  0.96846673  0.15882333  1  -0.184846  0  0.033972  -0.02848  0  1.754526  0
Cl  Cl105  1  0.67583827  0.03152539  0.84117440  1  -0.184887  0  0.033945  -0.028524  0  1.754552  0
Cl  Cl106  1  0.07359692  0.75921420  0.10047873  1  -0.163057  0  0.007945  -0.044695  0  1.780123  0
Cl  Cl107  1  0.92638558  0.24078424  0.89951741  1  -0.162893  0  0.007906  -0.044694  0  1.780121  0
Cl  Cl108  1  0.76227447  0.72751636  0.15762827  1  -0.206695  0  0.003268  -0.052824  0  1.810445  0
Cl  Cl109  1  0.23771055  0.27248930  0.84237165  1  -0.206876  0  0.003326  -0.052727  0  1.810402  0
Cl  Cl110  1  0.37319383  0.67785366  0.22625764  1  -0.200712  0  -0.00174  -0.051806  0  1.770158  0
Cl  Cl111  1  0.62679892  0.32215199  0.77373867  1  -0.200725  0  -0.001718  -0.051782  0  1.770202  0
Cl  Cl112  1  0.06104595  0.64083508  0.27997832  1  -0.188999  0  0.014092  -0.034849  0  1.894578  0
Cl  Cl113  1  0.93894964  0.35916246  0.72002036  1  -0.188924  0  0.014073  -0.034852  0  1.894519  0
Cl  Cl114  1  0.99353575  0.80777626  0.40123283  1  -0.173129  0  0.018035  -0.031202  0  1.830775  0
Cl  Cl115  1  0.00646158  0.19221314  0.59876820  1  -0.173193  0  0.018083  -0.031106  0  1.830791  0
Cl  Cl116  1  0.23443363  0.02219490  0.46036845  1  -0.156174  0  -0.000475  -0.039409  0  1.772253  0
Cl  Cl117  1  0.76556015  0.97779902  0.53963374  1  -0.156587  0  -0.000475  -0.039379  0  1.772359  0
Cl  Cl118  1  0.54926403  0.06025452  0.40633343  1  -0.201513  0  0.000175  -0.054446  0  1.807302  0
Cl  Cl119  1  0.45072767  0.93974572  0.59366675  1  -0.201372  0  0.000173  -0.054456  0  1.807318  0
O  O120  1  0.71733573  0.10213428  0.13242261  1  -1.040174  0  -0.243379  -0.254351  0  2.447587  0
O  O121  1  0.28267299  0.89787950  0.86757732  1  -1.04079  0  -0.243288  -0.254219  0  2.447949  0
