# generated using pymatgen
data_CoH8(CO2)4
_symmetry_space_group_name_H-M   'P 1'
_cell_length_a   6.67959115
_cell_length_b   8.03500517
_cell_length_c   8.03497616
_cell_angle_alpha   112.11692792
_cell_angle_beta   95.80142706
_cell_angle_gamma   95.80037098
_symmetry_Int_Tables_number   1
_chemical_formula_structural   CoH8(CO2)4
_chemical_formula_sum   'Co2 H16 C8 O16'
_cell_volume   392.90958991
_cell_formula_units_Z   2
loop_
 _symmetry_equiv_pos_site_id
 _symmetry_equiv_pos_as_xyz
  1  'x, y, z'
loop_
 _atom_site_type_symbol
 _atom_site_label
 _atom_site_symmetry_multiplicity
 _atom_site_fract_x
 _atom_site_fract_y
 _atom_site_fract_z
 _atom_site_occupancy
 _atom_site_pbe_cm5_charge
 _atom_site_pbe_ddec_charge
 _atom_site_pbe_ddec_spin_density
 _atom_site_pbe_ddec_sum_bond_order
 _atom_site_pbe_magmom
Co  Co0  1  0.00000038  0.00000029  0.50000338  1  0.646568  1.086973  2.83619  2.248017  2.643
Co  Co1  1  0.50000213  0.49999866  0.99999667  1  0.646572  1.086977  2.836175  2.247916  2.643
H  H2  1  0.94722627  0.90246376  0.77881987  1  0.290993  0.378352  -2.7e-05  0.962588  0.0
H  H3  1  0.55277143  0.22118640  0.09752688  1  0.290898  0.378192  -2.7e-05  0.962809  0.0
H  H4  1  0.05277152  0.09753430  0.22118666  1  0.290964  0.378273  -2.7e-05  0.962757  0.0
H  H5  1  0.44722455  0.77881029  0.90246281  1  0.290964  0.378269  -2.7e-05  0.96276  0.0
H  H6  1  0.75348203  0.97954200  0.73048654  1  0.306392  0.392476  0.000581  0.924154  0.001
H  H7  1  0.74652204  0.26952008  0.02045744  1  0.306388  0.392423  0.000581  0.924192  0.001
H  H8  1  0.24651641  0.02046013  0.26952158  1  0.306411  0.392528  0.00058  0.924088  0.001
H  H9  1  0.25347806  0.73048342  0.97953764  1  0.306422  0.392567  0.00058  0.923943  0.001
H  H10  1  0.61465033  0.84885780  0.34537996  1  0.299777  0.396105  0.000857  0.937697  0.002
H  H11  1  0.88534182  0.65461815  0.15114368  1  0.299766  0.396119  0.000857  0.937679  0.002
H  H12  1  0.38534634  0.15113346  0.65461769  1  0.299746  0.396021  0.000857  0.937731  0.002
H  H13  1  0.11465641  0.34538262  0.84886391  1  0.299764  0.396067  0.000857  0.937698  0.002
H  H14  1  0.62719292  0.05443064  0.35642611  1  0.296679  0.393122  0.00083  0.936517  0.002
H  H15  1  0.87279981  0.64356346  0.94556711  1  0.296684  0.393196  0.00083  0.93643  0.002
H  H16  1  0.37280763  0.94556608  0.64357391  1  0.296713  0.393258  0.00083  0.936358  0.002
H  H17  1  0.12720419  0.35643600  0.05443423  1  0.296742  0.393252  0.00083  0.936377  0.002
C  C18  1  0.00511258  0.39867313  0.55105423  1  0.099491  0.161751  -0.010225  4.13807  -0.006
C  C19  1  0.49488742  0.44894324  0.60132473  1  0.09944  0.16168  -0.010217  4.138228  -0.006
C  C20  1  0.99489070  0.60130326  0.44893335  1  0.099455  0.161688  -0.010223  4.137987  -0.006
C  C21  1  0.50511494  0.55107385  0.39869060  1  0.099444  0.161665  -0.010213  4.138039  -0.006
C  C22  1  0.00015373  0.59546589  0.63124652  1  0.10158  0.15261  0.003363  4.141191  0.006
C  C23  1  0.49984783  0.36874653  0.40452155  1  0.101655  0.152717  0.003365  4.141552  0.006
C  C24  1  0.99985032  0.40452406  0.36876118  1  0.101455  0.152296  0.003361  4.141673  0.006
C  C25  1  0.50015725  0.63125023  0.59548010  1  0.10153  0.152383  0.003363  4.141544  0.006
O  O26  1  0.01129823  0.28051803  0.61881267  1  -0.282662  -0.432866  0.024893  2.489996  0.044
O  O27  1  0.48870632  0.38118994  0.71947216  1  -0.282631  -0.432842  0.024892  2.490379  0.044
O  O28  1  0.98870240  0.71947868  0.38120105  1  -0.282633  -0.432818  0.024889  2.489983  0.044
O  O29  1  0.51129572  0.61880680  0.28052425  1  -0.282637  -0.432835  0.024889  2.490154  0.044
O  O30  1  0.99871762  0.70907501  0.79089930  1  -0.281674  -0.424218  0.001436  2.317222  0.002
O  O31  1  0.50127150  0.20911421  0.29093094  1  -0.281716  -0.42421  0.001436  2.317762  0.002
O  O32  1  0.00128325  0.29090543  0.20907842  1  -0.281722  -0.424217  0.001436  2.316955  0.002
O  O33  1  0.49872383  0.79092455  0.70909823  1  -0.281809  -0.424331  0.001437  2.317068  0.002
O  O34  1  0.90240793  0.00253306  0.74477600  1  -0.572244  -0.763251  0.029451  2.138599  0.046
O  O35  1  0.59759713  0.25522976  0.99746048  1  -0.572129  -0.76305  0.029449  2.138804  0.046
O  O36  1  0.09757112  0.99747029  0.25522605  1  -0.572228  -0.763256  0.02945  2.138622  0.046
O  O37  1  0.40242356  0.74477119  0.00252285  1  -0.572234  -0.763258  0.029448  2.138481  0.046
O  O38  1  0.69876100  0.97070306  0.39639275  1  -0.581513  -0.797423  0.030749  2.194188  0.048
O  O39  1  0.80123421  0.60361619  0.02930140  1  -0.581527  -0.797506  0.03075  2.194073  0.048
O  O40  1  0.30123618  0.02928141  0.60361856  1  -0.58154  -0.797391  0.030749  2.19424  0.048
O  O41  1  0.19876385  0.39638322  0.97071438  1  -0.581592  -0.797489  0.030746  2.19412  0.048
