# generated using pymatgen
data_NdH8C8NO9
_symmetry_space_group_name_H-M   'P 1'
_cell_length_a   6.69158025
_cell_length_b   8.15146652
_cell_length_c   10.45471277
_cell_angle_alpha   78.47440598
_cell_angle_beta   71.36442759
_cell_angle_gamma   85.76524934
_symmetry_Int_Tables_number   1
_chemical_formula_structural   NdH8C8NO9
_chemical_formula_sum   'Nd2 H16 C16 N2 O18'
_cell_volume   529.43903985
_cell_formula_units_Z   2
loop_
 _symmetry_equiv_pos_site_id
 _symmetry_equiv_pos_as_xyz
  1  'x, y, z'
loop_
 _atom_site_type_symbol
 _atom_site_label
 _atom_site_symmetry_multiplicity
 _atom_site_fract_x
 _atom_site_fract_y
 _atom_site_fract_z
 _atom_site_occupancy
 _atom_site_hle17_bader_spin_density
 _atom_site_hle17_ddec_charge
 _atom_site_hle17_ddec_spin_density
 _atom_site_hle17_ddec_sum_bond_order
 _atom_site_hle17_magmom
 _atom_site_hse06_10hf_bader_spin_density
 _atom_site_hse06_10hf_ddec_charge
 _atom_site_hse06_10hf_ddec_spin_density
 _atom_site_hse06_10hf_ddec_sum_bond_order
 _atom_site_hse06_10hf_magmom
 _atom_site_hse06_bader_spin_density
 _atom_site_hse06_ddec_charge
 _atom_site_hse06_ddec_spin_density
 _atom_site_hse06_ddec_sum_bond_order
 _atom_site_hse06_magmom
 _atom_site_pbe_bader_spin_density
 _atom_site_pbe_cm5_charge
 _atom_site_pbe_ddec_charge
 _atom_site_pbe_ddec_spin_density
 _atom_site_pbe_ddec_sum_bond_order
 _atom_site_pbe_magmom
Nd  Nd0  1  0.23031126  0.34345380  0.31813043  1  0  2.297109  0  1.58846  0  0  2.189017  0  1.943222  0  0  2.229103  0  1.903028  0  0  1.453561  2.097157  0  2.08899  0
Nd  Nd1  1  0.76969762  0.65655296  0.68186312  1  0  2.297151  0  1.588341  0  0  2.189067  0  1.943082  0  0  2.22915  0  1.902894  0  0  1.453579  2.097232  0  2.088786  0
H  H2  1  0.36855621  0.88519669  0.93173018  1  0  0.3018  0  0.916862  0  0  0.280218  0  0.979033  0  0  0.29017  0  0.971383  0  0  0.313349  0.273016  0  0.984709  0
H  H3  1  0.63142594  0.11480390  0.06827845  1  0  0.301859  0  0.916634  0  0  0.280256  0  0.978809  0  0  0.290214  0  0.971162  0  0  0.31331  0.273012  0  0.984556  0
H  H4  1  0.62717674  0.27998199  0.40761584  1  0  0.44849  0  0.820796  0  0  0.423864  0  0.88262  0  0  0.43289  0  0.869337  0  0  0.321066  0.417364  0  0.892042  0
H  H5  1  0.37281789  0.72002858  0.59238575  1  0  0.448398  0  0.820901  0  0  0.423814  0  0.882681  0  0  0.432837  0  0.869402  0  0  0.321056  0.417315  0  0.892102  0
H  H6  1  0.75157912  0.29247746  0.25208257  1  0  0.44474  0  0.843355  0  0  0.414768  0  0.905373  0  0  0.424591  0  0.891173  0  0  0.305102  0.407572  0  0.915592  0
H  H7  1  0.24842512  0.70752182  0.74791599  1  0  0.44477  0  0.843322  0  0  0.414815  0  0.905303  0  0  0.424637  0  0.891105  0  0  0.305141  0.407621  0  0.915517  0
H  H8  1  0.26368635  0.66152500  0.43564244  1  0  0.430522  0  0.8766  0  0  0.399059  0  0.942154  0  0  0.410667  0  0.924885  0  0  0.301353  0.390844  0  0.954078  0
H  H9  1  0.73631786  0.33847681  0.56435955  1  0  0.430499  0  0.876618  0  0  0.399029  0  0.942185  0  0  0.410642  0  0.924908  0  0  0.301348  0.390813  0  0.954106  0
H  H10  1  0.42900389  0.65915588  0.29213414  1  0  0.412362  0  0.86131  0  0  0.388725  0  0.931795  0  0  0.396395  0  0.923209  0  0  0.305485  0.383485  0  0.936518  0
H  H11  1  0.57099408  0.34084087  0.70786326  1  0  0.412333  0  0.861193  0  0  0.3887  0  0.931682  0  0  0.396368  0  0.923099  0  0  0.305475  0.383456  0  0.936406  0
H  H12  1  0.35226271  0.02012630  0.71815574  1  0  0.125523  0  0.939589  0  0  0.128935  0  1.008904  0  0  0.134207  0  1.002967  0  0  0.135324  0.124971  0  1.013505  0
H  H13  1  0.64774311  0.97987297  0.28184250  1  0  0.125558  0  0.939675  0  0  0.12898  0  1.008933  0  0  0.13425  0  1.002999  0  0  0.135359  0.125019  0  1.013534  0
H  H14  1  0.23002808  0.98789907  0.13855367  1  0  0.118719  0  0.930314  0  0  0.125513  0  0.996337  0  0  0.129529  0  0.992712  0  0  0.131253  0.122746  0  0.998785  0
H  H15  1  0.76995577  0.01209270  0.86145125  1  0  0.118746  0  0.930275  0  0  0.125542  0  0.996279  0  0  0.12956  0  0.992648  0  0  0.131252  0.122772  0  0.998725  0
H  H16  1  0.02364602  0.43240192  0.90463132  1  0  0.13041  0  0.968858  0  0  0.134874  0  1.037966  0  0  0.140062  0  1.033363  0  0  0.115131  0.131428  0  1.040781  0
H  H17  1  0.97634095  0.56759108  0.09536988  1  0  0.130381  0  0.96884  0  0  0.134862  0  1.037938  0  0  0.140054  0  1.033322  0  0  0.115151  0.131417  0  1.040753  0
C  C18  1  0.16009486  0.32454738  0.65852294  1  0  0.724407  0  3.857463  0  0  0.676791  0  4.147802  0  0  0.71215  0  4.136964  0  0  0.238214  0.652476  0  4.150711  0
C  C19  1  0.83991880  0.67545567  0.34147500  1  0  0.724253  0  3.857355  0  0  0.676671  0  4.147666  0  0  0.712031  0  4.136824  0  0  0.238102  0.652358  0  4.15058  0
C  C20  1  0.17953187  0.23803936  0.79624587  1  0  -0.096901  0  3.753454  0  0  -0.069169  0  3.989946  0  0  -0.078086  0  4.011227  0  0  -0.008006  -0.0642  0  3.977555  0
C  C21  1  0.82047549  0.76196372  0.20375718  1  0  -0.096756  0  3.753228  0  0  -0.069115  0  3.989764  0  0  -0.07803  0  4.011041  0  0  -0.008044  -0.06415  0  3.977384  0
C  C22  1  0.28063892  0.08239462  0.80491601  1  0  0.085949  0  3.604888  0  0  0.029255  0  3.869921  0  0  0.038286  0  3.88119  0  0  0.048133  0.02375  0  3.86299  0
C  C23  1  0.71934337  0.91759594  0.19509324  1  0  0.085884  0  3.605094  0  0  0.029246  0  3.870062  0  0  0.038276  0  3.881332  0  0  0.048106  0.023738  0  3.863132  0
C  C24  1  0.21122771  0.06441100  0.04496129  1  0  0.005192  0  3.552247  0  0  -0.046651  0  3.824151  0  0  -0.041646  0  3.837306  0  0  0.044909  -0.049165  0  3.814681  0
C  C25  1  0.78877502  0.93558456  0.95504297  1  0  0.005188  0  3.552447  0  0  -0.046612  0  3.82424  0  0  -0.041602  0  3.837392  0  0  0.044973  -0.049127  0  3.814754  0
C  C26  1  0.11054651  0.22387074  0.04423779  1  0  0.328551  0  3.934092  0  0  0.322518  0  4.203107  0  0  0.332118  0  4.220603  0  0  0.088652  0.315509  0  4.188883  0
C  C27  1  0.88944051  0.77611981  0.95576954  1  0  0.328642  0  3.934269  0  0  0.322611  0  4.20324  0  0  0.33221  0  4.220729  0  0  0.088667  0.315603  0  4.18902  0
C  C28  1  0.09707363  0.30838282  0.91402779  1  0  -0.125179  0  3.571586  0  0  -0.16291  0  3.823484  0  0  -0.162057  0  3.838136  0  0  -0.070433  -0.164105  0  3.815485  0
C  C29  1  0.90292890  0.69162649  0.08597143  1  0  -0.125146  0  3.571419  0  0  -0.162869  0  3.823286  0  0  -0.16202  0  3.837952  0  0  -0.070382  -0.164063  0  3.815288  0
C  C30  1  0.89967177  0.04924291  0.53387063  1  0  0.58206  0  3.889842  0  0  0.535031  0  4.192983  0  0  0.565688  0  4.182015  0  0  0.227229  0.514579  0  4.194243  0
C  C31  1  0.10035624  0.95074889  0.46612810  1  0  0.5823  0  3.889307  0  0  0.535086  0  4.192696  0  0  0.565745  0  4.181724  0  0  0.227374  0.514636  0  4.193958  0
C  C32  1  0.54448788  0.41175119  0.98892643  1  0  0.560798  0  3.92349  0  0  0.513991  0  4.228349  0  0  0.543609  0  4.219016  0  0  0.220884  0.494395  0  4.228253  0
C  C33  1  0.45549568  0.58826185  0.01107321  1  0  0.561001  0  3.92366  0  0  0.514105  0  4.228583  0  0  0.543727  0  4.219249  0  0  0.220882  0.494507  0  4.228494  0
N  N34  1  0.29149476  0.00290840  0.92842853  1  0  -0.194907  0  3.543234  0  0  -0.121728  0  3.777817  0  0  -0.136017  0  3.795911  0  0  -0.346599  -0.1126  0  3.766151  0
N  N35  1  0.70850486  0.99708340  0.07157601  1  0  -0.195065  0  3.543407  0  0  -0.121916  0  3.777958  0  0  -0.136212  0  3.796049  0  0  -0.346585  -0.112761  0  3.766321  0
O  O36  1  0.24746992  0.25278654  0.55717861  1  0  -0.701554  0  1.9985  0  0  -0.652666  0  2.23752  0  0  -0.678754  0  2.228846  0  0  -0.370503  -0.628254  0  2.245109  0
O  O37  1  0.75254220  0.74721271  0.44281548  1  0  -0.701548  0  1.998724  0  0  -0.652646  0  2.237749  0  0  -0.678733  0  2.229073  0  0  -0.370457  -0.628237  0  2.245338  0
O  O38  1  0.05592355  0.46064015  0.65289808  1  0  -0.734639  0  2.069848  0  0  -0.690366  0  2.335451  0  0  -0.712705  0  2.320075  0  0  -0.400322  -0.664556  0  2.344966  0
O  O39  1  0.94407145  0.53934289  0.34710883  1  0  -0.734601  0  2.069456  0  0  -0.690335  0  2.335039  0  0  -0.712679  0  2.319663  0  0  -0.400293  -0.664516  0  2.344559  0
O  O40  1  0.03875270  0.28759493  0.15613704  1  0  -0.742135  0  2.043979  0  0  -0.69242  0  2.284877  0  0  -0.716476  0  2.28149  0  0  -0.400604  -0.667613  0  2.287772  0
O  O41  1  0.96120911  0.71239439  0.84387757  1  0  -0.742231  0  2.044154  0  0  -0.692503  0  2.284985  0  0  -0.716581  0  2.281656  0  0  -0.400714  -0.667689  0  2.287846  0
O  O42  1  0.76069753  0.97286460  0.63659380  1  0  -0.642683  0  2.003451  0  0  -0.606298  0  2.248449  0  0  -0.627451  0  2.237085  0  0  -0.354341  -0.584752  0  2.257705  0
O  O43  1  0.23931602  0.02714589  0.36339436  1  0  -0.642723  0  2.003193  0  0  -0.606343  0  2.24834  0  0  -0.6275  0  2.236979  0  0  -0.354413  -0.584788  0  2.257598  0
O  O44  1  0.89351185  0.20287010  0.47834361  1  0  -0.686695  0  2.164925  0  0  -0.626962  0  2.396075  0  0  -0.651543  0  2.385845  0  0  -0.347217  -0.604132  0  2.404043  0
O  O45  1  0.10650825  0.79712152  0.52163763  1  0  -0.686653  0  2.16486  0  0  -0.626888  0  2.396117  0  0  -0.651459  0  2.385881  0  0  -0.347166  -0.604065  0  2.404088  0
O  O46  1  0.49663413  0.29466583  0.09385115  1  0  -0.654294  0  2.134478  0  0  -0.598578  0  2.369061  0  0  -0.623638  0  2.363339  0  0  -0.347095  -0.57482  0  2.37296  0
O  O47  1  0.50338252  0.70534840  0.90613481  1  0  -0.654306  0  2.134276  0  0  -0.598651  0  2.369045  0  0  -0.623716  0  2.363325  0  0  -0.347048  -0.574908  0  2.372934  0
O  O48  1  0.65692581  0.39622261  0.87004052  1  0  -0.655171  0  2.090068  0  0  -0.610691  0  2.335326  0  0  -0.632856  0  2.327456  0  0  -0.347102  -0.589385  0  2.341276  0
O  O49  1  0.34308141  0.60378914  0.12995065  1  0  -0.655194  0  2.090439  0  0  -0.610684  0  2.335722  0  0  -0.632846  0  2.327849  0  0  -0.347071  -0.589377  0  2.341677  0
O  O50  1  0.60746091  0.28111992  0.31888959  1  0  -0.888669  0  1.846566  0  0  -0.847124  0  2.037688  0  0  -0.864619  0  2.008143  0  0  -0.626991  -0.827304  0  2.062151  0
O  O51  1  0.39252904  0.71888688  0.68111165  1  0  -0.888585  0  1.846626  0  0  -0.847088  0  2.037714  0  0  -0.864576  0  2.008169  0  0  -0.626986  -0.82728  0  2.062176  0
O  O52  1  0.36773700  0.58714079  0.38112133  1  0  -0.874015  0  1.889618  0  0  -0.837092  0  2.087804  0  0  -0.853716  0  2.060799  0  0  -0.630534  -0.818499  0  2.108582  0
O  O53  1  0.63226718  0.41286353  0.61888027  1  0  -0.873941  0  1.889534  0  0  -0.837037  0  2.08775  0  0  -0.85365  0  2.060723  0  0  -0.630514  -0.818446  0  2.108534  0
