# generated using pymatgen
data_Zn4H40C62O13
_symmetry_space_group_name_H-M   'P 1'
_cell_length_a   21.64081437
_cell_length_b   21.64078806
_cell_length_c   34.51555862
_cell_angle_alpha   90.00003938
_cell_angle_beta   89.99979992
_cell_angle_gamma   89.99997326
_symmetry_Int_Tables_number   1
_chemical_formula_structural   Zn4H40C62O13
_chemical_formula_sum   'Zn8 H80 C124 O26'
_cell_volume   16164.47404291
_cell_formula_units_Z   2
loop_
 _symmetry_equiv_pos_site_id
 _symmetry_equiv_pos_as_xyz
  1  'x, y, z'
loop_
 _atom_site_type_symbol
 _atom_site_label
 _atom_site_symmetry_multiplicity
 _atom_site_fract_x
 _atom_site_fract_y
 _atom_site_fract_z
 _atom_site_occupancy
 _atom_site_pbe_bader_charge
 _atom_site_pbe_bader_spin_density
 _atom_site_pbe_cm5_charge
 _atom_site_pbe_ddec_charge
 _atom_site_pbe_ddec_spin_density
 _atom_site_pbe_ddec_sum_bond_order
 _atom_site_pbe_magmom
Zn  Zn0  1  0.55230432  0.55230510  0.03285079  1  1.308475  0  0.668688  0.96171  0  2.385314  0
Zn  Zn1  1  0.44769567  0.55230009  0.96714724  1  1.308723  0  0.668645  0.961657  0  2.38545  0
Zn  Zn2  1  0.44769506  0.44769849  0.03285175  1  1.308684  0  0.668657  0.961713  0  2.385325  0
Zn  Zn3  1  0.55230451  0.44769482  0.96714942  1  1.308506  0  0.668669  0.961698  0  2.385282  0
Zn  Zn4  1  0.44769801  0.44769734  0.46714749  1  1.308785  0  0.668638  0.961666  0  2.385338  0
Zn  Zn5  1  0.44769411  0.55230355  0.53285034  1  1.308495  0  0.668662  0.961655  0  2.385427  0
Zn  Zn6  1  0.55230542  0.55230534  0.46714942  1  1.308461  0  0.668678  0.961684  0  2.38525  0
Zn  Zn7  1  0.55230156  0.44769366  0.53285049  1  1.308743  0  0.668679  0.961717  0  2.385282  0
H  H8  1  0.25678632  0.43031008  0.04429636  1  0.104882  0  0.107308  0.112282  0  0.993012  0
H  H9  1  0.14163677  0.43006982  0.04442077  1  0.064296  0  0.101703  0.101059  0  1.001085  0
H  H10  1  0.25678606  0.56968951  0.95570392  1  0.10487  0  0.107301  0.112292  0  0.993046  0
H  H11  1  0.14163605  0.56993121  0.95557946  1  0.064649  0  0.101713  0.101112  0  1.001082  0
H  H12  1  0.05714438  0.50011353  0.93761547  1  0.060814  0  0.102231  0.101679  0  1.000098  0
H  H13  1  0.05714358  0.49988755  0.06238524  1  0.060843  0  0.102206  0.101598  0  1.000077  0
H  H14  1  0.74321299  0.56968798  0.04429672  1  0.104727  0  0.107316  0.112321  0  0.99304  0
H  H15  1  0.85836254  0.56992962  0.04442089  1  0.064314  0  0.101699  0.101082  0  1.001099  0
H  H16  1  0.74321326  0.43031093  0.95570335  1  0.104867  0  0.107309  0.112295  0  0.993006  0
H  H17  1  0.85836281  0.43006969  0.95557894  1  0.064293  0  0.101692  0.101054  0  1.001102  0
H  H18  1  0.94285378  0.50010961  0.06238514  1  0.060875  0  0.102243  0.101658  0  1.000138  0
H  H19  1  0.94285458  0.49989013  0.93761537  1  0.060846  0  0.102241  0.101664  0  1.000093  0
H  H20  1  0.56939253  0.56938818  0.15105920  1  0.095401  0  0.102568  0.107606  0  1.038152  0
H  H21  1  0.43061082  0.43061508  0.15105845  1  0.095132  0  0.102624  0.107728  0  1.038046  0
H  H22  1  0.43061442  0.43061103  0.34894168  1  0.095203  0  0.102605  0.107693  0  1.038072  0
H  H23  1  0.56938736  0.56939245  0.34894098  1  0.095406  0  0.102575  0.107629  0  1.03815  0
H  H24  1  0.43061023  0.56938351  0.84894173  1  0.095148  0  0.102632  0.10775  0  1.038036  0
H  H25  1  0.56939293  0.43061127  0.84894097  1  0.095374  0  0.102577  0.107611  0  1.038171  0
H  H26  1  0.56938701  0.43060885  0.65105832  1  0.095376  0  0.102564  0.107678  0  1.038057  0
H  H27  1  0.43061309  0.56939033  0.65105908  1  0.095178  0  0.10259  0.107683  0  1.038069  0
H  H28  1  0.42937922  0.25679510  0.04371407  1  0.097464  0  0.107037  0.112124  0  0.99355  0
H  H29  1  0.42919210  0.14164634  0.04386529  1  0.064596  0  0.10176  0.101315  0  1.001392  0
H  H30  1  0.57061952  0.25679557  0.95628469  1  0.097477  0  0.107019  0.112095  0  0.993521  0
H  H31  1  0.57080808  0.14164727  0.95613546  1  0.064625  0  0.101786  0.10136  0  1.001353  0
H  H32  1  0.59952871  0.05714897  0.99993711  1  0.065153  0  0.10247  0.102144  0  0.999363  0
H  H33  1  0.40047105  0.05714893  0.00006331  1  0.065244  0  0.102471  0.102147  0  0.999304  0
H  H34  1  0.42937888  0.74320303  0.95628553  1  0.097418  0  0.107024  0.112103  0  0.993567  0
H  H35  1  0.42919078  0.85835225  0.95613490  1  0.064588  0  0.101749  0.101289  0  1.001342  0
H  H36  1  0.57061871  0.74320249  0.04371431  1  0.097497  0  0.10703  0.112115  0  0.993525  0
H  H37  1  0.57080722  0.85835080  0.04386442  1  0.064694  0  0.101767  0.101315  0  1.001364  0
H  H38  1  0.40047130  0.94284921  0.99993693  1  0.065273  0  0.102473  0.102163  0  0.999374  0
H  H39  1  0.59952851  0.94284861  0.00006300  1  0.065151  0  0.102467  0.102167  0  0.99936  0
H  H40  1  0.56969015  0.74321335  0.45570330  1  0.104843  0  0.107317  0.112303  0  0.993001  0
H  H41  1  0.56993133  0.85836304  0.45557816  1  0.064269  0  0.101725  0.101109  0  1.001134  0
H  H42  1  0.43031160  0.74321435  0.54429596  1  0.1049  0  0.107303  0.1123  0  0.993043  0
H  H43  1  0.43006990  0.85836404  0.54441970  1  0.064314  0  0.10172  0.101078  0  1.001082  0
H  H44  1  0.49988929  0.94285449  0.56238401  1  0.060875  0  0.10224  0.101644  0  1.000084  0
H  H45  1  0.50010959  0.94285488  0.43761419  1  0.060786  0  0.102213  0.101622  0  1.000133  0
H  H46  1  0.43031011  0.25678655  0.45570393  1  0.104878  0  0.107307  0.112287  0  0.993022  0
H  H47  1  0.43006847  0.14163686  0.45557932  1  0.064261  0  0.101722  0.101132  0  1.001104  0
H  H48  1  0.56968863  0.25678564  0.54429629  1  0.104906  0  0.107333  0.112343  0  0.992988  0
H  H49  1  0.56992987  0.14163595  0.54442055  1  0.064315  0  0.101731  0.101092  0  1.001064  0
H  H50  1  0.49988661  0.05714545  0.43761429  1  0.060796  0  0.102217  0.101633  0  1.000095  0
H  H51  1  0.50011130  0.05714460  0.56238410  1  0.060888  0  0.102237  0.101668  0  1.000093  0
H  H52  1  0.74320261  0.57061932  0.45628571  1  0.097481  0  0.107013  0.112083  0  0.993547  0
H  H53  1  0.85835123  0.57080782  0.45613522  1  0.064659  0  0.10177  0.101336  0  1.001339  0
H  H54  1  0.74320378  0.42938005  0.54371495  1  0.09744  0  0.107007  0.112041  0  0.99358  0
H  H55  1  0.85835240  0.42919195  0.54386548  1  0.064609  0  0.101742  0.101272  0  1.001417  0
H  H56  1  0.94284889  0.40047114  0.50006310  1  0.065252  0  0.102463  0.102152  0  0.999366  0
H  H57  1  0.94284838  0.59952859  0.49993741  1  0.065144  0  0.102475  0.102179  0  0.999383  0
H  H58  1  0.25679414  0.57061994  0.54371522  1  0.09746  0  0.10703  0.112085  0  0.993539  0
H  H59  1  0.14164598  0.57080804  0.54386484  1  0.064587  0  0.101759  0.101271  0  1.001383  0
H  H60  1  0.25679534  0.42938012  0.45628563  1  0.097477  0  0.107019  0.112097  0  0.99355  0
H  H61  1  0.14164672  0.42919254  0.45613481  1  0.064609  0  0.101773  0.101345  0  1.001402  0
H  H62  1  0.05714881  0.59952880  0.50006325  1  0.065231  0  0.102474  0.102166  0  0.999368  0
H  H63  1  0.05714886  0.40047135  0.49993688  1  0.065232  0  0.102476  0.102152  0  0.999361  0
H  H64  1  0.61547959  0.67314833  0.28308775  1  0.042129  0  0.093634  0.125023  0  0.995678  0
H  H65  1  0.62160865  0.62142380  0.32249257  1  0.064149  0  0.093336  0.12841  0  1.022408  0
H  H66  1  0.67313963  0.61562037  0.28297381  1  0.042616  0  0.093738  0.12514  0  0.995632  0
H  H67  1  0.67314721  0.61547986  0.21691259  1  0.042109  0  0.093634  0.125019  0  0.995673  0
H  H68  1  0.62142329  0.62160902  0.17750752  1  0.064151  0  0.09333  0.128403  0  1.022422  0
H  H69  1  0.61561979  0.67313997  0.21702624  1  0.042595  0  0.093729  0.125111  0  0.995654  0
H  H70  1  0.38451932  0.32685323  0.28308735  1  0.042172  0  0.093635  0.125015  0  0.995657  0
H  H71  1  0.37839004  0.37857595  0.32249249  1  0.064158  0  0.093335  0.128405  0  1.022408  0
H  H72  1  0.32685974  0.38437933  0.28297414  1  0.042603  0  0.093718  0.12509  0  0.995684  0
H  H73  1  0.32685253  0.38451977  0.21691292  1  0.04215  0  0.093629  0.125024  0  0.995668  0
H  H74  1  0.37857574  0.37839057  0.17750773  1  0.064171  0  0.093349  0.128438  0  1.02238  0
H  H75  1  0.38437857  0.32686012  0.21702641  1  0.042605  0  0.093729  0.125127  0  0.995647  0
H  H76  1  0.38451896  0.67314584  0.71691294  1  0.04215  0  0.093653  0.125042  0  0.995636  0
H  H77  1  0.37838992  0.62142266  0.67750809  1  0.064173  0  0.093338  0.128398  0  1.022432  0
H  H78  1  0.32685894  0.61561976  0.71702656  1  0.042563  0  0.093702  0.125075  0  0.995699  0
H  H79  1  0.32685229  0.61547886  0.78308749  1  0.04208  0  0.093619  0.125006  0  0.995705  0
H  H80  1  0.37857481  0.62160804  0.82249285  1  0.064129  0  0.093352  0.128462  0  1.022327  0
H  H81  1  0.38437876  0.67313803  0.78297416  1  0.042664  0  0.093713  0.125097  0  0.995734  0
H  H82  1  0.61547892  0.32685156  0.71691290  1  0.04205  0  0.093604  0.124968  0  0.995728  0
H  H83  1  0.62160818  0.37857516  0.67750749  1  0.064135  0  0.093345  0.128404  0  1.022383  0
H  H84  1  0.67313940  0.38437811  0.71702613  1  0.042619  0  0.093715  0.125116  0  0.995712  0
H  H85  1  0.67314707  0.38451862  0.78308764  1  0.04218  0  0.093654  0.12506  0  0.995657  0
H  H86  1  0.62142294  0.37838948  0.82249254  1  0.064156  0  0.093358  0.128427  0  1.022443  0
H  H87  1  0.61562014  0.32685853  0.78297383  1  0.042551  0  0.093712  0.125113  0  0.995713  0
C  C88  1  0.49999535  0.66729351  0.00000105  1  1.58724  0  0.225521  0.605265  0  4.171505  0
C  C89  1  0.33269576  0.50000028  0.99999891  1  1.587071  0  0.225866  0.605447  0  4.172067  0
C  C90  1  0.50000203  0.50000207  0.10490414  1  1.563673  0  0.2281  0.608082  0  4.15755  0
C  C91  1  0.49999634  0.33270458  0.99999841  1  1.587258  0  0.225507  0.605238  0  4.171616  0
C  C92  1  0.66730518  0.49999920  0.00000054  1  1.587036  0  0.22588  0.605375  0  4.172059  0
C  C93  1  0.50000168  0.50000065  0.89509589  1  1.563678  0  0.227917  0.607879  0  4.157183  0
C  C94  1  0.33270501  0.49999678  0.50000179  1  1.587362  0  0.225585  0.6053  0  4.171609  0
C  C95  1  0.50000135  0.66730441  0.49999933  1  1.587071  0  0.225854  0.605331  0  4.17226  0
C  C96  1  0.50000030  0.49999991  0.39509587  1  1.56365  0  0.227907  0.607856  0  4.15715  0
C  C97  1  0.66729454  0.49999624  0.49999969  1  1.587233  0  0.225521  0.605223  0  4.171517  0
C  C98  1  0.50000051  0.33269553  0.50000070  1  1.587056  0  0.225909  0.605508  0  4.17206  0
C  C99  1  0.50000018  0.49999957  0.60490358  1  1.563648  0  0.228046  0.60815  0  4.157398  0
C  C100  1  0.26378846  0.50000030  0.99999957  1  0.043022  0  -0.022487  -0.049445  0  3.985945  0
C  C101  1  0.23107431  0.46096885  0.02514068  1  -0.073988  0  -0.082423  -0.082186  0  3.984687  0
C  C102  1  0.16682672  0.46124196  0.02524360  1  -0.085057  0  -0.09165  -0.139045  0  3.989941  0
C  C103  1  0.23107441  0.53903261  0.97485907  1  -0.074009  0  -0.08251  -0.082307  0  3.98468  0
C  C104  1  0.16682545  0.53875953  0.97475715  1  -0.085412  0  -0.091624  -0.139108  0  3.989899  0
C  C105  1  0.13362471  0.50000024  0.00000054  1  0.078144  0  -0.001771  0.080486  0  4.00264  0
C  C106  1  0.06545121  0.50000026  0.00000062  1  -0.080259  0  -0.008739  0.062908  0  4.014785  0
C  C107  1  0.03213970  0.50036354  0.96505732  1  -0.122251  0  -0.091594  -0.128162  0  4.002696  0
C  C108  1  0.03213906  0.49963708  0.03494344  1  -0.121097  0  -0.091626  -0.128137  0  4.002679  0
C  C109  1  0.73621063  0.49999872  0.00000075  1  0.042992  0  -0.022516  -0.049351  0  3.986041  0
C  C110  1  0.76892419  0.53903057  0.02514156  1  -0.073906  0  -0.082398  -0.08221  0  3.984652  0
C  C111  1  0.83317316  0.53875793  0.02524347  1  -0.085025  0  -0.091689  -0.139242  0  3.989967  0
C  C112  1  0.76892480  0.46096786  0.97485962  1  -0.074011  0  -0.082471  -0.082286  0  3.984726  0
C  C113  1  0.83317285  0.46124094  0.97475670  1  -0.085053  0  -0.091666  -0.139139  0  3.989953  0
C  C114  1  0.86637393  0.49999915  0.00000003  1  0.078143  0  -0.001741  0.080673  0  4.002497  0
C  C115  1  0.93454743  0.49999960  0.00000024  1  -0.080184  0  -0.008783  0.062909  0  4.014796  0
C  C116  1  0.96785893  0.50036142  0.03494358  1  0.056407  0  -0.091593  -0.128236  0  4.002776  0
C  C117  1  0.96785957  0.49963876  0.96505716  1  0.056504  0  -0.091615  -0.128279  0  4.002811  0
C  C118  1  0.53961403  0.53961248  0.16817180  1  0.004708  0  -0.08733  -0.142403  0  3.951517  0
C  C119  1  0.54077746  0.54078113  0.20879493  1  -0.028543  0  -0.006709  0.026103  0  4.005847  0
C  C120  1  0.58153741  0.58154397  0.22999432  1  -0.122562  0  -0.010661  0.057802  0  3.920232  0
C  C121  1  0.46038829  0.46038941  0.16817158  1  0.005015  0  -0.087445  -0.142607  0  3.951513  0
C  C122  1  0.45922279  0.45922034  0.20879442  1  -0.028904  0  -0.006657  0.026163  0  4.00573  0
C  C123  1  0.41846226  0.41845753  0.22999475  1  -0.122191  0  -0.010674  0.05779  0  3.920165  0
C  C124  1  0.46038783  0.46038950  0.33182821  1  0.004914  0  -0.08743  -0.142549  0  3.951633  0
C  C125  1  0.45921886  0.45922409  0.29120566  1  -0.028554  0  -0.006668  0.026143  0  4.005721  0
C  C126  1  0.41845660  0.41846309  0.27000569  1  0.06529  0  -0.010609  0.057907  0  3.92024  0
C  C127  1  0.53961265  0.53961395  0.33182843  1  0.004669  0  -0.087226  -0.142284  0  3.951459  0
C  C128  1  0.54078047  0.54077794  0.29120530  1  -0.028923  0  -0.006708  0.026103  0  4.005872  0
C  C129  1  0.58154285  0.58153845  0.27000584  1  0.065658  0  -0.010647  0.057873  0  3.920282  0
C  C130  1  0.50000099  0.50000070  0.14815333  1  -0.056993  0  -0.026839  -0.040102  0  4.039841  0
C  C131  1  0.50000030  0.50000075  0.22945956  1  -0.075798  0  0.000565  -0.002985  0  3.950348  0
C  C132  1  0.49999996  0.50000081  0.35184639  1  -0.056953  0  -0.02676  -0.040069  0  4.039539  0
C  C133  1  0.49999972  0.50000077  0.27054074  1  0.087148  0  0.000823  -0.00276  0  3.950255  0
C  C134  1  0.46038920  0.53961055  0.83182825  1  0.005022  0  -0.087485  -0.142693  0  3.95167  0
C  C135  1  0.45922253  0.54077823  0.79120570  1  -0.028929  0  -0.006594  0.026347  0  4.005677  0
C  C136  1  0.41846164  0.58154061  0.77000604  1  0.065674  0  -0.010658  0.057733  0  3.920118  0
C  C137  1  0.53961405  0.46038606  0.83182814  1  0.004727  0  -0.087202  -0.142213  0  3.951432  0
C  C138  1  0.54077771  0.45921741  0.79120501  1  -0.028539  0  -0.006776  0.025982  0  4.005844  0
C  C139  1  0.58153780  0.41845501  0.77000524  1  -0.122597  0  -0.010605  0.057933  0  3.920268  0
C  C140  1  0.53961174  0.46038689  0.66817093  1  0.004657  0  -0.087335  -0.142592  0  3.95148  0
C  C141  1  0.54078025  0.45922199  0.70879406  1  -0.028899  0  -0.006703  0.026116  0  4.005749  0
C  C142  1  0.58154253  0.41846100  0.72999372  1  0.065659  0  -0.010598  0.057945  0  3.920206  0
C  C143  1  0.46038827  0.53961185  0.66817162  1  0.004905  0  -0.087411  -0.142585  0  3.951478  0
C  C144  1  0.45921907  0.54077587  0.70879446  1  -0.028544  0  -0.006691  0.026118  0  4.005746  0
C  C145  1  0.41845621  0.58153550  0.72999481  1  -0.122531  0  -0.010626  0.057895  0  3.920054  0
C  C146  1  0.50000180  0.49999924  0.85184641  1  -0.057038  0  -0.026781  -0.040077  0  4.039529  0
C  C147  1  0.49999972  0.49999781  0.77054047  1  -0.075791  0  0.000562  -0.003072  0  3.950398  0
C  C148  1  0.50000006  0.50000005  0.64815306  1  -0.056932  0  -0.026706  -0.039894  0  4.039527  0
C  C149  1  0.49999937  0.49999825  0.72945929  1  0.087154  0  0.000692  -0.002838  0  3.950339  0
C  C150  1  0.49999867  0.26379859  0.99999984  1  0.006657  0  -0.023625  -0.050916  0  3.986522  0
C  C151  1  0.45992203  0.23107929  0.02448676  1  -0.04837  0  -0.081141  -0.08093  0  3.984013  0
C  C152  1  0.45976032  0.16682840  0.02430915  1  -0.073947  0  -0.091724  -0.139468  0  3.99121  0
C  C153  1  0.54007718  0.23107979  0.97551344  1  -0.048393  0  -0.081035  -0.080746  0  3.983922  0
C  C154  1  0.54024031  0.16682936  0.97569219  1  -0.073911  0  -0.091826  -0.139641  0  3.991284  0
C  C155  1  0.50000056  0.13361239  0.00000064  1  0.056399  0  -0.002461  0.079749  0  4.003412  0
C  C156  1  0.50000011  0.06543142  0.00000034  1  -0.099616  0  -0.008662  0.063685  0  4.013251  0
C  C157  1  0.55575494  0.03214158  0.99977461  1  -0.116509  0  -0.091812  -0.12881  0  4.000055  0
C  C158  1  0.44424529  0.03214198  0.00022580  1  -0.11661  0  -0.091789  -0.128803  0  4.000083  0
C  C159  1  0.49999856  0.73620005  0.99999936  1  0.006638  0  -0.023627  -0.050973  0  3.986534  0
C  C160  1  0.45992157  0.76891882  0.97551248  1  -0.048435  0  -0.081095  -0.080838  0  3.983924  0
C  C161  1  0.45975936  0.83316972  0.97569068  1  -0.073908  0  -0.091705  -0.139391  0  3.990966  0
C  C162  1  0.54007693  0.76891874  0.02448563  1  -0.048411  0  -0.081021  -0.080789  0  3.983976  0
C  C163  1  0.54024004  0.83316871  0.02430718  1  -0.073883  0  -0.091785  -0.139457  0  3.991156  0
C  C164  1  0.49999992  0.86638570  0.99999939  1  0.056377  0  -0.002457  0.079665  0  4.003186  0
C  C165  1  0.49999944  0.93456621  0.99999969  1  -0.098442  0  -0.008666  0.063662  0  4.012898  0
C  C166  1  0.44424506  0.96785614  0.99977436  1  0.060926  0  -0.091829  -0.128893  0  4.000159  0
C  C167  1  0.55575474  0.96785557  0.00022530  1  0.061049  0  -0.091849  -0.128938  0  4.000013  0
C  C168  1  0.50000134  0.73621133  0.50000050  1  0.043046  0  -0.022525  -0.049401  0  3.985945  0
C  C169  1  0.53903274  0.76892546  0.47485905  1  -0.074023  0  -0.082454  -0.082243  0  3.984667  0
C  C170  1  0.53875963  0.83317312  0.47475592  1  -0.085095  0  -0.091701  -0.139213  0  3.990054  0
C  C171  1  0.46096900  0.76892551  0.52514081  1  -0.074012  0  -0.082431  -0.082253  0  3.984643  0
C  C172  1  0.46124161  0.83317455  0.52524309  1  -0.08505  0  -0.091663  -0.13909  0  3.989878  0
C  C173  1  0.50000038  0.86637434  0.49999908  1  0.078152  0  -0.001772  0.080552  0  4.002571  0
C  C174  1  0.49999991  0.93454792  0.49999909  1  -0.080246  0  -0.008784  0.062914  0  4.014731  0
C  C175  1  0.49963798  0.96785911  0.53494218  1  0.056465  0  -0.091546  -0.128086  0  4.002678  0
C  C176  1  0.50036135  0.96785953  0.46505573  1  0.056569  0  -0.091602  -0.128214  0  4.002729  0
C  C177  1  0.49999960  0.26378815  0.49999924  1  0.043014  0  -0.022517  -0.049448  0  3.985952  0
C  C178  1  0.46096741  0.23107492  0.47485902  1  -0.074047  0  -0.082442  -0.082214  0  3.98467  0
C  C179  1  0.46124006  0.16682587  0.47475615  1  -0.085073  0  -0.091696  -0.139226  0  3.989934  0
C  C180  1  0.53903088  0.23107354  0.52514061  1  -0.073963  0  -0.08247  -0.082314  0  3.984645  0
C  C181  1  0.53875780  0.16682542  0.52524286  1  -0.085273  0  -0.091668  -0.139097  0  3.989859  0
C  C182  1  0.49999917  0.13362468  0.49999950  1  0.078353  0  -0.001753  0.08061  0  4.002484  0
C  C183  1  0.49999872  0.06545156  0.49999920  1  -0.080272  0  -0.008768  0.062896  0  4.01473  0
C  C184  1  0.49963609  0.03213991  0.46505611  1  -0.121096  0  -0.091563  -0.128134  0  4.002668  0
C  C185  1  0.50036184  0.03213949  0.53494227  1  -0.122289  0  -0.091695  -0.128368  0  4.002803  0
C  C186  1  0.73620091  0.49999992  0.50000077  1  0.006642  0  -0.023642  -0.051  0  3.986627  0
C  C187  1  0.76891878  0.54007746  0.47551411  1  -0.048428  0  -0.081037  -0.080758  0  3.984038  0
C  C188  1  0.83316914  0.54024056  0.47569222  1  -0.073889  0  -0.091715  -0.139441  0  3.991128  0
C  C189  1  0.76891959  0.45992282  0.52448794  1  -0.048425  0  -0.081044  -0.080705  0  3.983995  0
C  C190  1  0.83316994  0.45975969  0.52430911  1  -0.073926  0  -0.091722  -0.139401  0  3.991234  0
C  C191  1  0.86638548  0.50000035  0.50000063  1  0.056384  0  -0.002477  0.079632  0  4.003278  0
C  C192  1  0.93456637  0.49999987  0.50000026  1  -0.098443  0  -0.008631  0.063671  0  4.012959  0
C  C193  1  0.96785580  0.44424496  0.50022533  1  0.060968  0  -0.091842  -0.128914  0  4.000034  0
C  C194  1  0.96785531  0.55575476  0.49977483  1  0.061068  0  -0.091832  -0.128857  0  3.999999  0
C  C195  1  0.26379771  0.49999956  0.50000071  1  0.006671  0  -0.02361  -0.050887  0  3.986411  0
C  C196  1  0.23107844  0.54007761  0.52448681  1  -0.04835  0  -0.08107  -0.080811  0  3.98387  0
C  C197  1  0.16682809  0.54024028  0.52430841  1  -0.073947  0  -0.091754  -0.139397  0  3.991097  0
C  C198  1  0.23107860  0.45992200  0.47551352  1  -0.048347  0  -0.081112  -0.080861  0  3.983977  0
C  C199  1  0.16682824  0.45976028  0.47569119  1  -0.074008  0  -0.091765  -0.139579  0  3.991226  0
C  C200  1  0.13361176  0.50000052  0.49999969  1  0.056447  0  -0.00248  0.079668  0  4.003379  0
C  C201  1  0.06543087  0.50000007  0.50000006  1  -0.09993  0  -0.008644  0.063767  0  4.013225  0
C  C202  1  0.03214283  0.55575544  0.50022580  1  -0.116455  0  -0.091877  -0.128968  0  4.000042  0
C  C203  1  0.03214332  0.44424472  0.49977467  1  -0.116481  0  -0.091834  -0.128846  0  4.00002  0
C  C204  1  0.62473893  0.62472541  0.29097547  1  -0.101715  0  -0.235577  -0.394555  0  3.985994  0
C  C205  1  0.62472484  0.62473969  0.20902461  1  -0.101721  0  -0.235561  -0.394484  0  3.985985  0
C  C206  1  0.37526086  0.37527568  0.29097540  1  -0.10171  0  -0.235564  -0.39448  0  3.985937  0
C  C207  1  0.37527541  0.37526131  0.20902483  1  -0.101742  0  -0.235606  -0.394588  0  3.985853  0
C  C208  1  0.37525964  0.62472385  0.70902461  1  -0.101757  0  -0.235581  -0.394483  0  3.985823  0
C  C209  1  0.37527466  0.62473730  0.79097577  1  -0.101578  0  -0.235597  -0.394559  0  3.985857  0
C  C210  1  0.62473875  0.37527355  0.70902457  1  -0.101646  0  -0.23555  -0.394479  0  3.986029  0
C  C211  1  0.62472420  0.37525927  0.79097544  1  -0.101732  0  -0.235598  -0.394603  0  3.98609  0
O  O212  1  0.49999908  0.50000071  0.99999989  1  -1.218836  0  -0.572145  -1.026686  0  2.538911  0
O  O213  1  0.53742919  0.64056113  0.02322676  1  -1.187997  0  -0.317748  -0.551022  0  2.339499  0
O  O214  1  0.35943187  0.53729327  0.97668767  1  -1.187751  0  -0.317899  -0.551202  0  2.339775  0
O  O215  1  0.46279277  0.46279686  0.08808682  1  -1.179378  0  -0.317945  -0.549047  0  2.340935  0
O  O216  1  0.46255967  0.64055936  0.97677594  1  -1.188384  0  -0.317738  -0.551022  0  2.339431  0
O  O217  1  0.53721139  0.53720772  0.08808821  1  -1.179622  0  -0.317947  -0.548955  0  2.340959  0
O  O218  1  0.35943085  0.46270443  0.02331006  1  -1.187607  0  -0.317863  -0.551177  0  2.339555  0
O  O219  1  0.46256054  0.35943876  0.02322446  1  -1.188279  0  -0.317729  -0.551031  0  2.339421  0
O  O220  1  0.64057011  0.46270165  0.97669053  1  -1.187643  0  -0.317878  -0.55119  0  2.339542  0
O  O221  1  0.53742984  0.35943741  0.97677319  1  -1.188047  0  -0.317702  -0.55098  0  2.339553  0
O  O222  1  0.64056859  0.53729453  0.02331064  1  -1.187641  0  -0.317853  -0.551121  0  2.339625  0
O  O223  1  0.46279461  0.53720587  0.91191271  1  -1.17943  0  -0.317893  -0.548948  0  2.340985  0
O  O224  1  0.53721189  0.46279313  0.91191203  1  -1.179581  0  -0.31797  -0.548977  0  2.340902  0
O  O225  1  0.49999908  0.49999997  0.49999987  1  -1.218848  0  -0.572114  -1.026608  0  2.538876  0
O  O226  1  0.35943883  0.46256513  0.47677484  1  -1.188436  0  -0.317732  -0.551039  0  2.339525  0
O  O227  1  0.46270372  0.64056927  0.52331001  1  -1.187616  0  -0.317862  -0.55113  0  2.33957  0
O  O228  1  0.53720725  0.53720974  0.41191203  1  -1.17952  0  -0.317977  -0.548981  0  2.340852  0
O  O229  1  0.35943776  0.53742934  0.52322840  1  -1.188047  0  -0.317747  -0.550998  0  2.339578  0
O  O230  1  0.46279510  0.46279241  0.41191296  1  -1.179453  0  -0.317904  -0.548956  0  2.340989  0
O  O231  1  0.53729762  0.64057062  0.47669008  1  -1.187689  0  -0.317841  -0.5511  0  2.339773  0
O  O232  1  0.64056132  0.53742832  0.47677223  1  -1.188034  0  -0.317768  -0.551061  0  2.339489  0
O  O233  1  0.53729617  0.35942838  0.52331045  1  -1.187675  0  -0.317867  -0.551167  0  2.339801  0
O  O234  1  0.64056120  0.46256601  0.52322691  1  -1.18835  0  -0.317699  -0.550933  0  2.339434  0
O  O235  1  0.46270437  0.35943207  0.47668952  1  -1.187654  0  -0.317876  -0.55122  0  2.339466  0
O  O236  1  0.46279459  0.53721078  0.58808686  1  -1.17949  0  -0.317987  -0.549067  0  2.340831  0
O  O237  1  0.53720355  0.46279065  0.58808647  1  -1.179454  0  -0.317953  -0.549102  0  2.340977  0
