# generated using pymatgen
data_ZnH4C6(N3O2)2
_symmetry_space_group_name_H-M   'P 1'
_cell_length_a   9.24036851
_cell_length_b   10.12314267
_cell_length_c   11.48219935
_cell_angle_alpha   79.24250150
_cell_angle_beta   66.58342343
_cell_angle_gamma   87.01807268
_symmetry_Int_Tables_number   1
_chemical_formula_structural   ZnH4C6(N3O2)2
_chemical_formula_sum   'Zn4 H16 C24 N24 O16'
_cell_volume   967.98927370
_cell_formula_units_Z   4
loop_
 _symmetry_equiv_pos_site_id
 _symmetry_equiv_pos_as_xyz
  1  'x, y, z'
loop_
 _atom_site_type_symbol
 _atom_site_label
 _atom_site_symmetry_multiplicity
 _atom_site_fract_x
 _atom_site_fract_y
 _atom_site_fract_z
 _atom_site_occupancy
 _atom_site_hle17_bader_spin_density
 _atom_site_hle17_ddec_charge
 _atom_site_hle17_ddec_spin_density
 _atom_site_hle17_ddec_sum_bond_order
 _atom_site_hle17_magmom
 _atom_site_hse06_10hf_bader_spin_density
 _atom_site_hse06_10hf_ddec_charge
 _atom_site_hse06_10hf_ddec_spin_density
 _atom_site_hse06_10hf_ddec_sum_bond_order
 _atom_site_hse06_10hf_magmom
 _atom_site_hse06_bader_spin_density
 _atom_site_hse06_ddec_charge
 _atom_site_hse06_ddec_spin_density
 _atom_site_hse06_ddec_sum_bond_order
 _atom_site_hse06_magmom
 _atom_site_pbe_bader_spin_density
 _atom_site_pbe_cm5_charge
 _atom_site_pbe_ddec_charge
 _atom_site_pbe_ddec_spin_density
 _atom_site_pbe_ddec_sum_bond_order
 _atom_site_pbe_magmom
Zn  Zn0  1  0.97426315  0.42398993  0.66615707  1  0  0.841468  0  2.002318  0  0  0.628448  0  2.480351  0  0  0.667024  0  2.440719  0  0  0.740419  0.602145  0  2.507329  0
Zn  Zn1  1  0.02573763  0.57600964  0.33384320  1  0  0.841485  0  2.002327  0  0  0.628458  0  2.480366  0  0  0.66703  0  2.440739  0  0  0.74041  0.60215  0  2.507347  0
Zn  Zn2  1  0.91463571  0.14910278  0.94048268  1  0  0.871621  0  1.958017  0  0  0.659132  0  2.435726  0  0  0.698433  0  2.393715  0  0  0.750742  0.631542  0  2.465332  0
Zn  Zn3  1  0.08536275  0.85089780  0.05951730  1  0  0.871653  0  1.957988  0  0  0.659114  0  2.435752  0  0  0.698426  0  2.393743  0  0  0.750748  0.631534  0  2.465358  0
H  H4  1  0.55152282  0.09292149  0.00764875  1  0  0.124498  0  0.965405  0  0  0.130023  0  1.034125  0  0  0.132745  0  1.030438  0  0  0.129256  0.128065  0  1.036709  0
H  H5  1  0.44847685  0.90708009  0.99235155  1  0  0.124492  0  0.965464  0  0  0.130022  0  1.034114  0  0  0.132743  0  1.030428  0  0  0.129256  0.128064  0  1.036699  0
H  H6  1  0.65618234  0.36110601  0.63933077  1  0  0.124171  0  0.933078  0  0  0.13245  0  0.995348  0  0  0.135477  0  0.991187  0  0  0.13075  0.130179  0  0.998391  0
H  H7  1  0.34381726  0.63889356  0.36066813  1  0  0.124179  0  0.933067  0  0  0.132456  0  0.995343  0  0  0.135482  0  0.991186  0  0  0.130765  0.130186  0  0.998386  0
H  H8  1  0.10906579  0.29260603  0.05847518  1  0  0.116793  0  0.938958  0  0  0.127546  0  0.999705  0  0  0.129325  0  0.998223  0  0  0.129994  0.126021  0  1.001198  0
H  H9  1  0.89093378  0.70739254  0.94152564  1  0  0.116808  0  0.938911  0  0  0.12756  0  0.99966  0  0  0.129339  0  0.998177  0  0  0.130003  0.126036  0  1.001153  0
H  H10  1  0.24304344  0.58394452  0.69992145  1  0  0.123677  0  0.981779  0  0  0.129293  0  1.047761  0  0  0.132834  0  1.043396  0  0  0.126929  0.126547  0  1.051048  0
H  H11  1  0.75695728  0.41605303  0.30008004  1  0  0.123659  0  0.981774  0  0  0.129262  0  1.047777  0  0  0.132828  0  1.043379  0  0  0.126905  0.126516  0  1.051063  0
H  H12  1  0.20995092  0.32690058  0.20988721  1  0  0.117523  0  0.964751  0  0  0.124617  0  1.032472  0  0  0.128069  0  1.027749  0  0  0.126003  0.121946  0  1.03613  0
H  H13  1  0.79004990  0.67310000  0.79011201  1  0  0.117542  0  0.964779  0  0  0.124625  0  1.032462  0  0  0.128077  0  1.02774  0  0  0.126004  0.121955  0  1.036122  0
H  H14  1  0.25587135  0.21838736  0.57787894  1  0  0.132567  0  0.946625  0  0  0.138844  0  1.01215  0  0  0.141896  0  1.008552  0  0  0.131085  0.136675  0  1.014633  0
H  H15  1  0.74412825  0.78161222  0.42212084  1  0  0.132564  0  0.946678  0  0  0.138839  0  1.012166  0  0  0.141892  0  1.008569  0  0  0.131088  0.136672  0  1.014647  0
H  H16  1  0.03065607  0.94237492  0.32824741  1  0  0.134231  0  0.947898  0  0  0.139777  0  1.01452  0  0  0.142761  0  1.011422  0  0  0.131192  0.137575  0  1.016702  0
H  H17  1  0.96934471  0.05762465  0.67175199  1  0  0.134227  0  0.947902  0  0  0.13977  0  1.01453  0  0  0.142754  0  1.011434  0  0  0.131188  0.137568  0  1.016713  0
H  H18  1  0.72587204  0.23444357  0.21459120  1  0  0.116552  0  0.987766  0  0  0.120923  0  1.058132  0  0  0.123645  0  1.055288  0  0  0.125701  0.118736  0  1.060483  0
H  H19  1  0.27412759  0.76555700  0.78540927  1  0  0.116572  0  0.987736  0  0  0.120936  0  1.058103  0  0  0.123658  0  1.055259  0  0  0.125711  0.118749  0  1.060456  0
C  C20  1  0.60281772  0.16289627  0.91724326  1  0  0.068263  0  3.64199  0  0  0.012722  0  3.911076  0  0  0.025682  0  3.921642  0  0  0.043047  0.004479  0  3.903634  0
C  C21  1  0.39718191  0.83710431  0.08275722  1  0  0.068283  0  3.642004  0  0  0.012755  0  3.911059  0  0  0.025713  0  3.921628  0  0  0.04306  0.004513  0  3.903617  0
C  C22  1  0.54081772  0.21491060  0.82518920  1  0  -0.036354  0  3.743762  0  0  -0.042681  0  4.016054  0  0  -0.054864  0  4.038275  0  0  0.062886  -0.034893  0  4.000785  0
C  C23  1  0.45918076  0.78509098  0.17481148  1  0  -0.036352  0  3.743695  0  0  -0.042713  0  4.01607  0  0  -0.054896  0  4.038289  0  0  0.062869  -0.034921  0  4.000796  0
C  C24  1  0.65724933  0.30264325  0.72817417  1  0  0.061411  0  3.664946  0  0  -0.000154  0  3.944799  0  0  0.013141  0  3.954856  0  0  0.038148  -0.008534  0  3.937633  0
C  C25  1  0.34275027  0.69735633  0.27182560  1  0  0.061364  0  3.664899  0  0  -0.000187  0  3.944781  0  0  0.013108  0  3.954836  0  0  0.038129  -0.008568  0  3.937616  0
C  C26  1  0.12093596  0.35360354  0.96685322  1  0  0.036495  0  3.704536  0  0  -0.020246  0  3.987593  0  0  -0.009504  0  4.002346  0  0  0.028655  -0.02708  0  3.977601  0
C  C27  1  0.87906476  0.64639401  0.03314827  1  0  0.036492  0  3.704542  0  0  -0.020248  0  3.9876  0  0  -0.009506  0  4.002353  0  0  0.028656  -0.027079  0  3.977613  0
C  C28  1  0.21939041  0.46605355  0.89497548  1  0  -0.035271  0  3.768485  0  0  -0.053472  0  4.035464  0  0  -0.065684  0  4.060706  0  0  0.055514  -0.045766  0  4.018816  0
C  C29  1  0.78060920  0.53394603  0.10502429  1  0  -0.035222  0  3.768421  0  0  -0.053444  0  4.035408  0  0  -0.065652  0  4.060648  0  0  0.055522  -0.045752  0  4.018776  0
C  C30  1  0.19165927  0.50245768  0.78161952  1  0  0.028865  0  3.668921  0  0  -0.022674  0  3.938965  0  0  -0.012426  0  3.952291  0  0  0.030707  -0.028808  0  3.929628  0
C  C31  1  0.80834148  0.49754088  0.21838093  1  0  0.028854  0  3.668876  0  0  -0.022662  0  3.938919  0  0  -0.012434  0  3.952228  0  0  0.030733  -0.028793  0  3.929582  0
C  C32  1  0.19575335  0.31478289  0.30960580  1  0  0.047287  0  3.669856  0  0  -0.009893  0  3.943595  0  0  0.001249  0  3.956444  0  0  0.031774  -0.01655  0  3.934366  0
C  C33  1  0.80424628  0.68521769  0.69039380  1  0  0.047492  0  3.668658  0  0  -0.009928  0  3.943593  0  0  0.001215  0  3.956435  0  0  0.031788  -0.016589  0  3.934368  0
C  C34  1  0.27059061  0.22640993  0.37579030  1  0  -0.024389  0  3.742801  0  0  -0.029719  0  4.009553  0  0  -0.0402  0  4.031399  0  0  0.06337  -0.023101  0  3.994831  0
C  C35  1  0.72940663  0.77358965  0.62421023  1  0  -0.016109  0  3.748413  0  0  -0.029657  0  4.009525  0  0  -0.040139  0  4.031373  0  0  0.063394  -0.023039  0  3.994804  0
C  C36  1  0.22289228  0.26094162  0.49801044  1  0  0.03862  0  3.659383  0  0  -0.012771  0  3.925769  0  0  -0.002043  0  3.938928  0  0  0.037395  -0.019719  0  3.916819  0
C  C37  1  0.77710730  0.73905695  0.50198950  1  0  0.038875  0  3.658254  0  0  -0.012762  0  3.925776  0  0  -0.002035  0  3.938938  0  0  0.037388  -0.01971  0  3.916825  0
C  C38  1  0.96459895  0.00464898  0.27979261  1  0  0.036829  0  3.649309  0  0  -0.014958  0  3.920053  0  0  -0.004374  0  3.933629  0  0  0.038688  -0.021518  0  3.91064  0
C  C39  1  0.03540068  0.99535160  0.72020786  1  0  0.036823  0  3.649276  0  0  -0.01495  0  3.920003  0  0  -0.004366  0  3.933576  0  0  0.038688  -0.021509  0  3.910589  0
C  C40  1  0.85872000  0.10743436  0.32123588  1  0  -0.037039  0  3.746087  0  0  -0.04404  0  4.016368  0  0  -0.056161  0  4.040457  0  0  0.06314  -0.036308  0  4.000089  0
C  C41  1  0.14127963  0.89256622  0.67876459  1  0  -0.037035  0  3.745992  0  0  -0.044039  0  4.016274  0  0  -0.05616  0  4.040364  0  0  0.06314  -0.03631  0  4.000001  0
C  C42  1  0.80949282  0.15678868  0.22077189  1  0  0.038221  0  3.674795  0  0  -0.017646  0  3.950674  0  0  -0.00687  0  3.964079  0  0  0.032546  -0.024303  0  3.941595  0
C  C43  1  0.19050563  0.84321189  0.77922983  1  0  0.038238  0  3.674794  0  0  -0.017639  0  3.950632  0  0  -0.006859  0  3.964035  0  0  0.032547  -0.024295  0  3.941556  0
N  N44  1  0.78146280  0.30208651  0.76004843  1  0  -0.25147  0  3.238403  0  0  -0.177847  0  3.540414  0  0  -0.19462  0  3.55553  0  0  -0.265936  -0.166655  0  3.530018  0
N  N45  1  0.21853801  0.69791407  0.23995080  1  0  -0.251448  0  3.238441  0  0  -0.177843  0  3.540465  0  0  -0.194615  0  3.55558  0  0  -0.265941  -0.166649  0  3.530065  0
N  N46  1  0.74785782  0.21488278  0.87645731  1  0  -0.245708  0  3.241594  0  0  -0.171725  0  3.541542  0  0  -0.188428  0  3.556375  0  0  -0.268931  -0.160396  0  3.531224  0
N  N47  1  0.25214182  0.78511780  0.12354316  1  0  -0.245711  0  3.241599  0  0  -0.171708  0  3.541546  0  0  -0.188413  0  3.556382  0  0  -0.268921  -0.160381  0  3.531231  0
N  N48  1  0.39473093  0.17765132  0.82698323  1  0  0.526848  0  3.972112  0  0  0.551656  0  4.270225  0  0  0.574613  0  4.27936  0  0  0.047687  0.536329  0  4.264088  0
N  N49  1  0.60526992  0.82235027  0.17301495  1  0  0.526906  0  3.972091  0  0  0.551708  0  4.270258  0  0  0.574666  0  4.279389  0  0  0.047707  0.53638  0  4.264122  0
N  N50  1  0.08221694  0.41723881  0.78734011  1  0  -0.232175  0  3.249188  0  0  -0.155433  0  3.547754  0  0  -0.171193  0  3.562572  0  0  -0.262943  -0.144924  0  3.537494  0
N  N51  1  0.91778384  0.58276076  0.21266104  1  0  -0.232199  0  3.249236  0  0  -0.155454  0  3.547794  0  0  -0.171213  0  3.562616  0  0  -0.262959  -0.144946  0  3.537537  0
N  N52  1  0.04034113  0.32431849  0.90048250  1  0  -0.251193  0  3.241195  0  0  -0.185024  0  3.543785  0  0  -0.200584  0  3.559623  0  0  -0.262326  -0.174352  0  3.533166  0
N  N53  1  0.95966080  0.67568008  0.09951757  1  0  -0.251193  0  3.241213  0  0  -0.185011  0  3.543787  0  0  -0.200573  0  3.559626  0  0  -0.262312  -0.174341  0  3.53317  0
N  N54  1  0.32292570  0.53126138  0.93151819  1  0  0.483273  0  4.014607  0  0  0.545327  0  4.265209  0  0  0.567792  0  4.274297  0  0  0.047956  0.530345  0  4.258863  0
N  N55  1  0.67707384  0.46873618  0.06848367  1  0  0.483219  0  4.014635  0  0  0.545293  0  4.265232  0  0  0.567757  0  4.27432  0  0  0.047902  0.530315  0  4.258887  0
N  N56  1  0.12281867  0.36287009  0.50464804  1  0  -0.256434  0  3.247618  0  0  -0.181309  0  3.544768  0  0  -0.197668  0  3.560028  0  0  -0.270844  -0.170341  0  3.534397  0
N  N57  1  0.87718097  0.63713049  0.49535069  1  0  -0.256502  0  3.247786  0  0  -0.18137  0  3.544767  0  0  -0.197731  0  3.560022  0  0  -0.27087  -0.170402  0  3.534395  0
N  N58  1  0.10696312  0.39683964  0.38787577  1  0  -0.254036  0  3.238943  0  0  -0.179171  0  3.537545  0  0  -0.195723  0  3.553339  0  0  -0.269874  -0.168097  0  3.526568  0
N  N59  1  0.89303769  0.60316093  0.61212433  1  0  -0.253959  0  3.239016  0  0  -0.179122  0  3.537452  0  0  -0.195667  0  3.55324  0  0  -0.269864  -0.168048  0  3.526479  0
N  N60  1  0.37554335  0.12354680  0.32632833  1  0  0.521584  0  3.970265  0  0  0.549245  0  4.267951  0  0  0.571665  0  4.276893  0  0  0.04917  0.534275  0  4.262006  0
N  N61  1  0.62445747  0.87645378  0.67367090  1  0  0.493343  0  4.014616  0  0  0.549213  0  4.268073  0  0  0.571634  0  4.277018  0  0  0.049125  0.534244  0  4.262128  0
N  N62  1  0.88264314  0.08887438  0.12504987  1  0  -0.230807  0  3.243884  0  0  -0.155619  0  3.539405  0  0  -0.170904  0  3.552725  0  0  -0.262491  -0.145262  0  3.530266  0
N  N63  1  0.11735531  0.91112619  0.87495186  1  0  -0.230848  0  3.243874  0  0  -0.155647  0  3.539394  0  0  -0.170932  0  3.552709  0  0  -0.262517  -0.145292  0  3.530258  0
N  N64  1  0.97691202  0.99428361  0.16170769  1  0  -0.235296  0  3.230145  0  0  -0.162086  0  3.527259  0  0  -0.177684  0  3.540995  0  0  -0.258908  -0.151462  0  3.518082  0
N  N65  1  0.02308758  0.00571596  0.83829209  1  0  -0.235241  0  3.230169  0  0  -0.162051  0  3.52728  0  0  -0.177646  0  3.541016  0  0  -0.25888  -0.151424  0  3.518099  0
N  N66  1  0.81289334  0.15671366  0.43819822  1  0  0.52704  0  3.967918  0  0  0.551925  0  4.267359  0  0  0.574429  0  4.277729  0  0  0.052086  0.536964  0  4.26017  0
N  N67  1  0.18710512  0.84328692  0.56180263  1  0  0.526995  0  3.967913  0  0  0.551869  0  4.267395  0  0  0.574373  0  4.277765  0  0  0.052075  0.53691  0  4.260205  0
O  O68  1  0.36342050  0.22160453  0.73102388  1  0  -0.377155  0  1.744899  0  0  -0.358817  0  1.957291  0  0  -0.371194  0  1.95362  0  0  -0.140246  -0.350537  0  1.959959  0
O  O69  1  0.63657917  0.77839705  0.26897555  1  0  -0.377211  0  1.744841  0  0  -0.358857  0  1.957241  0  0  -0.371234  0  1.953567  0  0  -0.140263  -0.350578  0  1.959915  0
O  O70  1  0.30344204  0.10277714  0.92648453  1  0  -0.417299  0  1.778651  0  0  -0.39638  0  2.010246  0  0  -0.410782  0  2.006274  0  0  -0.149465  -0.386621  0  2.013157  0
O  O71  1  0.69655756  0.89722243  0.07351525  1  0  -0.417299  0  1.778758  0  0  -0.396367  0  2.010359  0  0  -0.410769  0  2.006387  0  0  -0.149451  -0.386608  0  2.013271  0
O  O72  1  0.41154648  0.62411683  0.85100654  1  0  -0.367303  0  1.767329  0  0  -0.35833  0  1.962084  0  0  -0.372395  0  1.95968  0  0  -0.140869  -0.348839  0  1.963745  0
O  O73  1  0.58845315  0.37588375  0.14899480  1  0  -0.367303  0  1.767607  0  0  -0.358297  0  1.962203  0  0  -0.372361  0  1.9598  0  0  -0.140837  -0.348804  0  1.963858  0
O  O74  1  0.31884500  0.49358485  0.04240121  1  0  -0.354169  0  1.787064  0  0  -0.352101  0  1.994338  0  0  -0.364185  0  1.990682  0  0  -0.132121  -0.344093  0  1.99704  0
O  O75  1  0.68115463  0.50641573  0.95759927  1  0  -0.354167  0  1.78698  0  0  -0.352108  0  1.994246  0  0  -0.364194  0  1.990591  0  0  -0.132118  -0.3441  0  1.996947  0
O  O76  1  0.44892485  0.06529281  0.39066519  1  0  -0.35581  0  1.719228  0  0  -0.343654  0  1.926237  0  0  -0.355553  0  1.922897  0  0  -0.137696  -0.335576  0  1.928552  0
O  O77  1  0.55107478  0.93470776  0.60933529  1  0  -0.346087  0  1.733017  0  0  -0.343634  0  1.926315  0  0  -0.35553  0  1.922968  0  0  -0.137657  -0.335556  0  1.928628  0
O  O78  1  0.38716875  0.09783664  0.22079049  1  0  -0.389011  0  1.735127  0  0  -0.37099  0  1.94772  0  0  -0.385126  0  1.944453  0  0  -0.147233  -0.361457  0  1.949924  0
O  O79  1  0.61283563  0.90216494  0.77920830  1  0  -0.379387  0  1.748802  0  0  -0.371006  0  1.947761  0  0  -0.385144  0  1.944494  0  0  -0.14724  -0.361465  0  1.949949  0
O  O80  1  0.72570280  0.25647429  0.45185505  1  0  -0.39074  0  1.749292  0  0  -0.364079  0  1.953795  0  0  -0.378219  0  1.94899  0  0  -0.138118  -0.354491  0  1.957186  0
O  O81  1  0.27429562  0.74352528  0.54814597  1  0  -0.390739  0  1.749262  0  0  -0.364081  0  1.953768  0  0  -0.378217  0  1.948962  0  0  -0.138148  -0.354494  0  1.957159  0
O  O82  1  0.86318757  0.10019408  0.52015951  1  0  -0.37608  0  1.76808  0  0  -0.361113  0  1.990211  0  0  -0.374413  0  1.989166  0  0  -0.136845  -0.352151  0  1.991114  0
O  O83  1  0.13681324  0.89980649  0.47984146  1  0  -0.37615  0  1.76842  0  0  -0.36109  0  1.990269  0  0  -0.37439  0  1.989225  0  0  -0.136819  -0.352126  0  1.99117  0
