# generated using pymatgen
data_Hg2H8C8SO4
_symmetry_space_group_name_H-M   'P 1'
_cell_length_a   5.20874319
_cell_length_b   6.52899430
_cell_length_c   17.03138999
_cell_angle_alpha   90.00031882
_cell_angle_beta   90.00037285
_cell_angle_gamma   105.57996180
_symmetry_Int_Tables_number   1
_chemical_formula_structural   Hg2H8C8SO4
_chemical_formula_sum   'Hg4 H16 C16 S2 O8'
_cell_volume   557.91919394
_cell_formula_units_Z   2
loop_
 _symmetry_equiv_pos_site_id
 _symmetry_equiv_pos_as_xyz
  1  'x, y, z'
loop_
 _atom_site_type_symbol
 _atom_site_label
 _atom_site_symmetry_multiplicity
 _atom_site_fract_x
 _atom_site_fract_y
 _atom_site_fract_z
 _atom_site_occupancy
 _atom_site_hle17_bader_spin_density
 _atom_site_hle17_ddec_charge
 _atom_site_hle17_ddec_spin_density
 _atom_site_hle17_ddec_sum_bond_order
 _atom_site_hle17_magmom
 _atom_site_hse06_10hf_bader_spin_density
 _atom_site_hse06_10hf_ddec_charge
 _atom_site_hse06_10hf_ddec_spin_density
 _atom_site_hse06_10hf_ddec_sum_bond_order
 _atom_site_hse06_10hf_magmom
 _atom_site_hse06_bader_spin_density
 _atom_site_hse06_ddec_charge
 _atom_site_hse06_ddec_spin_density
 _atom_site_hse06_ddec_sum_bond_order
 _atom_site_hse06_magmom
 _atom_site_pbe_bader_spin_density
 _atom_site_pbe_cm5_charge
 _atom_site_pbe_ddec_charge
 _atom_site_pbe_ddec_spin_density
 _atom_site_pbe_ddec_sum_bond_order
 _atom_site_pbe_magmom
Hg  Hg0  1  0.89704014  0.73457560  0.56218361  1  0  0.806901  0  1.850346  0  0  0.681997  0  2.267411  0  0  0.723588  0  2.237388  0  0  0.565941  0.65303  0  2.287968  0
Hg  Hg1  1  0.10295865  0.26542634  0.06218556  1  0  0.806938  0  1.850458  0  0  0.682009  0  2.267544  0  0  0.723597  0  2.237518  0  0  0.565946  0.653036  0  2.288114  0
Hg  Hg2  1  0.10295851  0.26542548  0.43781609  1  0  0.80691  0  1.850431  0  0  0.681997  0  2.267502  0  0  0.723586  0  2.237482  0  0  0.565943  0.653033  0  2.288063  0
Hg  Hg3  1  0.89703999  0.73457474  0.93781590  1  0  0.806933  0  1.85032  0  0  0.682018  0  2.267373  0  0  0.723602  0  2.237352  0  0  0.565927  0.653041  0  2.287938  0
H  H4  1  0.24055837  0.46842935  0.67223124  1  0  0.101814  0  0.967402  0  0  0.113864  0  1.030755  0  0  0.115354  0  1.030552  0  0  0.095426  0.112715  0  1.030997  0
H  H5  1  0.75943315  0.53156694  0.17223094  1  0  0.101836  0  0.967371  0  0  0.113918  0  1.030679  0  0  0.115407  0  1.030477  0  0  0.095451  0.112769  0  1.030924  0
H  H6  1  0.75943619  0.53156537  0.32777022  1  0  0.101804  0  0.967374  0  0  0.113883  0  1.030695  0  0  0.115371  0  1.030496  0  0  0.095426  0.112738  0  1.030936  0
H  H7  1  0.24055811  0.46842938  0.82776993  1  0  0.101821  0  0.96738  0  0  0.11387  0  1.030737  0  0  0.11536  0  1.030535  0  0  0.095431  0.112719  0  1.030981  0
H  H8  1  0.22764401  0.81090321  0.35993706  1  0  0.140545  0  0.965237  0  0  0.155528  0  1.031024  0  0  0.157708  0  1.030971  0  0  0.089731  0.153904  0  1.031232  0
H  H9  1  0.77236296  0.18909854  0.85994370  1  0  0.140579  0  0.965218  0  0  0.155526  0  1.031046  0  0  0.1577  0  1.030999  0  0  0.089712  0.153904  0  1.031244  0
H  H10  1  0.77236477  0.18909942  0.64005912  1  0  0.140548  0  0.96523  0  0  0.155515  0  1.031033  0  0  0.157685  0  1.031011  0  0  0.089711  0.153897  0  1.031214  0
H  H11  1  0.22763844  0.81089935  0.14005659  1  0  0.140586  0  0.965207  0  0  0.155532  0  1.031036  0  0  0.157706  0  1.030987  0  0  0.089716  0.153907  0  1.031248  0
H  H12  1  0.52825718  0.78256214  0.31552345  1  0  0.140057  0  0.943535  0  0  0.162051  0  0.99788  0  0  0.164763  0  0.996922  0  0  0.097633  0.160144  0  0.998586  0
H  H13  1  0.47175045  0.21743869  0.81552662  1  0  0.140098  0  0.943622  0  0  0.162059  0  0.997985  0  0  0.164769  0  0.997029  0  0  0.097624  0.160152  0  0.99869  0
H  H14  1  0.47175298  0.21743890  0.68447566  1  0  0.140096  0  0.943535  0  0  0.162061  0  0.997909  0  0  0.164774  0  0.996949  0  0  0.097628  0.160154  0  0.998612  0
H  H15  1  0.52824903  0.78255921  0.18447425  1  0  0.140091  0  0.943574  0  0  0.162051  0  0.997948  0  0  0.164763  0  0.996989  0  0  0.09762  0.160148  0  0.998652  0
H  H16  1  0.52575185  0.02789424  0.35767541  1  0  0.133671  0  0.971911  0  0  0.146539  0  1.045777  0  0  0.148526  0  1.046223  0  0  0.089503  0.145127  0  1.045521  0
H  H17  1  0.47425314  0.97210747  0.85768017  1  0  0.133668  0  0.971942  0  0  0.146545  0  1.045785  0  0  0.148533  0  1.046229  0  0  0.089485  0.145133  0  1.045533  0
H  H18  1  0.47425447  0.97210681  0.64232253  1  0  0.133662  0  0.971929  0  0  0.146529  0  1.045786  0  0  0.148517  0  1.046229  0  0  0.089501  0.145116  0  1.045535  0
H  H19  1  0.52574496  0.02789202  0.14232246  1  0  0.13366  0  0.97195  0  0  0.146533  0  1.045798  0  0  0.148519  0  1.046241  0  0  0.089491  0.14512  0  1.045545  0
C  C20  1  0.98343857  0.68130429  0.67642388  1  0  -0.324428  0  3.746109  0  0  -0.273937  0  4.053494  0  0  -0.289378  0  4.084526  0  0  -0.145699  -0.263665  0  4.032465  0
C  C21  1  0.01656183  0.31869525  0.17642283  1  0  -0.324465  0  3.746103  0  0  -0.27397  0  4.053476  0  0  -0.289409  0  4.084506  0  0  -0.145724  -0.263701  0  4.032458  0
C  C22  1  0.01656338  0.31869519  0.32357817  1  0  -0.324465  0  3.746096  0  0  -0.273976  0  4.053489  0  0  -0.289418  0  4.084523  0  0  -0.145723  -0.263705  0  4.032462  0
C  C23  1  0.98343436  0.68130424  0.82357452  1  0  -0.324453  0  3.74616  0  0  -0.273956  0  4.053519  0  0  -0.289395  0  4.084554  0  0  -0.145709  -0.263684  0  4.032493  0
C  C24  1  0.13471429  0.55704426  0.70813317  1  0  -0.086134  0  3.844178  0  0  -0.110324  0  4.098347  0  0  -0.110355  0  4.123316  0  0  -0.125869  -0.110195  0  4.081343  0
C  C25  1  0.86527880  0.44295437  0.20813407  1  0  -0.086169  0  3.844146  0  0  -0.11037  0  4.098294  0  0  -0.110401  0  4.123264  0  0  -0.125887  -0.11024  0  4.081298  0
C  C26  1  0.86528082  0.44295205  0.29186711  1  0  -0.086116  0  3.844109  0  0  -0.110324  0  4.098268  0  0  -0.110356  0  4.123242  0  0  -0.125864  -0.110192  0  4.081266  0
C  C27  1  0.13470972  0.55704515  0.79186739  1  0  -0.086108  0  3.844171  0  0  -0.110286  0  4.098318  0  0  -0.110319  0  4.123289  0  0  -0.12586  -0.11016  0  4.081319  0
C  C28  1  0.53413814  0.78788869  0.44159010  1  0  0.731391  0  3.823853  0  0  0.692644  0  4.110387  0  0  0.726864  0  4.104437  0  0  0.198705  0.669368  0  4.113566  0
C  C29  1  0.46585910  0.21211320  0.94159148  1  0  0.731548  0  3.823736  0  0  0.692698  0  4.110365  0  0  0.72692  0  4.104415  0  0  0.198726  0.66942  0  4.113549  0
C  C30  1  0.46585860  0.21211239  0.55840960  1  0  0.731572  0  3.823806  0  0  0.692717  0  4.110494  0  0  0.726939  0  4.10454  0  0  0.198733  0.669439  0  4.113674  0
C  C31  1  0.53414092  0.78788628  0.05840704  1  0  0.73152  0  3.823853  0  0  0.692679  0  4.110486  0  0  0.7269  0  4.104533  0  0  0.198697  0.6694  0  4.113677  0
C  C32  1  0.44492114  0.85483876  0.36400569  1  0  -0.467226  0  3.66379  0  0  -0.543796  0  3.896698  0  0  -0.552343  0  3.900801  0  0  -0.254113  -0.537756  0  3.893755  0
C  C33  1  0.55508266  0.14516468  0.86401004  1  0  -0.467348  0  3.66375  0  0  -0.54387  0  3.896803  0  0  -0.552419  0  3.900917  0  0  -0.254097  -0.537806  0  3.893796  0
C  C34  1  0.55508435  0.14516548  0.63599283  1  0  -0.467309  0  3.663671  0  0  -0.543801  0  3.896693  0  0  -0.552352  0  3.900793  0  0  -0.254089  -0.537758  0  3.893738  0
C  C35  1  0.44491929  0.85483479  0.13599142  1  0  -0.467302  0  3.663664  0  0  -0.543828  0  3.896721  0  0  -0.552388  0  3.900865  0  0  -0.254102  -0.537762  0  3.893712  0
S  S36  1  0.84538836  0.79753663  0.74999977  1  0  0.145383  0  2.845194  0  0  0.166117  0  3.159719  0  0  0.162075  0  3.181122  0  0  0.050326  0.168637  0  3.145326  0
S  S37  1  0.15461112  0.20246127  0.25000051  1  0  0.145438  0  2.845065  0  0  0.166177  0  3.159595  0  0  0.162138  0  3.180998  0  0  0.050372  0.168709  0  3.145203  0
O  O38  1  0.79217589  0.81191974  0.44731040  1  0  -0.600387  0  2.032372  0  0  -0.517309  0  2.293336  0  0  -0.549008  0  2.282809  0  0  -0.311592  -0.495217  0  2.299615  0
O  O39  1  0.20782727  0.18808226  0.94731181  1  0  -0.600432  0  2.03253  0  0  -0.517279  0  2.293491  0  0  -0.548966  0  2.282937  0  0  -0.311546  -0.495184  0  2.299763  0
O  O40  1  0.20782084  0.18808135  0.55269105  1  0  -0.600457  0  2.032372  0  0  -0.517327  0  2.293356  0  0  -0.549028  0  2.282834  0  0  -0.311577  -0.495228  0  2.299627  0
O  O41  1  0.79218097  0.81191879  0.05268965  1  0  -0.600436  0  2.032412  0  0  -0.517294  0  2.293393  0  0  -0.548981  0  2.28284  0  0  -0.311541  -0.495201  0  2.299676  0
O  O42  1  0.37628207  0.71618905  0.49655954  1  0  -0.648887  0  1.980761  0  0  -0.590321  0  2.226415  0  0  -0.616755  0  2.215205  0  0  -0.324843  -0.57179  0  2.233412  0
O  O43  1  0.62371835  0.28381876  0.99656432  1  0  -0.648992  0  1.980694  0  0  -0.590376  0  2.2264  0  0  -0.616812  0  2.215185  0  0  -0.324864  -0.571853  0  2.233405  0
O  O44  1  0.62370891  0.28381205  0.50343781  1  0  -0.648988  0  1.980841  0  0  -0.590366  0  2.226539  0  0  -0.616797  0  2.215325  0  0  -0.324873  -0.571841  0  2.233542  0
O  O45  1  0.37628659  0.71618389  0.00343596  1  0  -0.648968  0  1.980887  0  0  -0.590347  0  2.226582  0  0  -0.616783  0  2.215368  0  0  -0.324833  -0.571821  0  2.233586  0
