# generated using pymatgen
data_NaH9C7(NO3)2
_symmetry_space_group_name_H-M   'P 1'
_cell_length_a   6.53541990
_cell_length_b   6.82549963
_cell_length_c   11.77999866
_cell_angle_alpha   75.86280879
_cell_angle_beta   87.15086369
_cell_angle_gamma   66.79953632
_symmetry_Int_Tables_number   1
_chemical_formula_structural   NaH9C7(NO3)2
_chemical_formula_sum   'Na2 H18 C14 N4 O12'
_cell_volume   467.71626158
_cell_formula_units_Z   2
loop_
 _symmetry_equiv_pos_site_id
 _symmetry_equiv_pos_as_xyz
  1  'x, y, z'
loop_
 _atom_site_type_symbol
 _atom_site_label
 _atom_site_symmetry_multiplicity
 _atom_site_fract_x
 _atom_site_fract_y
 _atom_site_fract_z
 _atom_site_occupancy
 _atom_site_hle17_bader_spin_density
 _atom_site_hle17_ddec_charge
 _atom_site_hle17_ddec_spin_density
 _atom_site_hle17_ddec_sum_bond_order
 _atom_site_hle17_magmom
 _atom_site_hse06_10hf_bader_spin_density
 _atom_site_hse06_10hf_ddec_charge
 _atom_site_hse06_10hf_ddec_spin_density
 _atom_site_hse06_10hf_ddec_sum_bond_order
 _atom_site_hse06_10hf_magmom
 _atom_site_hse06_bader_spin_density
 _atom_site_hse06_ddec_charge
 _atom_site_hse06_ddec_spin_density
 _atom_site_hse06_ddec_sum_bond_order
 _atom_site_hse06_magmom
 _atom_site_pbe_bader_spin_density
 _atom_site_pbe_cm5_charge
 _atom_site_pbe_ddec_charge
 _atom_site_pbe_ddec_spin_density
 _atom_site_pbe_ddec_sum_bond_order
 _atom_site_pbe_magmom
Na  Na0  1  0.72199324  0.58166092  0.94081217  1  0  0.89418  0  0.369422  0  0  0.840525  0  0.529836  0  0  0.852507  0  0.505984  0  0  0.642938  0.831743  0  0.546949  0
Na  Na1  1  0.27799971  0.41834689  0.05918745  1  0  0.894182  0  0.369435  0  0  0.840532  0  0.529833  0  0  0.852513  0  0.505984  0  0  0.642936  0.831749  0  0.546946  0
H  H2  1  0.80075563  0.75305216  0.17183990  1  0  0.326809  0  0.922134  0  0  0.312788  0  0.977464  0  0  0.320873  0  0.970738  0  0  0.30413  0.306983  0  0.982299  0
H  H3  1  0.19923929  0.24695072  0.82816123  1  0  0.326779  0  0.922178  0  0  0.312735  0  0.977542  0  0  0.320823  0  0.97081  0  0  0.304093  0.30693  0  0.982378  0
H  H4  1  0.75405459  0.94615616  0.25291368  1  0  0.323006  0  0.919921  0  0  0.304898  0  0.987548  0  0  0.311947  0  0.981815  0  0  0.297727  0.299779  0  0.991776  0
H  H5  1  0.24594129  0.05384012  0.74708413  1  0  0.323051  0  0.919775  0  0  0.304932  0  0.987414  0  0  0.311979  0  0.981689  0  0  0.297727  0.299812  0  0.991641  0
H  H6  1  0.66576556  0.86803409  0.45718826  1  0  0.129132  0  0.954541  0  0  0.134377  0  1.021489  0  0  0.138606  0  1.018101  0  0  0.113871  0.131213  0  1.024206  0
H  H7  1  0.33423492  0.13196217  0.54280939  1  0  0.129134  0  0.954514  0  0  0.134349  0  1.021506  0  0  0.138579  0  1.01812  0  0  0.113871  0.131185  0  1.024221  0
H  H8  1  0.79507652  0.19223085  0.62749806  1  0  0.130388  0  0.943936  0  0  0.135035  0  1.009066  0  0  0.139477  0  1.005976  0  0  0.112594  0.131781  0  1.011429  0
H  H9  1  0.20492604  0.80777197  0.37250110  1  0  0.130364  0  0.943839  0  0  0.134985  0  1.009017  0  0  0.139426  0  1.005929  0  0  0.112579  0.131735  0  1.011387  0
H  H10  1  0.86030936  0.10246708  0.43083254  1  0  0.098915  0  0.96947  0  0  0.107767  0  1.035434  0  0  0.110731  0  1.033635  0  0  0.104084  0.105606  0  1.036829  0
H  H11  1  0.13969725  0.89753740  0.56917048  1  0  0.098921  0  0.969361  0  0  0.107766  0  1.035343  0  0  0.110734  0  1.033535  0  0  0.10407  0.105597  0  1.036755  0
H  H12  1  0.57349302  0.03803085  0.83673582  1  0  0.395818  0  0.904376  0  0  0.363459  0  0.978108  0  0  0.372778  0  0.964744  0  0  0.289474  0.356968  0  0.9874  0
H  H13  1  0.42650036  0.96197204  0.16326535  1  0  0.395812  0  0.904416  0  0  0.363461  0  0.978113  0  0  0.372779  0  0.964749  0  0  0.28949  0.356968  0  0.987407  0
H  H14  1  0.83990632  0.93752720  0.84510804  1  0  0.411859  0  0.894587  0  0  0.378244  0  0.963355  0  0  0.388784  0  0.947745  0  0  0.290737  0.370825  0  0.974333  0
H  H15  1  0.16008855  0.06247566  0.15489139  1  0  0.411899  0  0.89453  0  0  0.378267  0  0.963341  0  0  0.388806  0  0.94773  0  0  0.290771  0.370848  0  0.974319  0
H  H16  1  0.69037416  0.13568766  0.97524554  1  0  0.430531  0  0.868795  0  0  0.405874  0  0.921129  0  0  0.416217  0  0.905989  0  0  0.286992  0.398556  0  0.931834  0
H  H17  1  0.30961944  0.86431850  0.02475431  1  0  0.430399  0  0.868983  0  0  0.405813  0  0.921176  0  0  0.416148  0  0.906053  0  0  0.286987  0.398499  0  0.931876  0
H  H18  1  0.76920070  0.18851543  0.08738441  1  0  0.407771  0  0.901916  0  0  0.3788  0  0.96354  0  0  0.389382  0  0.947777  0  0  0.288512  0.371321  0  0.974668  0
H  H19  1  0.23079070  0.81149238  0.91261442  1  0  0.407852  0  0.901824  0  0  0.378858  0  0.963488  0  0  0.389439  0  0.947728  0  0  0.288526  0.371378  0  0.974619  0
C  C20  1  0.80622992  0.42825794  0.33496786  1  0  -0.16969  0  3.668663  0  0  -0.161663  0  3.922199  0  0  -0.172717  0  3.945057  0  0  -0.025904  -0.154371  0  3.906915  0
C  C21  1  0.19377064  0.57173513  0.66504299  1  0  -0.169753  0  3.668833  0  0  -0.161807  0  3.922404  0  0  -0.172861  0  3.945258  0  0  -0.025941  -0.154542  0  3.907158  0
C  C22  1  0.74847910  0.65017830  0.34009249  1  0  0.322116  0  3.775436  0  0  0.308011  0  4.028133  0  0  0.318946  0  4.048725  0  0  0.111228  0.300477  0  4.013969  0
C  C23  1  0.25152564  0.34982287  0.65990684  1  0  0.322114  0  3.775476  0  0  0.308066  0  4.028088  0  0  0.319003  0  4.048678  0  0  0.11122  0.30054  0  4.013926  0
C  C24  1  0.71078875  0.70019742  0.45044091  1  0  -0.208378  0  3.665969  0  0  -0.231146  0  3.920106  0  0  -0.236754  0  3.9391  0  0  -0.086536  -0.227416  0  3.906998  0
C  C25  1  0.28921680  0.29980536  0.54955475  1  0  -0.208291  0  3.665933  0  0  -0.231094  0  3.920039  0  0  -0.236686  0  3.939004  0  0  -0.086479  -0.227372  0  3.906961  0
C  C26  1  0.72937119  0.53555333  0.55032254  1  0  0.097994  0  3.762112  0  0  0.085283  0  4.013536  0  0  0.086242  0  4.037962  0  0  0.076545  0.085626  0  3.996178  0
C  C27  1  0.27063814  0.46443956  0.44967019  1  0  0.097916  0  3.762387  0  0  0.085262  0  4.013613  0  0  0.086204  0  4.038049  0  0  0.076557  0.085599  0  3.99627  0
C  C28  1  0.78165418  0.31723114  0.54741297  1  0  -0.135413  0  3.736644  0  0  -0.162159  0  4.005338  0  0  -0.166119  0  4.025142  0  0  -0.097594  -0.159674  0  3.991746  0
C  C29  1  0.21835201  0.68275853  0.45258714  1  0  -0.135478  0  3.736311  0  0  -0.16225  0  4.005001  0  0  -0.166205  0  4.024809  0  0  -0.097649  -0.159775  0  3.991422  0
C  C30  1  0.81765806  0.26933753  0.43856200  1  0  -0.04695  0  3.754946  0  0  -0.076907  0  4.021101  0  0  -0.075662  0  4.041432  0  0  -0.089549  -0.077659  0  4.007434  0
C  C31  1  0.18235722  0.73064885  0.56144337  1  0  -0.046805  0  3.75441  0  0  -0.076736  0  4.020566  0  0  -0.075491  0  4.040895  0  0  -0.089446  -0.077482  0  4.006907  0
C  C32  1  0.87064846  0.35423254  0.22355718  1  0  0.667317  0  3.894863  0  0  0.613224  0  4.198831  0  0  0.647003  0  4.190903  0  0  0.21077  0.590329  0  4.203442  0
C  C33  1  0.12935790  0.64576040  0.77643990  1  0  0.667271  0  3.895067  0  0  0.613222  0  4.198969  0  0  0.646998  0  4.191037  0  0  0.210694  0.590338  0  4.203584  0
N  N34  1  0.72455789  0.81566234  0.24103480  1  0  -0.657972  0  3.107404  0  0  -0.612844  0  3.328854  0  0  -0.634392  0  3.327807  0  0  -0.581467  -0.597549  0  3.329366  0
N  N35  1  0.27544441  0.18433720  0.75896400  1  0  -0.657999  0  3.107284  0  0  -0.612846  0  3.32872  0  0  -0.634399  0  3.327674  0  0  -0.581391  -0.597549  0  3.329229  0
N  N36  1  0.69001472  0.59502320  0.66286082  1  0  0.461238  0  3.949022  0  0  0.50525  0  4.231153  0  0  0.521761  0  4.241873  0  0  0.051728  0.492426  0  4.224317  0
N  N37  1  0.30998686  0.40497475  0.33714503  1  0  0.461417  0  3.948961  0  0  0.505597  0  4.230747  0  0  0.522138  0  4.241463  0  0  0.051739  0.492777  0  4.223912  0
O  O38  1  0.89563531  0.48838507  0.13306304  1  0  -0.708735  0  1.952456  0  0  -0.660225  0  2.19194  0  0  -0.682547  0  2.179336  0  0  -0.402436  -0.644622  0  2.200284  0
O  O39  1  0.10436744  0.51162102  0.86693393  1  0  -0.708771  0  1.95247  0  0  -0.660245  0  2.19188  0  0  -0.682563  0  2.179271  0  0  -0.402459  -0.644643  0  2.200221  0
O  O40  1  0.90511291  0.15474438  0.22561239  1  0  -0.667308  0  1.994084  0  0  -0.601418  0  2.213703  0  0  -0.626572  0  2.202712  0  0  -0.31797  -0.583773  0  2.220832  0
O  O41  1  0.09488872  0.84524534  0.77438958  1  0  -0.667277  0  1.994118  0  0  -0.601376  0  2.213681  0  0  -0.626527  0  2.202688  0  0  -0.317904  -0.583733  0  2.220806  0
O  O42  1  0.63836191  0.79042140  0.66453516  1  0  -0.361278  0  1.785203  0  0  -0.342965  0  1.994078  0  0  -0.352463  0  1.991433  0  0  -0.12216  -0.335754  0  1.995992  0
O  O43  1  0.36163363  0.20959129  0.33546110  1  0  -0.361295  0  1.785408  0  0  -0.343037  0  1.994155  0  0  -0.352552  0  1.99151  0  0  -0.122112  -0.33583  0  1.996077  0
O  O44  1  0.70967053  0.44708737  0.75305508  1  0  -0.366661  0  1.783282  0  0  -0.352798  0  1.995266  0  0  -0.360976  0  1.99097  0  0  -0.136683  -0.346569  0  1.998461  0
O  O45  1  0.29032543  0.55290894  0.24694612  1  0  -0.366821  0  1.782868  0  0  -0.35301  0  1.994746  0  0  -0.361192  0  1.990423  0  0  -0.136782  -0.34678  0  1.99794  0
O  O46  1  0.70586820  0.95701594  0.89219369  1  0  -0.84833  0  1.861429  0  0  -0.793711  0  2.029735  0  0  -0.811938  0  1.997885  0  0  -0.615211  -0.780853  0  2.051916  0
O  O47  1  0.29413043  0.04298528  0.10780755  1  0  -0.848316  0  1.8614  0  0  -0.793728  0  2.029638  0  0  -0.811949  0  1.997796  0  0  -0.61525  -0.780872  0  2.051823  0
O  O48  1  0.66353788  0.25198907  0.01829656  1  0  -0.926347  0  1.77282  0  0  -0.877715  0  1.941017  0  0  -0.895138  0  1.90771  0  0  -0.705826  -0.865391  0  1.964357  0
O  O49  1  0.33645194  0.74801873  0.98170063  1  0  -0.926317  0  1.772893  0  0  -0.8777  0  1.94106  0  0  -0.895119  0  1.907758  0  0  -0.705842  -0.865379  0  1.964397  0
