# generated using pymatgen
data_ThH22C22(NO5)2
_symmetry_space_group_name_H-M   'P 1'
_cell_length_a   9.61998102
_cell_length_b   9.61999686
_cell_length_c   13.47381598
_cell_angle_alpha   80.23887238
_cell_angle_beta   80.23868352
_cell_angle_gamma   74.54584298
_symmetry_Int_Tables_number   1
_chemical_formula_structural   ThH22C22(NO5)2
_chemical_formula_sum   'Th2 H44 C44 N4 O20'
_cell_volume   1174.24492232
_cell_formula_units_Z   2
loop_
 _symmetry_equiv_pos_site_id
 _symmetry_equiv_pos_as_xyz
  1  'x, y, z'
loop_
 _atom_site_type_symbol
 _atom_site_label
 _atom_site_symmetry_multiplicity
 _atom_site_fract_x
 _atom_site_fract_y
 _atom_site_fract_z
 _atom_site_occupancy
 _atom_site_hle17_bader_spin_density
 _atom_site_hle17_ddec_charge
 _atom_site_hle17_ddec_spin_density
 _atom_site_hle17_ddec_sum_bond_order
 _atom_site_hle17_magmom
 _atom_site_hse06_10hf_bader_spin_density
 _atom_site_hse06_10hf_ddec_charge
 _atom_site_hse06_10hf_ddec_spin_density
 _atom_site_hse06_10hf_ddec_sum_bond_order
 _atom_site_hse06_10hf_magmom
 _atom_site_hse06_bader_spin_density
 _atom_site_hse06_ddec_charge
 _atom_site_hse06_ddec_spin_density
 _atom_site_hse06_ddec_sum_bond_order
 _atom_site_hse06_magmom
 _atom_site_pbe_bader_spin_density
 _atom_site_pbe_cm5_charge
 _atom_site_pbe_ddec_charge
 _atom_site_pbe_ddec_spin_density
 _atom_site_pbe_ddec_sum_bond_order
 _atom_site_pbe_magmom
Th  Th0  1  0.87463885  0.12536085  0.75000091  1  0  2.36586  0  2.611439  0  0  2.24194  0  3.177568  0  0  2.355433  0  3.094425  0  0  1.603026  2.158525  0  3.236365  0
Th  Th1  1  0.12536054  0.87463895  0.24999894  1  0  2.365885  0  2.611383  0  0  2.24198  0  3.177497  0  0  2.355467  0  3.09436  0  0  1.603043  2.158563  0  3.236297  0
H  H2  1  0.30741339  0.77045894  0.89431295  1  0  0.107186  0  0.941847  0  0  0.116452  0  1.003708  0  0  0.120058  0  1.001165  0  0  0.109859  0.113654  0  1.005795  0
H  H3  1  0.22954448  0.69258559  0.60569425  1  0  0.107248  0  0.941875  0  0  0.116464  0  1.003782  0  0  0.120137  0  1.001155  0  0  0.109862  0.113667  0  1.005869  0
H  H4  1  0.69258600  0.22954086  0.10568689  1  0  0.107179  0  0.941846  0  0  0.116443  0  1.00371  0  0  0.120048  0  1.001167  0  0  0.109861  0.113645  0  1.005797  0
H  H5  1  0.77045596  0.30741421  0.39430547  1  0  0.107315  0  0.941944  0  0  0.116519  0  1.003845  0  0  0.120193  0  1.001217  0  0  0.109889  0.113725  0  1.005925  0
H  H6  1  0.51712144  0.54977848  0.89693038  1  0  0.100203  0  0.948259  0  0  0.112381  0  1.00496  0  0  0.115841  0  1.003084  0  0  0.107344  0.109643  0  1.006825  0
H  H7  1  0.45022083  0.48287602  0.60307927  1  0  0.100259  0  0.948145  0  0  0.112405  0  1.004885  0  0  0.115866  0  1.003006  0  0  0.107337  0.109668  0  1.006752  0
H  H8  1  0.48287901  0.45022132  0.10306934  1  0  0.100244  0  0.948197  0  0  0.112421  0  1.004899  0  0  0.115881  0  1.003025  0  0  0.107359  0.109685  0  1.006765  0
H  H9  1  0.54977857  0.51712378  0.39692058  1  0  0.100255  0  0.948149  0  0  0.112398  0  1.004887  0  0  0.115859  0  1.003008  0  0  0.107333  0.109662  0  1.006754  0
H  H10  1  0.00403603  0.57235481  0.81320389  1  0  0.103766  0  0.954469  0  0  0.113589  0  1.016435  0  0  0.116923  0  1.014689  0  0  0.106749  0.111105  0  1.017918  0
H  H11  1  0.42764532  0.99596282  0.68679492  1  0  0.103723  0  0.954536  0  0  0.113584  0  1.016462  0  0  0.116916  0  1.014717  0  0  0.10676  0.111099  0  1.017945  0
H  H12  1  0.99596336  0.42764499  0.18679595  1  0  0.103718  0  0.954538  0  0  0.113577  0  1.016466  0  0  0.11691  0  1.01472  0  0  0.106739  0.111092  0  1.017949  0
H  H13  1  0.57235513  0.00403698  0.31320480  1  0  0.103711  0  0.954549  0  0  0.113566  0  1.016476  0  0  0.116899  0  1.014731  0  0  0.106749  0.111082  0  1.017958  0
H  H14  1  0.95389458  0.26037370  0.07617955  1  0  0.101207  0  0.976884  0  0  0.108723  0  1.043375  0  0  0.111812  0  1.041464  0  0  0.106707  0.106479  0  1.044798  0
H  H15  1  0.73962695  0.04610765  0.42381929  1  0  0.101206  0  0.97685  0  0  0.108725  0  1.043334  0  0  0.111814  0  1.041423  0  0  0.106716  0.106488  0  1.044751  0
H  H16  1  0.04610587  0.73962610  0.92382017  1  0  0.101249  0  0.976833  0  0  0.108727  0  1.043367  0  0  0.11184  0  1.041427  0  0  0.106708  0.106484  0  1.044789  0
H  H17  1  0.26037350  0.95389215  0.57618043  1  0  0.101186  0  0.976878  0  0  0.108705  0  1.043366  0  0  0.111793  0  1.041456  0  0  0.106708  0.106467  0  1.044783  0
H  H18  1  0.82249447  0.99057586  0.03178503  1  0  0.075188  0  0.932491  0  0  0.079533  0  1.00548  0  0  0.082188  0  0.999034  0  0  0.138732  0.077531  0  1.01009  0
H  H19  1  0.00942349  0.17750598  0.46821436  1  0  0.075293  0  0.932342  0  0  0.079564  0  1.005406  0  0  0.082226  0  0.998945  0  0  0.138757  0.077563  0  1.010011  0
H  H20  1  0.17750492  0.00942394  0.96821482  1  0  0.075216  0  0.932473  0  0  0.079561  0  1.005458  0  0  0.082216  0  0.999012  0  0  0.138741  0.07756  0  1.010065  0
H  H21  1  0.99057696  0.82249382  0.53178536  1  0  0.075205  0  0.932473  0  0  0.079546  0  1.005466  0  0  0.082205  0  0.999013  0  0  0.138739  0.077545  0  1.010072  0
H  H22  1  0.55729445  0.85945523  0.17450591  1  0  0.123202  0  0.951792  0  0  0.13985  0  1.015776  0  0  0.141916  0  1.014178  0  0  0.108134  0.138231  0  1.017212  0
H  H23  1  0.14054580  0.44270648  0.32549410  1  0  0.123197  0  0.951808  0  0  0.139841  0  1.015803  0  0  0.141907  0  1.014204  0  0  0.108128  0.138222  0  1.017239  0
H  H24  1  0.44270600  0.14054457  0.82549381  1  0  0.123189  0  0.951799  0  0  0.139824  0  1.015795  0  0  0.141891  0  1.014196  0  0  0.108124  0.138205  0  1.017231  0
H  H25  1  0.85945543  0.55729441  0.67450614  1  0  0.123187  0  0.951795  0  0  0.139828  0  1.015788  0  0  0.141893  0  1.014191  0  0  0.108126  0.138208  0  1.017224  0
H  H26  1  0.73700816  0.88171436  0.17413975  1  0  0.119476  0  0.964387  0  0  0.135552  0  1.032411  0  0  0.137309  0  1.031215  0  0  0.112283  0.134113  0  1.033587  0
H  H27  1  0.11828676  0.26299302  0.32586006  1  0  0.119484  0  0.964403  0  0  0.13557  0  1.032405  0  0  0.137325  0  1.031212  0  0  0.112289  0.13413  0  1.033582  0
H  H28  1  0.26299124  0.11828544  0.82586010  1  0  0.119492  0  0.964357  0  0  0.13554  0  1.032419  0  0  0.137295  0  1.031226  0  0  0.112275  0.1341  0  1.033595  0
H  H29  1  0.88171447  0.73700787  0.67414018  1  0  0.119462  0  0.964395  0  0  0.13554  0  1.032416  0  0  0.137296  0  1.031222  0  0  0.112279  0.134101  0  1.033593  0
H  H30  1  0.71027652  0.70584310  0.16937739  1  0  0.100912  0  0.931945  0  0  0.120755  0  0.995252  0  0  0.120538  0  0.997288  0  0  0.102746  0.120783  0  0.994021  0
H  H31  1  0.29415860  0.28972305  0.33062238  1  0  0.100905  0  0.93192  0  0  0.120756  0  0.995217  0  0  0.120539  0  0.997251  0  0  0.10275  0.120782  0  0.993991  0
H  H32  1  0.28972287  0.29415671  0.83062246  1  0  0.100921  0  0.93194  0  0  0.120766  0  0.995236  0  0  0.120549  0  0.997271  0  0  0.102757  0.120794  0  0.994006  0
H  H33  1  0.70584185  0.71027675  0.66937734  1  0  0.100908  0  0.931929  0  0  0.120756  0  0.995233  0  0  0.120539  0  0.997268  0  0  0.102752  0.120784  0  0.994002  0
H  H34  1  0.68585051  0.65634611  0.98452744  1  0  0.09542  0  0.938153  0  0  0.11638  0  1.003232  0  0  0.11542  0  1.005808  0  0  0.102811  0.116899  0  1.0016  0
H  H35  1  0.34365428  0.31415037  0.51547195  1  0  0.095417  0  0.938125  0  0  0.116381  0  1.003206  0  0  0.115422  0  1.005781  0  0  0.102819  0.116901  0  1.001573  0
H  H36  1  0.31414993  0.34365369  0.01547154  1  0  0.095422  0  0.938138  0  0  0.11639  0  1.003213  0  0  0.11543  0  1.005789  0  0  0.102814  0.116909  0  1.001581  0
H  H37  1  0.65634616  0.68584943  0.48452777  1  0  0.095434  0  0.938125  0  0  0.1164  0  1.003199  0  0  0.115441  0  1.005774  0  0  0.102823  0.116919  0  1.001567  0
H  H38  1  0.62938228  0.81953805  0.89981257  1  0  0.122092  0  0.934097  0  0  0.141347  0  0.99338  0  0  0.143502  0  0.991749  0  0  0.11534  0.139642  0  0.994682  0
H  H39  1  0.18046297  0.37061861  0.60018772  1  0  0.122072  0  0.934092  0  0  0.141333  0  0.993373  0  0  0.143488  0  0.991741  0  0  0.11534  0.139628  0  0.994675  0
H  H40  1  0.37061684  0.18046284  0.10018792  1  0  0.122104  0  0.93408  0  0  0.141359  0  0.99337  0  0  0.143514  0  0.991739  0  0  0.115341  0.139654  0  0.994673  0
H  H41  1  0.81953748  0.62938119  0.39981274  1  0  0.122084  0  0.934116  0  0  0.141342  0  0.993394  0  0  0.143497  0  0.991763  0  0  0.115341  0.139638  0  0.994697  0
H  H42  1  0.51341090  0.77731657  0.01565857  1  0  0.114691  0  0.941414  0  0  0.13477  0  1.003645  0  0  0.135951  0  1.002759  0  0  0.109545  0.133758  0  1.00436  0
H  H43  1  0.22268306  0.48658970  0.48434161  1  0  0.11467  0  0.941403  0  0  0.134747  0  1.003642  0  0  0.135926  0  1.002758  0  0  0.109538  0.133736  0  1.004356  0
H  H44  1  0.48658954  0.22268323  0.98434189  1  0  0.114657  0  0.941373  0  0  0.134734  0  1.003623  0  0  0.135913  0  1.002738  0  0  0.109528  0.133723  0  1.004337  0
H  H45  1  0.77731633  0.51341010  0.51565898  1  0  0.114704  0  0.941344  0  0  0.134777  0  1.003585  0  0  0.135958  0  1.002699  0  0  0.109554  0.133766  0  1.0043  0
C  C46  1  0.12817687  0.87182773  0.75000111  1  0  0.628912  0  3.912499  0  0  0.582711  0  4.211358  0  0  0.617064  0  4.205386  0  0  0.205912  0.559083  0  4.215119  0
C  C47  1  0.87182330  0.12817316  0.24999851  1  0  0.628959  0  3.912522  0  0  0.582752  0  4.211372  0  0  0.617108  0  4.205392  0  0  0.205935  0.559123  0  4.215136  0
C  C48  1  0.25608076  0.74392454  0.75000238  1  0  -0.056868  0  3.760885  0  0  -0.035451  0  3.993159  0  0  -0.042745  0  4.016168  0  0  -0.011269  -0.030898  0  3.978226  0
C  C49  1  0.74391969  0.25607526  0.24999734  1  0  -0.056882  0  3.760884  0  0  -0.03541  0  3.993077  0  0  -0.042707  0  4.016084  0  0  -0.011257  -0.030857  0  3.978145  0
C  C50  1  0.33842666  0.70598224  0.83134516  1  0  -0.067815  0  3.724222  0  0  -0.091477  0  3.974343  0  0  -0.091723  0  3.994313  0  0  -0.07783  -0.091076  0  3.961132  0
C  C51  1  0.29402020  0.66157474  0.66866251  1  0  -0.06783  0  3.724365  0  0  -0.091442  0  3.974423  0  0  -0.09175  0  3.994394  0  0  -0.077766  -0.091046  0  3.961216  0
C  C52  1  0.66157378  0.29401756  0.16865531  1  0  -0.067764  0  3.724228  0  0  -0.091437  0  3.974324  0  0  -0.091682  0  3.994296  0  0  -0.077837  -0.091036  0  3.961113  0
C  C53  1  0.70598025  0.33842506  0.33133795  1  0  -0.067913  0  3.724464  0  0  -0.09153  0  3.974496  0  0  -0.09184  0  3.994467  0  0  -0.077796  -0.091133  0  3.961291  0
C  C54  1  0.45507226  0.58392764  0.83271285  1  0  -0.07874  0  3.731428  0  0  -0.101346  0  3.977464  0  0  -0.102677  0  3.996859  0  0  -0.081265  -0.10046  0  3.964949  0
C  C55  1  0.41607265  0.54492401  0.66729544  1  0  -0.078741  0  3.7312  0  0  -0.101307  0  3.977204  0  0  -0.102642  0  3.996623  0  0  -0.081203  -0.100424  0  3.964694  0
C  C56  1  0.54492845  0.41607107  0.16728697  1  0  -0.078903  0  3.731377  0  0  -0.101511  0  3.977429  0  0  -0.102842  0  3.996823  0  0  -0.081337  -0.100627  0  3.964917  0
C  C57  1  0.58392674  0.45507579  0.33270515  1  0  -0.078749  0  3.731189  0  0  -0.101306  0  3.977183  0  0  -0.102641  0  3.9966  0  0  -0.08121  -0.100425  0  3.964674  0
C  C58  1  0.49577452  0.50422491  0.75000506  1  0  -0.039995  0  3.75438  0  0  -0.01767  0  3.984626  0  0  -0.021638  0  4.00367  0  0  -0.007234  -0.015308  0  3.972591  0
C  C59  1  0.50422487  0.49577489  0.24999553  1  0  -0.039865  0  3.754273  0  0  -0.017553  0  3.984538  0  0  -0.021521  0  4.003582  0  0  -0.007152  -0.01519  0  3.972504  0
C  C60  1  0.62364269  0.37635540  0.75000582  1  0  0.638682  0  3.908747  0  0  0.594085  0  4.203169  0  0  0.628776  0  4.196986  0  0  0.206621  0.570386  0  4.207066  0
C  C61  1  0.37635671  0.62364440  0.24999402  1  0  0.63866  0  3.908735  0  0  0.594062  0  4.203159  0  0  0.628753  0  4.196976  0  0  0.206613  0.570362  0  4.207057  0
C  C62  1  0.00223105  0.54187475  0.89490644  1  0  -0.070102  0  3.716751  0  0  -0.093081  0  3.964651  0  0  -0.093268  0  3.983368  0  0  -0.080545  -0.092642  0  3.95197  0
C  C63  1  0.45812523  0.99776760  0.60509165  1  0  -0.070106  0  3.71678  0  0  -0.093125  0  3.964698  0  0  -0.093311  0  3.983409  0  0  -0.080623  -0.092685  0  3.952018  0
C  C64  1  0.99776834  0.45812505  0.10509267  1  0  -0.070082  0  3.716749  0  0  -0.093085  0  3.96468  0  0  -0.09327  0  3.98339  0  0  -0.080529  -0.092646  0  3.951998  0
C  C65  1  0.54187495  0.00223329  0.39490798  1  0  -0.070052  0  3.716724  0  0  -0.093064  0  3.964638  0  0  -0.09325  0  3.983349  0  0  -0.080596  -0.092624  0  3.951958  0
C  C66  1  0.97344166  0.36606908  0.04433722  1  0  -0.07149  0  3.737024  0  0  -0.097513  0  3.990445  0  0  -0.098186  0  4.010892  0  0  -0.082229  -0.097047  0  3.976562  0
C  C67  1  0.63393151  0.02655873  0.45566269  1  0  -0.071502  0  3.736917  0  0  -0.097512  0  3.990332  0  0  -0.098183  0  4.010776  0  0  -0.082199  -0.097048  0  3.976438  0
C  C68  1  0.02655879  0.63393072  0.95566250  1  0  -0.071586  0  3.737019  0  0  -0.097571  0  3.990445  0  0  -0.098261  0  4.010875  0  0  -0.082252  -0.097106  0  3.976563  0
C  C69  1  0.36606894  0.97344107  0.54433703  1  0  -0.071459  0  3.736892  0  0  -0.097465  0  3.990302  0  0  -0.098136  0  4.010747  0  0  -0.082207  -0.097004  0  3.976414  0
C  C70  1  0.97523231  0.40735803  0.93941138  1  0  -0.058628  0  3.765447  0  0  -0.035756  0  3.995606  0  0  -0.041655  0  4.016102  0  0  -0.015624  -0.032152  0  3.982025  0
C  C71  1  0.59264088  0.02476732  0.56058925  1  0  -0.058603  0  3.765438  0  0  -0.035741  0  3.995611  0  0  -0.041638  0  4.016105  0  0  -0.015577  -0.032137  0  3.982031  0
C  C72  1  0.02476709  0.59264177  0.06058847  1  0  -0.058574  0  3.765358  0  0  -0.035733  0  3.995563  0  0  -0.041633  0  4.016066  0  0  -0.015618  -0.03213  0  3.981982  0
C  C73  1  0.40735851  0.97523248  0.43940986  1  0  -0.058694  0  3.765379  0  0  -0.035837  0  3.995577  0  0  -0.041737  0  4.016073  0  0  -0.015616  -0.032234  0  3.981998  0
C  C74  1  0.94695482  0.30782361  0.87611623  1  0  0.622485  0  3.922833  0  0  0.577554  0  4.21658  0  0  0.612148  0  4.21127  0  0  0.198879  0.554097  0  4.219277  0
C  C75  1  0.69217492  0.05304604  0.62388423  1  0  0.622524  0  3.922729  0  0  0.577581  0  4.216495  0  0  0.612174  0  4.211183  0  0  0.198894  0.554124  0  4.21919  0
C  C76  1  0.05304563  0.69217620  0.12388275  1  0  0.622447  0  3.922731  0  0  0.577526  0  4.216488  0  0  0.612119  0  4.211177  0  0  0.198859  0.554069  0  4.219181  0
C  C77  1  0.30782447  0.94695376  0.37611636  1  0  0.622541  0  3.922612  0  0  0.577602  0  4.216377  0  0  0.612195  0  4.211065  0  0  0.198906  0.554145  0  4.219072  0
C  C78  1  0.77619390  0.93617363  0.98456871  1  0  0.414279  0  3.739976  0  0  0.339179  0  4.028858  0  0  0.369479  0  4.02764  0  0  0.199612  0.318863  0  4.028713  0
C  C79  1  0.06382713  0.22380813  0.51543070  1  0  0.414082  0  3.740105  0  0  0.339034  0  4.028968  0  0  0.369334  0  4.027755  0  0  0.199509  0.318717  0  4.028824  0
C  C80  1  0.22380655  0.06382617  0.01543101  1  0  0.414159  0  3.740079  0  0  0.339048  0  4.028972  0  0  0.369346  0  4.027757  0  0  0.199528  0.318732  0  4.028826  0
C  C81  1  0.93617410  0.77619276  0.48456806  1  0  0.414176  0  3.740091  0  0  0.339068  0  4.028976  0  0  0.369367  0  4.027764  0  0  0.199543  0.318751  0  4.028831  0
C  C82  1  0.67272310  0.82311804  0.14475903  1  0  -0.192664  0  3.620646  0  0  -0.29273  0  3.867611  0  0  -0.290182  0  3.877667  0  0  -0.134403  -0.294168  0  3.861125  0
C  C83  1  0.17688225  0.32727702  0.35524026  1  0  -0.192643  0  3.620601  0  0  -0.292723  0  3.86758  0  0  -0.290175  0  3.877636  0  0  -0.134403  -0.294163  0  3.861094  0
C  C84  1  0.32727629  0.17688176  0.85524082  1  0  -0.192641  0  3.620592  0  0  -0.292684  0  3.867571  0  0  -0.290136  0  3.877627  0  0  -0.134378  -0.294123  0  3.861085  0
C  C85  1  0.82311820  0.67272278  0.64475946  1  0  -0.192646  0  3.62057  0  0  -0.292712  0  3.867556  0  0  -0.290165  0  3.877613  0  0  -0.134394  -0.294152  0  3.861071  0
C  C86  1  0.62574546  0.77150141  0.97966224  1  0  -0.179118  0  3.628021  0  0  -0.281085  0  3.872557  0  0  -0.277537  0  3.882413  0  0  -0.132852  -0.28309  0  3.865814  0
C  C87  1  0.22849821  0.37425572  0.52033740  1  0  -0.179048  0  3.627962  0  0  -0.281034  0  3.872516  0  0  -0.277486  0  3.882373  0  0  -0.13285  -0.283041  0  3.865773  0
C  C88  1  0.37425394  0.22849839  0.02033761  1  0  -0.179118  0  3.62794  0  0  -0.281099  0  3.872501  0  0  -0.277553  0  3.882358  0  0  -0.132869  -0.283105  0  3.865757  0
C  C89  1  0.77150224  0.62574408  0.47966307  1  0  -0.179169  0  3.627938  0  0  -0.281137  0  3.872482  0  0  -0.27759  0  3.882336  0  0  -0.132882  -0.283143  0  3.86574  0
N  N90  1  0.69284357  0.84988759  0.03401128  1  0  -0.063466  0  3.493599  0  0  0.041938  0  3.725142  0  0  0.021578  0  3.751043  0  0  -0.267872  0.055442  0  3.707086  0
N  N91  1  0.15011300  0.30715686  0.46598870  1  0  -0.063447  0  3.493741  0  0  0.041979  0  3.725234  0  0  0.021617  0  3.751138  0  0  -0.267815  0.055484  0  3.707177  0
N  N92  1  0.30715688  0.15011221  0.96598845  1  0  -0.06341  0  3.493604  0  0  0.042013  0  3.725119  0  0  0.021655  0  3.751021  0  0  -0.2678  0.055517  0  3.707063  0
N  N93  1  0.84988772  0.69284186  0.53401187  1  0  -0.06336  0  3.493503  0  0  0.042042  0  3.725048  0  0  0.021681  0  3.750952  0  0  -0.26783  0.055547  0  3.706991  0
O  O94  1  0.02600774  0.87873966  0.69814591  1  0  -0.649636  0  1.968228  0  0  -0.606463  0  2.213875  0  0  -0.63545  0  2.206654  0  0  -0.341324  -0.585523  0  2.218718  0
O  O95  1  0.12126204  0.97399770  0.80185594  1  0  -0.649658  0  1.968123  0  0  -0.606472  0  2.213738  0  0  -0.635456  0  2.206511  0  0  -0.341368  -0.585532  0  2.218581  0
O  O96  1  0.97399166  0.12126014  0.30185468  1  0  -0.649617  0  1.968197  0  0  -0.606459  0  2.213852  0  0  -0.635445  0  2.206628  0  0  -0.341319  -0.585519  0  2.218693  0
O  O97  1  0.87873814  0.02600319  0.19814368  1  0  -0.649704  0  1.968186  0  0  -0.606537  0  2.213818  0  0  -0.63552  0  2.206586  0  0  -0.341401  -0.585595  0  2.218663  0
O  O98  1  0.65285015  0.29784320  0.83408660  1  0  -0.653862  0  1.962509  0  0  -0.613462  0  2.198223  0  0  -0.643224  0  2.192593  0  0  -0.34865  -0.591688  0  2.20162  0
O  O99  1  0.70215620  0.34714949  0.66592162  1  0  -0.653813  0  1.962355  0  0  -0.613402  0  2.198052  0  0  -0.643166  0  2.192418  0  0  -0.348526  -0.591622  0  2.201439  0
O  O100  1  0.34715029  0.70215661  0.16591312  1  0  -0.653874  0  1.962501  0  0  -0.613473  0  2.198209  0  0  -0.643234  0  2.192579  0  0  -0.348654  -0.591697  0  2.201608  0
O  O101  1  0.29784319  0.65285031  0.33407823  1  0  -0.653805  0  1.962358  0  0  -0.613383  0  2.198029  0  0  -0.643144  0  2.192394  0  0  -0.34853  -0.591605  0  2.201424  0
O  O102  1  0.92042217  0.18648615  0.91765787  1  0  -0.634439  0  1.982861  0  0  -0.592392  0  2.227254  0  0  -0.622477  0  2.221368  0  0  -0.338132  -0.571263  0  2.230457  0
O  O103  1  0.81351440  0.07958055  0.58234202  1  0  -0.634479  0  1.982729  0  0  -0.592418  0  2.227123  0  0  -0.622507  0  2.221241  0  0  -0.338166  -0.571291  0  2.230326  0
O  O104  1  0.07957828  0.81351366  0.08234185  1  0  -0.63443  0  1.982854  0  0  -0.592376  0  2.227232  0  0  -0.622463  0  2.22135  0  0  -0.338134  -0.571249  0  2.230434  0
O  O105  1  0.18648605  0.92041925  0.41765770  1  0  -0.634479  0  1.982731  0  0  -0.592418  0  2.22712  0  0  -0.622504  0  2.221238  0  0  -0.338162  -0.571289  0  2.230323  0
O  O106  1  0.94904267  0.34523255  0.77981405  1  0  -0.655628  0  1.988688  0  0  -0.612286  0  2.228199  0  0  -0.641382  0  2.2216  0  0  -0.354328  -0.591795  0  2.232228  0
O  O107  1  0.65476653  0.05095741  0.72018572  1  0  -0.655642  0  1.988673  0  0  -0.612301  0  2.228197  0  0  -0.641394  0  2.221597  0  0  -0.354334  -0.59181  0  2.232226  0
O  O108  1  0.05095673  0.65476725  0.22018654  1  0  -0.655645  0  1.988565  0  0  -0.612316  0  2.228093  0  0  -0.641411  0  2.221495  0  0  -0.354339  -0.591825  0  2.232121  0
O  O109  1  0.34523391  0.94904239  0.27981325  1  0  -0.655627  0  1.988555  0  0  -0.612298  0  2.228088  0  0  -0.641394  0  2.221489  0  0  -0.354336  -0.591808  0  2.232115  0
O  O110  1  0.80246954  0.95475042  0.88864776  1  0  -0.592843  0  2.149238  0  0  -0.543258  0  2.41978  0  0  -0.575387  0  2.414254  0  0  -0.362296  -0.520267  0  2.422527  0
O  O111  1  0.04524892  0.19753113  0.61135197  1  0  -0.592806  0  2.149242  0  0  -0.543217  0  2.419739  0  0  -0.575347  0  2.41421  0  0  -0.362284  -0.520227  0  2.42249  0
O  O112  1  0.19752986  0.04524938  0.11135209  1  0  -0.59282  0  2.149275  0  0  -0.543228  0  2.419807  0  0  -0.575356  0  2.414279  0  0  -0.362287  -0.520238  0  2.422554  0
O  O113  1  0.95475153  0.80246867  0.38864775  1  0  -0.592829  0  2.149326  0  0  -0.54323  0  2.419855  0  0  -0.575358  0  2.414325  0  0  -0.362274  -0.520241  0  2.422604  0
