# generated using pymatgen
data_Co2H20C26N2O11
_symmetry_space_group_name_H-M   'P 1'
_cell_length_a   10.93443128
_cell_length_b   10.93447440
_cell_length_c   27.56447870
_cell_angle_alpha   90.00120911
_cell_angle_beta   89.99833762
_cell_angle_gamma   120.00130231
_symmetry_Int_Tables_number   1
_chemical_formula_structural   Co2H20C26N2O11
_chemical_formula_sum   'Co6 H60 C78 N6 O33'
_cell_volume   2854.09764489
_cell_formula_units_Z   3
loop_
 _symmetry_equiv_pos_site_id
 _symmetry_equiv_pos_as_xyz
  1  'x, y, z'
loop_
 _atom_site_type_symbol
 _atom_site_label
 _atom_site_symmetry_multiplicity
 _atom_site_fract_x
 _atom_site_fract_y
 _atom_site_fract_z
 _atom_site_occupancy
 _atom_site_pbe_bader_charge
 _atom_site_pbe_bader_spin_density
 _atom_site_pbe_cm5_charge
 _atom_site_pbe_ddec_charge
 _atom_site_pbe_ddec_spin_density
 _atom_site_pbe_ddec_sum_bond_order
 _atom_site_pbe_magmom
Co  Co0  1  0.92172805  0.74717856  0.02804443  1  1.310496  2.604901  0.657108  0.98012  2.818716  2.412386  2.587
Co  Co1  1  0.25282259  0.17455285  0.36138358  1  1.311914  2.604987  0.6571  0.98013  2.818732  2.412599  2.587
Co  Co2  1  0.82543242  0.07828132  0.69471214  1  1.311841  2.604919  0.6571  0.980055  2.818706  2.412606  2.587
Co  Co3  1  0.74718753  0.92174095  0.97194974  1  1.310572  2.604927  0.657076  0.980056  2.818712  2.412405  2.587
Co  Co4  1  0.17455248  0.25282413  0.63861326  1  1.311891  2.604951  0.657081  0.979964  2.818685  2.412807  2.587
Co  Co5  1  0.07828093  0.82544748  0.30529120  1  1.31192  2.604899  0.657005  0.979906  2.818687  2.412516  2.587
H  H6  1  0.23693396  0.79993105  0.21731282  1  0.108041  0.00139  0.113308  0.082084  8.7e-05  1.048097  0.001
H  H7  1  0.20011308  0.43698024  0.55062310  1  0.116724  0.00139  0.113378  0.082267  8.7e-05  1.048095  0.001
H  H8  1  0.56302964  0.76309836  0.88396407  1  0.113708  0.001392  0.113356  0.082265  8.7e-05  1.048122  0.001
H  H9  1  0.79987713  0.23688775  0.78269539  1  0.106888  0.00139  0.113293  0.082015  8.6e-05  1.048159  0.001
H  H10  1  0.43697638  0.20006412  0.44936652  1  0.116615  0.001389  0.11334  0.082239  8.7e-05  1.048174  0.001
H  H11  1  0.76308336  0.56301946  0.11603136  1  0.111367  0.001391  0.113348  0.082214  8.7e-05  1.048096  0.001
H  H12  1  0.32897635  0.47259555  0.25795309  1  0.123364  0.000251  0.115415  0.12374  -6.3e-05  0.994394  0.0
H  H13  1  0.52740150  0.85637279  0.59128581  1  0.121985  0.000254  0.115459  0.123766  -6.3e-05  0.994489  0.0
H  H14  1  0.14363725  0.67104192  0.92460209  1  0.120645  0.000246  0.115511  0.123766  -6.3e-05  0.994559  0.0
H  H15  1  0.47255184  0.32894203  0.74205296  1  0.123371  0.000251  0.115524  0.123813  -6.3e-05  0.994473  0.0
H  H16  1  0.85637370  0.52740499  0.40873057  1  0.121944  0.000254  0.115508  0.123712  -6.3e-05  0.994545  0.0
H  H17  1  0.67105417  0.14363878  0.07538942  1  0.120014  0.000246  0.11549  0.123772  -6.3e-05  0.994583  0.0
H  H18  1  0.03884752  0.55336974  0.33775707  1  0.124752  0.001606  0.120854  0.092724  0.000396  1.018462  0.001
H  H19  1  0.44661808  0.48546629  0.67108271  1  0.139166  0.001607  0.120835  0.092754  0.000396  1.018497  0.001
H  H20  1  0.51451545  0.96111553  0.00442378  1  0.144483  0.001613  0.120852  0.092726  0.000396  1.018451  0.001
H  H21  1  0.55336426  0.03886887  0.66223406  1  0.124682  0.001607  0.120803  0.092697  0.000396  1.018466  0.001
H  H22  1  0.48549863  0.44661300  0.32891442  1  0.139843  0.001607  0.120856  0.092784  0.000396  1.018509  0.001
H  H23  1  0.96113734  0.51453959  0.99557649  1  0.144678  0.001613  0.120873  0.092816  0.000396  1.01847  0.001
H  H24  1  0.26730184  0.72284950  0.13937688  1  0.061649  0.00013  0.098271  0.096451  8e-06  1.011741  0.0
H  H25  1  0.27717824  0.54445613  0.47269020  1  0.060261  0.000131  0.098335  0.096528  8e-06  1.011752  0.0
H  H26  1  0.45556011  0.73270310  0.80602403  1  0.053066  0.000131  0.098295  0.096496  8e-06  1.011854  0.0
H  H27  1  0.72282242  0.26728154  0.86063468  1  0.061722  0.00013  0.098353  0.096548  8e-06  1.011709  0.0
H  H28  1  0.54445786  0.27716290  0.52731618  1  0.060485  0.000131  0.098301  0.096509  8e-06  1.011773  0.0
H  H29  1  0.73270560  0.45554457  0.19397451  1  0.052872  0.000131  0.098311  0.096539  8e-06  1.011784  0.0
H  H30  1  0.43052517  0.77852206  0.07031519  1  0.10681  0.0002  0.101818  0.105049  4.1e-05  1.037017  0.0
H  H31  1  0.22149241  0.65201645  0.40363724  1  0.112369  0.0002  0.101851  0.105021  4.1e-05  1.036919  0.0
H  H32  1  0.34799187  0.56946668  0.73696734  1  0.106702  0.0002  0.101828  0.104942  4.1e-05  1.037157  0.0
H  H33  1  0.77851239  0.43052593  0.92969022  1  0.107537  0.0002  0.101783  0.10479  4.1e-05  1.036901  0.0
H  H34  1  0.65204663  0.22150751  0.59636906  1  0.112035  0.0002  0.101891  0.106973  4e-05  1.034844  0.0
H  H35  1  0.56945318  0.34797267  0.26302946  1  0.106976  0.0002  0.101837  0.106894  4.1e-05  1.035025  0.0
H  H36  1  0.70602046  0.69901445  0.15950088  1  0.07768  0.000495  0.096305  0.089985  0.000238  1.03424  0.0
H  H37  1  0.30102146  0.00700964  0.49284056  1  0.076174  0.000495  0.096339  0.090066  0.000238  1.034241  0.0
H  H38  1  0.99299037  0.29399007  0.82616822  1  0.078149  0.000498  0.096295  0.089923  0.000238  1.034352  0.0
H  H39  1  0.69897971  0.70599034  0.84049442  1  0.077528  0.000495  0.096307  0.090023  0.000238  1.034309  0.0
H  H40  1  0.00701866  0.30101898  0.50715683  1  0.075954  0.000495  0.096271  0.089917  0.000238  1.034343  0.0
H  H41  1  0.29397337  0.99299445  0.17382400  1  0.078035  0.000498  0.096288  0.089968  0.000238  1.034367  0.0
H  H42  1  0.54505511  0.64422815  0.22929466  1  0.10293  0.000151  0.102371  0.11096  4.5e-05  1.021201  0.0
H  H43  1  0.35580360  0.90081203  0.56262473  1  0.099386  0.000151  0.102396  0.111097  4.5e-05  1.021253  0.0
H  H44  1  0.09919468  0.45496461  0.89595733  1  0.106012  0.000151  0.102312  0.110877  4.5e-05  1.021289  0.0
H  H45  1  0.64416947  0.54499951  0.77071005  1  0.103737  0.000151  0.102406  0.111104  4.5e-05  1.021132  0.0
H  H46  1  0.90080451  0.35578315  0.43737334  1  0.099744  0.000151  0.102342  0.111004  4.5e-05  1.021246  0.0
H  H47  1  0.45496897  0.09919428  0.10403822  1  0.105868  0.000151  0.102363  0.110915  4.5e-05  1.021251  0.0
H  H48  1  0.01507466  0.01071300  0.97118756  1  0.662924  0.001039  0.335329  0.430621  0.000471  0.844077  0.001
H  H49  1  0.98929456  0.00432534  0.30452140  1  0.634203  0.001066  0.33525  0.430351  0.000471  0.844273  0.001
H  H50  1  0.99563963  0.98494852  0.63785700  1  0.634616  0.00106  0.335298  0.430308  0.000472  0.844296  0.001
H  H51  1  0.01071680  0.01504024  0.02881426  1  0.662475  0.001037  0.335227  0.430481  0.000471  0.844292  0.001
H  H52  1  0.00430199  0.98930966  0.69548507  1  0.634076  0.001066  0.335208  0.430303  0.000471  0.844291  0.001
H  H53  1  0.98495614  0.99566303  0.36214901  1  0.634483  0.001059  0.335338  0.430628  0.000471  0.844155  0.001
H  H54  1  0.04568605  0.87473838  0.11419783  1  0.615969  0.000334  0.31624  0.395081  -9e-05  0.893059  0.0
H  H55  1  0.12528076  0.17096124  0.44753939  1  0.6079  0.000352  0.316136  0.394946  -9e-05  0.893009  0.0
H  H56  1  0.82906636  0.95431581  0.78087233  1  0.604489  0.000352  0.316102  0.39498  -8.9e-05  0.892906  0.0
H  H57  1  0.87469082  0.04568452  0.88579388  1  0.615059  0.000335  0.316197  0.394904  -9e-05  0.892952  0.0
H  H58  1  0.17098066  0.12530350  0.55246455  1  0.607993  0.000351  0.316187  0.394966  -9e-05  0.893002  0.0
H  H59  1  0.95432985  0.82904073  0.21913689  1  0.603941  0.00035  0.316222  0.394997  -9e-05  0.893133  0.0
H  H60  1  0.16267284  0.90655145  0.07116546  1  0.655386  0.000271  0.27989  0.372238  0.000229  0.982873  0.0
H  H61  1  0.09344028  0.25611356  0.40450483  1  0.655819  0.000268  0.279854  0.372258  0.000229  0.98288  0.0
H  H62  1  0.74389259  0.83733654  0.73783868  1  0.649221  0.000287  0.279797  0.372196  0.000229  0.982946  0.0
H  H63  1  0.90656218  0.16268380  0.92882747  1  0.655384  0.000271  0.279791  0.37215  0.000229  0.983017  0.0
H  H64  1  0.25608453  0.09342289  0.59550011  1  0.655793  0.000267  0.2798  0.372175  0.000229  0.982954  0.0
H  H65  1  0.83733349  0.74388209  0.26216614  1  0.649068  0.000286  0.279825  0.372154  0.000228  0.983006  0.0
C  C66  1  0.21994514  0.71038462  0.23949835  1  0.443844  -0.010062  0.049838  0.05362  -0.011493  3.900257  -0.006
C  C67  1  0.28964721  0.50954391  0.57281485  1  0.443024  -0.010052  0.049923  0.053445  -0.01149  3.900487  -0.006
C  C68  1  0.49046402  0.78007631  0.90615181  1  0.434063  -0.010069  0.049863  0.053389  -0.01149  3.90045  -0.006
C  C69  1  0.71034222  0.21990968  0.76050568  1  0.44501  -0.010064  0.049967  0.053824  -0.011497  3.90035  -0.006
C  C70  1  0.50954517  0.28961035  0.42718067  1  0.443396  -0.010054  0.04997  0.053587  -0.01149  3.900206  -0.006
C  C71  1  0.78007001  0.49045954  0.09384334  1  0.43609  -0.01007  0.049893  0.053526  -0.011493  3.900214  -0.006
C  C72  1  0.29453665  0.63927650  0.23045410  1  0.039109  0.005486  -0.00055  0.030054  0.002546  4.001321  0.005
C  C73  1  0.36074446  0.65524996  0.56377589  1  0.046019  0.005496  -0.000614  0.030017  0.002546  4.001207  0.005
C  C74  1  0.34476270  0.70548051  0.89710700  1  0.050477  0.005507  -0.000592  0.030034  0.002547  4.001133  0.005
C  C75  1  0.63923283  0.29450095  0.76955283  1  0.040727  0.005485  -0.000609  0.030107  0.002547  4.000946  0.005
C  C76  1  0.65524342  0.36071928  0.43622765  1  0.045466  0.005497  -0.000581  0.030072  0.002546  4.001322  0.005
C  C77  1  0.70548296  0.34475699  0.10288923  1  0.050697  0.005507  -0.000596  0.030011  0.002547  4.001094  0.005
C  C78  1  0.27450881  0.53226637  0.26286214  1  0.002981  -0.013106  -0.058705  -0.090405  -0.014364  3.886878  -0.008
C  C79  1  0.46773631  0.74223357  0.59619127  1  -0.023833  -0.013129  -0.058725  -0.090373  -0.014358  3.886833  -0.008
C  C80  1  0.25777062  0.72550206  0.92951487  1  -0.039432  -0.01312  -0.058814  -0.090354  -0.014362  3.886779  -0.008
C  C81  1  0.53222674  0.27448066  0.73714390  1  0.001445  -0.013109  -0.05885  -0.090508  -0.014367  3.886686  -0.008
C  C82  1  0.74223773  0.46773083  0.40381886  1  -0.022682  -0.013133  -0.058752  -0.090201  -0.014363  3.88657  -0.008
C  C83  1  0.72551175  0.25777443  0.07047928  1  -0.037377  -0.013119  -0.058805  -0.090498  -0.014363  3.88705  -0.008
C  C84  1  0.18231246  0.50006712  0.30195669  1  -0.050472  0.010077  -0.014079  -0.072602  0.004988  3.984898  0.008
C  C85  1  0.49992213  0.68223744  0.63528644  1  -0.047542  0.010108  -0.014039  -0.07247  0.004986  3.984993  0.008
C  C86  1  0.31775834  0.81767219  0.96861414  1  -0.074011  0.01016  -0.013961  -0.072556  0.004989  3.984759  0.008
C  C87  1  0.50004466  0.18230392  0.69804410  1  -0.050194  0.010075  -0.014102  -0.072756  0.004987  3.985042  0.008
C  C88  1  0.68225429  0.49992308  0.36472083  1  -0.048681  0.010113  -0.014026  -0.072735  0.004989  3.984549  0.008
C  C89  1  0.81768833  0.31777032  0.03138049  1  -0.076263  0.010164  -0.014045  -0.072458  0.004989  3.984824  0.008
C  C90  1  0.11125935  0.57540516  0.30759583  1  0.488381  -0.008346  0.052601  0.079184  -0.009325  3.913064  -0.005
C  C91  1  0.42459254  0.53584712  0.64092141  1  0.491945  -0.008315  0.052552  0.078951  -0.009319  3.91336  -0.005
C  C92  1  0.46415104  0.88872145  0.97425637  1  0.534529  -0.00843  0.052506  0.079054  -0.009325  3.913377  -0.005
C  C93  1  0.57538572  0.11126015  0.69240096  1  0.487816  -0.008348  0.052675  0.079219  -0.009327  3.913027  -0.005
C  C94  1  0.53586032  0.42457669  0.35907895  1  0.492379  -0.008322  0.052557  0.079036  -0.009325  3.9133  -0.005
C  C95  1  0.88873481  0.46416178  0.02574047  1  0.535472  -0.008433  0.052502  0.078879  -0.009324  3.913388  -0.005
C  C96  1  0.16372921  0.38937900  0.33794577  1  1.57953  -0.002864  0.214808  0.583597  -0.004136  4.192659  -0.002
C  C97  1  0.61059920  0.77435210  0.67127961  1  1.585736  -0.002911  0.214677  0.583445  -0.004135  4.192582  -0.002
C  C98  1  0.22564536  0.83625333  0.00460378  1  1.573952  -0.002846  0.214652  0.583459  -0.004132  4.19239  -0.002
C  C99  1  0.38935229  0.16371465  0.66205704  1  1.580516  -0.002867  0.214755  0.583507  -0.004139  4.192626  -0.002
C  C100  1  0.77437123  0.61061563  0.32873278  1  1.585389  -0.002908  0.21466  0.58355  -0.004131  4.192375  -0.002
C  C101  1  0.83626966  0.22565983  0.99538989  1  1.574437  -0.002849  0.214897  0.583768  -0.004135  4.192309  -0.002
C  C102  1  0.39305612  0.67771323  0.18924449  1  -0.004897  0.00064  -0.004824  0.074131  0.000347  4.007642  0.0
C  C103  1  0.32231685  0.71533291  0.52256535  1  -0.003071  0.000642  -0.004744  0.074181  0.000349  4.008028  0.0
C  C104  1  0.28467598  0.60696181  0.85589882  1  0.013475  0.000635  -0.004876  0.073988  0.000345  4.008146  0.0
C  C105  1  0.67767146  0.39301458  0.81076294  1  -0.004203  0.00064  -0.004736  0.074148  0.000347  4.008056  0.0
C  C106  1  0.71532727  0.32229357  0.47743525  1  -0.003371  0.000637  -0.004835  0.073868  0.000345  4.008086  0.0
C  C107  1  0.60696270  0.28466805  0.14409910  1  0.012519  0.00064  -0.004831  0.074088  0.000348  4.007925  0.0
C  C108  1  0.36417078  0.71860735  0.14427972  1  -0.066133  0.000939  -0.088989  -0.131388  0.000434  3.9772  0.001
C  C109  1  0.28141868  0.64556686  0.47759836  1  -0.061155  0.000939  -0.089052  -0.131348  0.000433  3.97737  0.001
C  C110  1  0.35444816  0.63583680  0.81093197  1  -0.032554  0.000938  -0.088987  -0.131348  0.000434  3.977653  0.001
C  C111  1  0.71857826  0.36414823  0.85572879  1  -0.06664  0.000939  -0.089072  -0.131494  0.000433  3.977591  0.001
C  C112  1  0.64556710  0.28140579  0.52240567  1  -0.060884  0.000941  -0.089053  -0.131477  0.000434  3.978014  0.001
C  C113  1  0.63583833  0.35443747  0.18906543  1  -0.032264  0.000937  -0.088961  -0.131531  0.000434  3.978139  0.001
C  C114  1  0.45530083  0.74903594  0.10512204  1  -0.025858  0.001264  -0.08173  -0.07732  0.000584  3.961437  0.001
C  C115  1  0.25098736  0.70627415  0.43844804  1  -0.039357  0.001268  -0.081715  -0.077288  0.000585  3.961091  0.001
C  C116  1  0.29373678  0.54470127  0.77177757  1  -0.066883  0.001279  -0.081808  -0.077347  0.000582  3.961391  0.001
C  C117  1  0.74901370  0.45528586  0.89488084  1  -0.026864  0.001264  -0.081651  -0.076803  0.000584  3.960979  0.001
C  C118  1  0.70628498  0.25098498  0.56155740  1  -0.039832  0.001265  -0.08177  -0.078746  0.000583  3.960482  0.001
C  C119  1  0.54469397  0.29372398  0.22821935  1  -0.066907  0.001283  -0.081804  -0.078748  0.000585  3.960946  0.001
C  C120  1  0.57821679  0.74007805  0.11012121  1  -0.026171  0.010783  -0.019608  -0.042676  0.005742  3.965334  0.008
C  C121  1  0.25993632  0.83814100  0.44345244  1  -0.031848  0.010786  -0.019703  -0.042706  0.005742  3.965231  0.008
C  C122  1  0.16185922  0.42178453  0.77678135  1  -0.01118  0.010784  -0.019491  -0.042433  0.005743  3.964875  0.008
C  C123  1  0.74005881  0.57820346  0.88987967  1  -0.025458  0.010782  -0.019699  -0.042778  0.005742  3.96521  0.008
C  C124  1  0.83815573  0.25993853  0.55654697  1  -0.031528  0.010789  -0.019642  -0.042647  0.005744  3.96557  0.008
C  C125  1  0.42177199  0.16185558  0.22321234  1  -0.010658  0.010779  -0.019573  -0.042632  0.005741  3.965856  0.008
C  C126  1  0.60901764  0.70295697  0.15534466  1  -0.090896  0.001334  -0.086614  -0.08524  0.000637  3.99711  0.001
C  C127  1  0.29707433  0.90606462  0.48867884  1  -0.078198  0.001323  -0.08663  -0.085234  0.000639  3.996949  0.001
C  C128  1  0.09393818  0.39099074  0.82200830  1  -0.065257  0.001328  -0.086694  -0.085216  0.000636  3.996647  0.001
C  C129  1  0.70292411  0.60899176  0.84465551  1  -0.09064  0.001335  -0.086563  -0.085146  0.000638  3.996886  0.001
C  C130  1  0.90606982  0.29706251  0.51132005  1  -0.077936  0.001319  -0.08659  -0.085191  0.000636  3.996796  0.001
C  C131  1  0.39098225  0.09393990  0.17798555  1  -0.065036  0.001331  -0.086655  -0.085331  0.000638  3.997134  0.001
C  C132  1  0.51800065  0.67173854  0.19442034  1  -0.023675  0.001307  -0.088917  -0.129995  0.000678  3.960908  0.001
C  C133  1  0.32829449  0.84625494  0.52775152  1  -0.024552  0.001307  -0.088919  -0.130269  0.000677  3.961221  0.001
C  C134  1  0.15375189  0.48201426  0.86108217  1  -0.080321  0.00132  -0.088838  -0.129962  0.000678  3.96081  0.001
C  C135  1  0.67169363  0.51795776  0.80558183  1  -0.025539  0.001307  -0.089022  -0.130429  0.000678  3.961012  0.001
C  C136  1  0.84625099  0.32827254  0.47224922  1  -0.025068  0.001308  -0.088849  -0.13002  0.000678  3.960795  0.001
C  C137  1  0.48201215  0.15374904  0.13891470  1  -0.080104  0.001319  -0.088854  -0.129867  0.000678  3.960916  0.001
C  C138  1  0.67457077  0.76687049  0.06793495  1  1.551832  0.00491  0.22419  0.606672  0.003491  4.149657  0.004
C  C139  1  0.23315232  0.90771217  0.40127034  1  1.552311  0.004917  0.224007  0.606439  0.003496  4.149458  0.004
C  C140  1  0.09228622  0.32544109  0.73459662  1  1.569521  0.004871  0.22406  0.606469  0.003485  4.149832  0.004
C  C141  1  0.76686113  0.67456911  0.93206138  1  1.551885  0.004906  0.224074  0.606549  0.003491  4.149634  0.004
C  C142  1  0.90772804  0.23315978  0.59872828  1  1.552041  0.004909  0.223985  0.606401  0.003487  4.149774  0.004
C  C143  1  0.32541831  0.09228545  0.26539588  1  1.56848  0.004886  0.224076  0.606531  0.003493  4.149528  0.004
N  N144  1  0.13097948  0.68023537  0.27716750  1  -1.222437  0.062255  -0.330025  -0.266721  0.032404  3.615776  0.055
N  N145  1  0.31977887  0.45073129  0.61048647  1  -1.236057  0.062289  -0.330168  -0.26669  0.032406  3.615795  0.055
N  N146  1  0.54926849  0.86901973  0.94382678  1  -1.220467  0.062279  -0.330012  -0.266578  0.032405  3.616046  0.055
N  N147  1  0.68021167  0.13096936  0.72283164  1  -1.221736  0.06225  -0.330135  -0.266882  0.032406  3.615929  0.055
N  N148  1  0.45073971  0.31975029  0.38950729  1  -1.236894  0.06229  -0.330163  -0.266833  0.032405  3.615769  0.055
N  N149  1  0.86901932  0.54927267  0.05617032  1  -1.220183  0.062284  -0.330044  -0.266619  0.032409  3.615964  0.055
O  O150  1  0.78344714  0.75525591  0.07566887  1  -1.164717  0.071073  -0.316658  -0.574965  0.036387  2.399785  0.059
O  O151  1  0.24474037  0.02819316  0.40901207  1  -1.162566  0.071061  -0.316578  -0.574863  0.036388  2.399464  0.059
O  O152  1  0.97178107  0.21657528  0.74233150  1  -1.174085  0.0711  -0.316533  -0.574844  0.036391  2.399892  0.059
O  O153  1  0.75526652  0.78345780  0.92432369  1  -1.16479  0.071076  -0.316582  -0.574929  0.036387  2.399715  0.059
O  O154  1  0.02822285  0.24478400  0.59099045  1  -1.162329  0.07106  -0.316407  -0.574724  0.03639  2.399966  0.059
O  O155  1  0.21653258  0.97179638  0.25765979  1  -1.173989  0.071105  -0.316509  -0.57484  0.036393  2.399674  0.059
O  O156  1  0.64031868  0.79634182  0.02727207  1  -1.151354  0.08775  -0.30987  -0.558099  0.044896  2.396823  0.072
O  O157  1  0.20370197  0.84400105  0.36060559  1  -1.153335  0.087722  -0.309692  -0.557884  0.044889  2.396764  0.072
O  O158  1  0.15601803  0.35968504  0.69393465  1  -1.153795  0.087711  -0.309897  -0.558058  0.044903  2.396902  0.072
O  O159  1  0.79632166  0.64031574  0.97272536  1  -1.151287  0.087758  -0.30981  -0.558006  0.044898  2.396771  0.072
O  O160  1  0.84399956  0.20368283  0.63939209  1  -1.153351  0.087759  -0.309887  -0.558225  0.04491  2.3972  0.072
O  O161  1  0.35967139  0.15600078  0.30606133  1  -1.153532  0.087712  -0.309901  -0.558259  0.044903  2.39725  0.072
O  O162  1  0.21861253  0.31432677  0.32575626  1  -1.161658  0.076603  -0.322422  -0.575526  0.040097  2.387658  0.065
O  O163  1  0.68566285  0.90428859  0.65908939  1  -1.165878  0.076642  -0.32242  -0.575474  0.040096  2.387607  0.065
O  O164  1  0.09571414  0.78139265  0.99241184  1  -1.161341  0.076579  -0.322432  -0.575563  0.040091  2.387459  0.065
O  O165  1  0.31430332  0.21860234  0.67424440  1  -1.162176  0.07661  -0.322401  -0.575469  0.040097  2.387721  0.065
O  O166  1  0.90429857  0.68569387  0.34092593  1  -1.165692  0.076627  -0.32242  -0.575555  0.040097  2.387613  0.065
O  O167  1  0.78139601  0.09572668  0.00757958  1  -1.161677  0.076586  -0.322514  -0.575654  0.040094  2.387394  0.065
O  O168  1  0.09815025  0.37852548  0.37722056  1  -1.172966  0.000691  -0.315858  -0.538034  -0.000873  2.152289  0.001
O  O169  1  0.62144975  0.71963331  0.71055523  1  -1.166912  0.0007  -0.315737  -0.537976  -0.000872  2.152214  0.001
O  O170  1  0.28036769  0.90181291  0.04388182  1  -1.169626  0.000704  -0.315695  -0.537839  -0.000869  2.152128  0.001
O  O171  1  0.37849692  0.09813405  0.62278055  1  -1.173641  0.000691  -0.315795  -0.537967  -0.000873  2.15249  0.001
O  O172  1  0.71964461  0.62144579  0.28945505  1  -1.166174  0.000706  -0.315716  -0.53792  -0.000867  2.152268  0.001
O  O173  1  0.90183926  0.28038658  0.95611274  1  -1.169708  0.000702  -0.315807  -0.538049  -0.000871  2.152219  0.001
O  O174  1  0.96072847  0.96073334  0.99999886  1  -1.25847  0.065368  -0.533284  -0.755364  0.035327  2.238045  0.052
O  O175  1  0.03928344  0.00000316  0.33333530  1  -1.202665  0.065394  -0.533333  -0.755213  0.03533  2.238169  0.052
O  O176  1  0.99998641  0.03929007  0.66666655  1  -1.202761  0.065412  -0.53325  -0.754797  0.035331  2.238166  0.052
O  O177  1  0.06857818  0.90221529  0.08048595  1  -1.265648  0.055754  -0.5728  -0.785608  0.029214  2.124202  0.044
O  O178  1  0.09780301  0.16637332  0.41382331  1  -1.258146  0.055703  -0.572636  -0.785457  0.029221  2.124301  0.044
O  O179  1  0.83364243  0.93143837  0.74715562  1  -1.249115  0.05567  -0.572527  -0.78539  0.029205  2.124128  0.044
O  O180  1  0.90220127  0.06857838  0.91950496  1  -1.264708  0.055759  -0.572683  -0.785319  0.029219  2.124139  0.044
O  O181  1  0.16634438  0.09778698  0.58617234  1  -1.258061  0.055713  -0.572657  -0.785379  0.029226  2.124143  0.044
O  O182  1  0.93142981  0.83363967  0.25284456  1  -1.248517  0.055677  -0.572721  -0.7854  0.029207  2.124319  0.044
