# generated using pymatgen
data_Cu3H12(C7N13)2
_symmetry_space_group_name_H-M   'P 1'
_cell_length_a   7.57073902
_cell_length_b   8.04496502
_cell_length_c   10.25503413
_cell_angle_alpha   98.18601457
_cell_angle_beta   98.68107290
_cell_angle_gamma   91.86951261
_symmetry_Int_Tables_number   1
_chemical_formula_structural   Cu3H12(C7N13)2
_chemical_formula_sum   'Cu3 H12 C14 N26'
_cell_volume   610.21453536
_cell_formula_units_Z   1
loop_
 _symmetry_equiv_pos_site_id
 _symmetry_equiv_pos_as_xyz
  1  'x, y, z'
loop_
 _atom_site_type_symbol
 _atom_site_label
 _atom_site_symmetry_multiplicity
 _atom_site_fract_x
 _atom_site_fract_y
 _atom_site_fract_z
 _atom_site_occupancy
 _atom_site_pbe_cm5_charge
 _atom_site_pbe_ddec_charge
 _atom_site_pbe_ddec_spin_density
 _atom_site_pbe_ddec_sum_bond_order
 _atom_site_pbe_magmom
Cu  Cu0  1  0.50000851  0.00000802  0.49999866  1  0.756005  0.656156  0.521679  2.450539  0.401
Cu  Cu1  1  0.54775769  0.37547551  0.36319038  1  0.766462  0.687163  -0.529722  2.46882  -0.379
Cu  Cu2  1  0.45223722  0.62453217  0.63681220  1  0.766463  0.687083  -0.529744  2.46885  -0.379
H  H3  1  0.96507128  0.62711031  0.64777896  1  0.102674  0.117246  -0.000133  1.043866  0.0
H  H4  1  0.03492243  0.37287972  0.35221874  1  0.102715  0.117268  -0.000133  1.043861  0.0
H  H5  1  0.06664830  0.93079816  0.64713772  1  0.107538  0.112171  -0.000231  1.0051  0.0
H  H6  1  0.93334639  0.06918681  0.35285859  1  0.107542  0.112163  -0.000231  1.005153  0.0
H  H7  1  0.21923009  0.09943046  0.85815656  1  0.107209  0.128686  -0.000201  1.057383  0.0
H  H8  1  0.78076528  0.90056325  0.14183586  1  0.107199  0.12872  -0.000201  1.057285  0.0
H  H9  1  0.29368901  0.77025809  0.21117145  1  0.150835  0.117752  -0.0005  1.045113  0.0
H  H10  1  0.70631663  0.22973055  0.78882654  1  0.150852  0.117807  -0.0005  1.045164  0.0
H  H11  1  0.33041036  0.23702711  0.06607074  1  0.146209  0.127185  -2.7e-05  1.052475  0.0
H  H12  1  0.66958115  0.76297057  0.93393235  1  0.146258  0.127372  -2.7e-05  1.052372  0.0
H  H13  1  0.01852407  0.51086965  0.86232803  1  0.113509  0.084141  -0.000324  1.011226  0.0
H  H14  1  0.98147934  0.48912532  0.13767132  1  0.113536  0.084166  -0.000324  1.011216  0.0
C  C15  1  0.03111418  0.70641122  0.73802955  1  -0.090912  -0.145765  0.000277  3.960777  0.0
C  C16  1  0.96888050  0.29357377  0.26196774  1  -0.090897  -0.145622  0.000277  3.960938  0.0
C  C17  1  0.08672801  0.87351290  0.73794855  1  -0.072899  -0.015833  9.1e-05  3.952493  0.0
C  C18  1  0.91326813  0.12647329  0.26204611  1  -0.072968  -0.015977  9e-05  3.952837  0.0
C  C19  1  0.17184169  0.96952646  0.85642364  1  -0.093001  -0.210259  0.000129  3.927361  0.0
C  C20  1  0.82815884  0.03046469  0.14357010  1  -0.093019  -0.21035  0.000129  3.927205  0.0
C  C21  1  0.19467883  0.88950418  0.96928754  1  0.21083  0.286656  -0.000197  4.049237  0.0
C  C22  1  0.80533068  0.11050072  0.03070868  1  0.210894  0.286706  -0.000197  4.049192  0.0
C  C23  1  0.32332167  0.90221875  0.20826134  1  0.175677  0.120519  -0.00142  3.852837  0.0
C  C24  1  0.67668321  0.09777876  0.79174137  1  0.175608  0.120351  -0.001421  3.852946  0.0
C  C25  1  0.33925682  0.14158314  0.13163457  1  0.173477  0.113992  0.001864  3.827206  0.002
C  C26  1  0.66074229  0.85840813  0.86836584  1  0.173426  0.113636  0.001864  3.827327  0.002
C  C27  1  0.06093032  0.64063427  0.85805055  1  0.049524  0.114039  -0.00036  3.960965  0.0
C  C28  1  0.93907421  0.35935821  0.14195160  1  0.049534  0.114018  -0.00036  3.960932  0.0
N  N29  1  0.14139205  0.73109082  0.97295928  1  -0.31771  -0.324571  -0.000694  3.316114  -0.001
N  N30  1  0.85861685  0.26890527  0.02703595  1  -0.317756  -0.324608  -0.000694  3.316188  -0.001
N  N31  1  0.28189334  0.97614118  0.09618750  1  -0.202537  -0.031589  -0.000164  3.724368  0.0
N  N32  1  0.71811120  0.02385128  0.90381368  1  -0.20254  -0.031442  -0.000165  3.724397  0.0
N  N33  1  0.41192739  0.16609543  0.25879995  1  -0.251732  -0.159823  -0.029996  3.542507  -0.036
N  N34  1  0.58807062  0.83389965  0.74120267  1  -0.251694  -0.159657  -0.029995  3.542548  -0.036
N  N35  1  0.40150326  0.01648480  0.30677332  1  -0.247126  -0.157801  0.031459  3.53284  0.041
N  N36  1  0.59849988  0.98350639  0.69322560  1  -0.247092  -0.157733  0.031461  3.53257  0.041
N  N37  1  0.36370756  0.77938752  0.50535430  1  -0.360162  -0.544724  0.005628  3.322113  0.009
N  N38  1  0.63630390  0.22062755  0.49465197  1  -0.360101  -0.544644  0.005622  3.32179  0.009
N  N39  1  0.22084398  0.73817307  0.43408705  1  0.094574  0.420917  -0.00045  4.399273  -0.002
N  N40  1  0.77917950  0.26184323  0.56592759  1  0.094589  0.420658  -0.000447  4.398596  -0.002
N  N41  1  0.08561245  0.69718791  0.36614426  1  -0.112097  -0.250362  0.010848  2.590771  0.012
N  N42  1  0.91441697  0.30281965  0.63387994  1  -0.112179  -0.250274  0.010839  2.590586  0.012
N  N43  1  0.28802829  0.44480879  0.53610957  1  -0.315452  -0.519627  -0.050511  3.117445  -0.06
N  N44  1  0.71195847  0.55521256  0.46387492  1  -0.315416  -0.519529  -0.050554  3.116306  -0.06
N  N45  1  0.27685099  0.30313471  0.56024445  1  0.08523  0.424035  -0.00027  4.46628  0.007
N  N46  1  0.72313898  0.69691305  0.43974410  1  0.08529  0.424082  -0.000271  4.466132  0.007
N  N47  1  0.26054143  0.16225235  0.57482881  1  -0.187585  -0.37003  -0.068892  2.751596  -0.072
N  N48  1  0.73945828  0.83778413  0.42517047  1  -0.187663  -0.370132  -0.068855  2.752638  -0.072
N  N49  1  0.44592099  0.50378076  0.22400352  1  -0.314047  -0.499426  -0.054266  3.020596  -0.063
N  N50  1  0.55404410  0.49620206  0.77599298  1  -0.31388  -0.499239  -0.054246  3.02085  -0.063
N  N51  1  0.53938571  0.57792441  0.16368333  1  0.082597  0.406222  0.000583  4.490088  0.008
N  N52  1  0.46059302  0.42206203  0.83631418  1  0.082565  0.406349  0.000581  4.490704  0.008
N  N53  1  0.62124615  0.65408218  0.10190784  1  -0.179106  -0.358966  -0.073354  2.66982  -0.077
N  N54  1  0.37874615  0.34590795  0.89809555  1  -0.179253  -0.359272  -0.07334  2.670283  -0.077
