# generated using pymatgen
data_CdH20C16(SeN3)2
_symmetry_space_group_name_H-M   'P 1'
_cell_length_a   6.05475310
_cell_length_b   11.13013921
_cell_length_c   14.40294558
_cell_angle_alpha   90.00098368
_cell_angle_beta   99.90171412
_cell_angle_gamma   89.99947922
_symmetry_Int_Tables_number   1
_chemical_formula_structural   CdH20C16(SeN3)2
_chemical_formula_sum   'Cd2 H40 C32 Se4 N12'
_cell_volume   956.15988071
_cell_formula_units_Z   2
loop_
 _symmetry_equiv_pos_site_id
 _symmetry_equiv_pos_as_xyz
  1  'x, y, z'
loop_
 _atom_site_type_symbol
 _atom_site_label
 _atom_site_symmetry_multiplicity
 _atom_site_fract_x
 _atom_site_fract_y
 _atom_site_fract_z
 _atom_site_occupancy
 _atom_site_hle17_bader_spin_density
 _atom_site_hle17_ddec_charge
 _atom_site_hle17_ddec_spin_density
 _atom_site_hle17_ddec_sum_bond_order
 _atom_site_hle17_magmom
 _atom_site_hse06_10hf_bader_spin_density
 _atom_site_hse06_10hf_ddec_charge
 _atom_site_hse06_10hf_ddec_spin_density
 _atom_site_hse06_10hf_ddec_sum_bond_order
 _atom_site_hse06_10hf_magmom
 _atom_site_hse06_bader_spin_density
 _atom_site_hse06_ddec_charge
 _atom_site_hse06_ddec_spin_density
 _atom_site_hse06_ddec_sum_bond_order
 _atom_site_hse06_magmom
 _atom_site_pbe_bader_spin_density
 _atom_site_pbe_cm5_charge
 _atom_site_pbe_ddec_charge
 _atom_site_pbe_ddec_spin_density
 _atom_site_pbe_ddec_sum_bond_order
 _atom_site_pbe_magmom
Cd  Cd0  1  0.99994656  0.00000427  0.00000505  1  0  0.907927  0  1.999794  0  0  0.722097  0  2.465743  0  0  0.769103  0  2.428473  0  0  0.690462  0.689809  0  2.490605  0
Cd  Cd1  1  0.00004682  0.50000216  0.50000028  1  0  0.907925  0  1.999888  0  0  0.72211  0  2.465815  0  0  0.769113  0  2.428549  0  0  0.690481  0.689823  0  2.490672  0
H  H2  1  0.64499559  0.77864141  0.99678797  1  0  0.065744  0  0.971647  0  0  0.074593  0  1.03913  0  0  0.075994  0  1.037636  0  0  0.104098  0.073557  0  1.040109  0
H  H3  1  0.64500550  0.72134171  0.49679001  1  0  0.06577  0  0.97144  0  0  0.074585  0  1.038962  0  0  0.075981  0  1.037484  0  0  0.104065  0.07355  0  1.039944  0
H  H4  1  0.35498579  0.22134562  0.00320882  1  0  0.065768  0  0.971504  0  0  0.074557  0  1.039066  0  0  0.075968  0  1.037544  0  0  0.104056  0.073514  0  1.04007  0
H  H5  1  0.35498790  0.27864801  0.50321731  1  0  0.065841  0  0.971517  0  0  0.074619  0  1.039053  0  0  0.076016  0  1.037574  0  0  0.10409  0.073584  0  1.040032  0
H  H6  1  0.61874213  0.57128917  0.04904353  1  0  0.100006  0  0.987335  0  0  0.110844  0  1.052165  0  0  0.114153  0  1.051532  0  0  0.09936  0.108425  0  1.05299  0
H  H7  1  0.61874146  0.92870641  0.54903607  1  0  0.100029  0  0.987392  0  0  0.110868  0  1.052206  0  0  0.114182  0  1.051543  0  0  0.099368  0.108451  0  1.053032  0
H  H8  1  0.38127458  0.42870504  0.95095980  1  0  0.10003  0  0.987355  0  0  0.110872  0  1.052168  0  0  0.114159  0  1.051568  0  0  0.099365  0.108454  0  1.052992  0
H  H9  1  0.38126196  0.07128690  0.45097054  1  0  0.099919  0  0.987252  0  0  0.110844  0  1.052019  0  0  0.114105  0  1.051412  0  0  0.099381  0.108424  0  1.052847  0
H  H10  1  0.32242893  0.59959892  0.17970416  1  0  0.096182  0  1.019934  0  0  0.100905  0  1.093398  0  0  0.104859  0  1.091926  0  0  0.089968  0.098055  0  1.094612  0
H  H11  1  0.32243618  0.90040591  0.67970930  1  0  0.09625  0  1.019985  0  0  0.100992  0  1.093433  0  0  0.104949  0  1.091957  0  0  0.089942  0.098134  0  1.094653  0
H  H12  1  0.67758409  0.40040068  0.82028781  1  0  0.096163  0  1.019927  0  0  0.100912  0  1.093393  0  0  0.104871  0  1.091914  0  0  0.089979  0.098054  0  1.094612  0
H  H13  1  0.67757856  0.09960897  0.32028418  1  0  0.096237  0  1.020052  0  0  0.100993  0  1.093485  0  0  0.104955  0  1.092004  0  0  0.089989  0.098132  0  1.094705  0
H  H14  1  0.31483930  0.80343682  0.11879663  1  0  0.065448  0  0.960157  0  0  0.072125  0  1.030452  0  0  0.074395  0  1.027884  0  0  0.102023  0.070288  0  1.032682  0
H  H15  1  0.31486424  0.69656067  0.61880958  1  0  0.065381  0  0.959966  0  0  0.072015  0  1.030328  0  0  0.074288  0  1.027757  0  0  0.101987  0.070178  0  1.032555  0
H  H16  1  0.68512829  0.19656009  0.88118674  1  0  0.065432  0  0.959774  0  0  0.072079  0  1.030134  0  0  0.074349  0  1.027568  0  0  0.102004  0.070242  0  1.03236  0
H  H17  1  0.68515572  0.30344971  0.38119050  1  0  0.065424  0  0.960133  0  0  0.072032  0  1.030517  0  0  0.074303  0  1.027945  0  0  0.101961  0.070194  0  1.032747  0
H  H18  1  0.60523904  0.42715086  0.13510600  1  0  0.081739  0  0.979772  0  0  0.099061  0  1.052236  0  0  0.099682  0  1.051998  0  0  0.094573  0.098494  0  1.052615  0
H  H19  1  0.60522161  0.07284654  0.63511006  1  0  0.081753  0  0.979493  0  0  0.099016  0  1.052068  0  0  0.099631  0  1.051838  0  0  0.09453  0.098449  0  1.052447  0
H  H20  1  0.39478274  0.57284335  0.86489906  1  0  0.081755  0  0.979566  0  0  0.099068  0  1.052053  0  0  0.099688  0  1.051817  0  0  0.094564  0.098498  0  1.052433  0
H  H21  1  0.39475853  0.92715486  0.36490123  1  0  0.081739  0  0.979738  0  0  0.099081  0  1.052177  0  0  0.099701  0  1.051936  0  0  0.094564  0.098514  0  1.052556  0
H  H22  1  0.74435913  0.33481680  0.06045798  1  0  0.090646  0  0.953661  0  0  0.11082  0  1.019156  0  0  0.109977  0  1.02139  0  0  0.094515  0.111499  0  1.017332  0
H  H23  1  0.74433265  0.16516876  0.56046075  1  0  0.09059  0  0.953815  0  0  0.110815  0  1.019208  0  0  0.10997  0  1.021442  0  0  0.094538  0.111494  0  1.017387  0
H  H24  1  0.25566565  0.66519358  0.93953548  1  0  0.090585  0  0.953847  0  0  0.110836  0  1.019249  0  0  0.109995  0  1.021479  0  0  0.094551  0.111514  0  1.017427  0
H  H25  1  0.25564045  0.83481377  0.43953896  1  0  0.090593  0  0.95376  0  0  0.110796  0  1.01922  0  0  0.109953  0  1.021454  0  0  0.094501  0.111477  0  1.017398  0
H  H26  1  0.76435659  0.30146872  0.18241560  1  0  0.104137  0  0.943261  0  0  0.124704  0  1.006119  0  0  0.124786  0  1.007267  0  0  0.104961  0.124485  0  1.00554  0
H  H27  1  0.76434099  0.19853593  0.68241405  1  0  0.104163  0  0.943165  0  0  0.12472  0  1.006032  0  0  0.124808  0  1.007182  0  0  0.10494  0.124498  0  1.005456  0
H  H28  1  0.23566654  0.69852189  0.81757844  1  0  0.104163  0  0.943208  0  0  0.124721  0  1.006089  0  0  0.124806  0  1.007237  0  0  0.104962  0.124501  0  1.005509  0
H  H29  1  0.23564194  0.80146996  0.31757868  1  0  0.104151  0  0.943195  0  0  0.124725  0  1.006054  0  0  0.124809  0  1.007203  0  0  0.104952  0.124504  0  1.00548  0
H  H30  1  0.29979142  0.43966259  0.21948577  1  0  0.086131  0  1.007655  0  0  0.104736  0  1.075098  0  0  0.10538  0  1.075043  0  0  0.092473  0.104189  0  1.075242  0
H  H31  1  0.29976861  0.06032624  0.71948997  1  0  0.08613  0  1.007721  0  0  0.104751  0  1.07516  0  0  0.105394  0  1.07511  0  0  0.092431  0.104202  0  1.075307  0
H  H32  1  0.70023224  0.56033791  0.78052636  1  0  0.086193  0  1.007711  0  0  0.104785  0  1.075174  0  0  0.105429  0  1.075122  0  0  0.092486  0.104239  0  1.075313  0
H  H33  1  0.70020664  0.93965988  0.28052585  1  0  0.08618  0  1.007634  0  0  0.104785  0  1.075072  0  0  0.105424  0  1.075021  0  0  0.092502  0.104241  0  1.075209  0
H  H34  1  0.11358097  0.35310600  0.27446733  1  0  0.097414  0  0.955085  0  0  0.11608  0  1.020288  0  0  0.115631  0  1.022551  0  0  0.096669  0.116536  0  1.018405  0
H  H35  1  0.11358075  0.14689956  0.77447089  1  0  0.097371  0  0.955147  0  0  0.116053  0  1.020327  0  0  0.115629  0  1.022566  0  0  0.096659  0.116509  0  1.018443  0
H  H36  1  0.88642063  0.64688551  0.72553430  1  0  0.09744  0  0.955019  0  0  0.116103  0  1.020204  0  0  0.115664  0  1.022457  0  0  0.096692  0.116556  0  1.018325  0
H  H37  1  0.88641092  0.85311262  0.22553423  1  0  0.09742  0  0.955105  0  0  0.11608  0  1.020293  0  0  0.115638  0  1.022549  0  0  0.096689  0.116536  0  1.018412  0
H  H38  1  0.18676275  0.30372042  0.16605378  1  0  0.082248  0  0.985853  0  0  0.097744  0  1.059897  0  0  0.098421  0  1.060335  0  0  0.084414  0.097312  0  1.05945  0
H  H39  1  0.18677391  0.19627375  0.66605399  1  0  0.082232  0  0.985935  0  0  0.097756  0  1.059953  0  0  0.098434  0  1.060394  0  0  0.08442  0.097324  0  1.059504  0
H  H40  1  0.81324719  0.69628457  0.83394702  1  0  0.082252  0  0.985838  0  0  0.097746  0  1.059881  0  0  0.098425  0  1.060318  0  0  0.084391  0.097312  0  1.059434  0
H  H41  1  0.81324257  0.80371507  0.33394168  1  0  0.082237  0  0.985886  0  0  0.097731  0  1.059928  0  0  0.09841  0  1.060364  0  0  0.084384  0.097299  0  1.059482  0
C  C42  1  0.79193067  0.73512924  0.03745561  1  0  0.133759  0  3.779167  0  0  0.104431  0  4.030329  0  0  0.115762  0  4.047571  0  0  0.029581  0.097153  0  4.01874  0
C  C43  1  0.79196577  0.76485785  0.53746194  1  0  0.133806  0  3.779123  0  0  0.10452  0  4.030283  0  0  0.115848  0  4.047521  0  0  0.029768  0.09724  0  4.018701  0
C  C44  1  0.20804239  0.26486856  0.96254271  1  0  0.133746  0  3.779438  0  0  0.104459  0  4.030587  0  0  0.115796  0  4.047828  0  0  0.029667  0.097173  0  4.019005  0
C  C45  1  0.20804783  0.23513995  0.46254951  1  0  0.133601  0  3.779185  0  0  0.104356  0  4.030363  0  0  0.115686  0  4.04759  0  0  0.029619  0.097077  0  4.018775  0
C  C46  1  0.77802253  0.61788583  0.06738439  1  0  -0.243362  0  3.724646  0  0  -0.260238  0  3.980428  0  0  -0.271784  0  3.999359  0  0  -0.112016  -0.253358  0  3.968275  0
C  C47  1  0.77802558  0.88211645  0.56737924  1  0  -0.243491  0  3.724561  0  0  -0.260315  0  3.98037  0  0  -0.27185  0  3.999308  0  0  -0.112047  -0.253437  0  3.968223  0
C  C48  1  0.22197923  0.38211018  0.93262280  1  0  -0.24346  0  3.724992  0  0  -0.260334  0  3.980699  0  0  -0.271869  0  3.999639  0  0  -0.112006  -0.253448  0  3.968546  0
C  C49  1  0.22195614  0.11787596  0.43262938  1  0  -0.243259  0  3.724483  0  0  -0.260179  0  3.98032  0  0  -0.271666  0  3.999296  0  0  -0.112035  -0.253304  0  3.968182  0
C  C50  1  0.96811045  0.56104541  0.12180447  1  0  0.255662  0  3.79143  0  0  0.23949  0  4.032661  0  0  0.257198  0  4.049043  0  0  0.118418  0.228031  0  4.020572  0
C  C51  1  0.96809870  0.93894937  0.62180822  1  0  0.256  0  3.791404  0  0  0.239676  0  4.03285  0  0  0.257384  0  4.049229  0  0  0.118461  0.228217  0  4.020761  0
C  C52  1  0.03190278  0.43895509  0.87819446  1  0  0.255826  0  3.791286  0  0  0.239644  0  4.032455  0  0  0.257361  0  4.048822  0  0  0.118514  0.228182  0  4.020365  0
C  C53  1  0.03189799  0.06105383  0.37819724  1  0  0.25587  0  3.791495  0  0  0.239526  0  4.033013  0  0  0.257231  0  4.049394  0  0  0.118449  0.228068  0  4.020921  0
C  C54  1  0.16599798  0.63254371  0.13896242  1  0  -0.245475  0  3.725453  0  0  -0.259069  0  3.979385  0  0  -0.271078  0  3.997894  0  0  -0.112356  -0.250754  0  3.966538  0
C  C55  1  0.16600110  0.86745664  0.63897372  1  0  -0.245725  0  3.725293  0  0  -0.259275  0  3.979214  0  0  -0.271286  0  3.997727  0  0  -0.112351  -0.250953  0  3.966365  0
C  C56  1  0.83401175  0.36744421  0.86103142  1  0  -0.245522  0  3.726138  0  0  -0.259148  0  3.980015  0  0  -0.27116  0  3.998527  0  0  -0.112403  -0.250826  0  3.967162  0
C  C57  1  0.83400704  0.13254835  0.36102279  1  0  -0.245677  0  3.725353  0  0  -0.259228  0  3.979254  0  0  -0.271241  0  3.99777  0  0  -0.112383  -0.250901  0  3.966404  0
C  C58  1  0.16321737  0.74860125  0.10487807  1  0  0.125065  0  3.799756  0  0  0.094104  0  4.055652  0  0  0.105643  0  4.071824  0  0  0.026155  0.086602  0  4.044563  0
C  C59  1  0.16321364  0.75139310  0.60488576  1  0  0.125237  0  3.799558  0  0  0.094322  0  4.055441  0  0  0.105857  0  4.071619  0  0  0.02622  0.086823  0  4.044348  0
C  C60  1  0.83678880  0.25140913  0.89510859  1  0  0.124991  0  3.800123  0  0  0.094071  0  4.05602  0  0  0.105605  0  4.072204  0  0  0.026111  0.086572  0  4.044923  0
C  C61  1  0.83677095  0.24862088  0.39510639  1  0  0.125244  0  3.799128  0  0  0.094343  0  4.055001  0  0  0.105879  0  4.071176  0  0  0.026246  0.086845  0  4.043909  0
C  C62  1  0.75646722  0.37468481  0.13114194  1  0  -0.171248  0  3.670733  0  0  -0.271324  0  3.91822  0  0  -0.267127  0  3.928825  0  0  -0.141031  -0.273872  0  3.910585  0
C  C63  1  0.75645955  0.12531629  0.63114120  1  0  -0.171251  0  3.67055  0  0  -0.271264  0  3.917999  0  0  -0.267074  0  3.928613  0  0  -0.141018  -0.273818  0  3.910367  0
C  C64  1  0.24354771  0.62531748  0.86885780  1  0  -0.1712  0  3.670654  0  0  -0.271354  0  3.918146  0  0  -0.267155  0  3.928744  0  0  -0.141033  -0.273907  0  3.910515  0
C  C65  1  0.24352700  0.87468331  0.36886079  1  0  -0.171291  0  3.670922  0  0  -0.271357  0  3.918358  0  0  -0.267159  0  3.928964  0  0  -0.141021  -0.273911  0  3.910723  0
C  C66  1  0.15013720  0.38334545  0.20607991  1  0  -0.171175  0  3.667261  0  0  -0.267473  0  3.905942  0  0  -0.264076  0  3.916577  0  0  -0.144619  -0.269329  0  3.897942  0
C  C67  1  0.15014444  0.11665190  0.70608282  1  0  -0.171127  0  3.667185  0  0  -0.267452  0  3.905819  0  0  -0.264079  0  3.91644  0  0  -0.144632  -0.269309  0  3.897818  0
C  C68  1  0.84985773  0.61665595  0.79392265  1  0  -0.171191  0  3.66698  0  0  -0.26752  0  3.905679  0  0  -0.264134  0  3.916305  0  0  -0.144627  -0.269379  0  3.897683  0
C  C69  1  0.84984880  0.88334591  0.29391894  1  0  -0.171156  0  3.666976  0  0  -0.267444  0  3.905762  0  0  -0.264051  0  3.916393  0  0  -0.144632  -0.269302  0  3.897761  0
C  C70  1  0.44863535  0.94099842  0.88474007  1  0  0.218425  0  3.840924  0  0  0.207999  0  4.145685  0  0  0.228716  0  4.158461  0  0  0.104421  0.193749  0  4.137222  0
C  C71  1  0.44871893  0.55900646  0.38473486  1  0  0.218788  0  3.841139  0  0  0.208382  0  4.145837  0  0  0.229107  0  4.158597  0  0  0.104596  0.194129  0  4.137377  0
C  C72  1  0.55127738  0.05902454  0.11525489  1  0  0.218769  0  3.84129  0  0  0.208352  0  4.145987  0  0  0.229074  0  4.158762  0  0  0.104482  0.1941  0  4.137527  0
C  C73  1  0.55135438  0.44098864  0.61525908  1  0  0.218406  0  3.840763  0  0  0.207992  0  4.145511  0  0  0.228714  0  4.158281  0  0  0.104456  0.19374  0  4.13705  0
Se  Se74  1  0.69291525  0.94105066  0.82922439  1  0  -0.269144  0  2.014138  0  0  -0.241529  0  2.362349  0  0  -0.25997  0  2.35252  0  0  -0.053451  -0.228922  0  2.368958  0
Se  Se75  1  0.69301566  0.55896077  0.32922240  1  0  -0.269184  0  2.014019  0  0  -0.241557  0  2.36216  0  0  -0.260001  0  2.352337  0  0  -0.053442  -0.228952  0  2.368775  0
Se  Se76  1  0.30701935  0.05895164  0.17077481  1  0  -0.26914  0  2.014362  0  0  -0.241503  0  2.362508  0  0  -0.259953  0  2.352695  0  0  -0.053394  -0.228882  0  2.369105  0
Se  Se77  1  0.30707094  0.44105680  0.67076827  1  0  -0.269136  0  2.014284  0  0  -0.241522  0  2.362491  0  0  -0.259965  0  2.352663  0  0  -0.053463  -0.228918  0  2.3691  0
N  N78  1  0.98035281  0.80223841  0.05493264  1  0  -0.380425  0  3.308412  0  0  -0.304806  0  3.578146  0  0  -0.328047  0  3.597117  0  0  -0.360974  -0.289095  0  3.564356  0
N  N79  1  0.98036938  0.69775936  0.55494435  1  0  -0.380544  0  3.309214  0  0  -0.304926  0  3.578906  0  0  -0.328173  0  3.597895  0  0  -0.361126  -0.289211  0  3.565095  0
N  N80  1  0.01962335  0.19775939  0.94505755  1  0  -0.380428  0  3.30854  0  0  -0.304815  0  3.578263  0  0  -0.328065  0  3.597246  0  0  -0.361027  -0.289101  0  3.564471  0
N  N81  1  0.01964395  0.30224383  0.44505806  1  0  -0.380455  0  3.308859  0  0  -0.304851  0  3.578553  0  0  -0.328089  0  3.597525  0  0  -0.360984  -0.289142  0  3.564764  0
N  N82  1  0.95761784  0.44769234  0.15519289  1  0  -0.092484  0  3.454228  0  0  0.01318  0  3.673754  0  0  -0.006996  0  3.699239  0  0  -0.284751  0.027335  0  3.655129  0
N  N83  1  0.95760638  0.05230408  0.65519287  1  0  -0.092648  0  3.4541  0  0  0.013003  0  3.673748  0  0  -0.007175  0  3.69924  0  0  -0.284735  0.02716  0  3.655125  0
N  N84  1  0.04239558  0.55230546  0.84481230  1  0  -0.092607  0  3.454119  0  0  0.013163  0  3.67354  0  0  -0.007013  0  3.699024  0  0  -0.284821  0.027319  0  3.654915  0
N  N85  1  0.04238030  0.94769282  0.34481330  1  0  -0.092584  0  3.453809  0  0  0.013061  0  3.673501  0  0  -0.007118  0  3.69899  0  0  -0.284809  0.02722  0  3.654874  0
N  N86  1  0.28628034  0.93900103  0.91969374  1  0  -0.483198  0  2.893323  0  0  -0.427392  0  3.168187  0  0  -0.446039  0  3.176007  0  0  -0.377648  -0.415243  0  3.163214  0
N  N87  1  0.28639495  0.56098656  0.41971704  1  0  -0.483589  0  2.893936  0  0  -0.427802  0  3.168836  0  0  -0.446449  0  3.176635  0  0  -0.377843  -0.415654  0  3.16387  0
N  N88  1  0.71361339  0.06100666  0.08028119  1  0  -0.483559  0  2.89368  0  0  -0.427756  0  3.168572  0  0  -0.446403  0  3.176376  0  0  -0.377752  -0.415607  0  3.163613  0
N  N89  1  0.71370570  0.43900944  0.58029610  1  0  -0.4832  0  2.893204  0  0  -0.4274  0  3.168076  0  0  -0.446047  0  3.17589  0  0  -0.37768  -0.415253  0  3.163104  0
