# generated using pymatgen
data_AlH6C21N3(ClO)6
_symmetry_space_group_name_H-M   'P 1'
_cell_length_a   3.99694392
_cell_length_b   27.91750410
_cell_length_c   27.91959748
_cell_angle_alpha   120.00485225
_cell_angle_beta   89.98002316
_cell_angle_gamma   90.01167445
_symmetry_Int_Tables_number   1
_chemical_formula_structural   AlH6C21N3(ClO)6
_chemical_formula_sum   'Al2 H12 C42 N6 Cl12 O12'
_cell_volume   2697.88333020
_cell_formula_units_Z   2
loop_
 _symmetry_equiv_pos_site_id
 _symmetry_equiv_pos_as_xyz
  1  'x, y, z'
loop_
 _atom_site_type_symbol
 _atom_site_label
 _atom_site_symmetry_multiplicity
 _atom_site_fract_x
 _atom_site_fract_y
 _atom_site_fract_z
 _atom_site_occupancy
 _atom_site_pbe_bader_charge
 _atom_site_pbe_bader_spin_density
 _atom_site_pbe_cm5_charge
 _atom_site_pbe_ddec_charge
 _atom_site_pbe_ddec_spin_density
 _atom_site_pbe_ddec_sum_bond_order
 _atom_site_pbe_magmom
Al  Al0  1  0.00135804  0.49999304  0.49998041  1  2.507344  0  0.42029  1.6159  0  2.543981  0
Al  Al1  1  0.00621990  0.16667684  0.83335493  1  2.507485  0  0.426651  1.607663  0  2.567814  0
H  H2  1  0.39531697  0.18161465  0.69335490  1  0.11303  0  0.113431  0.12269  0  0.9759  0
H  H3  1  0.42058930  0.23601524  0.64380046  1  0.129619  0  0.111649  0.114778  0  1.007312  0
H  H4  1  0.32020155  0.28752852  0.53956745  1  0.131579  0  0.114295  0.134485  0  0.983391  0
H  H5  1  0.64762254  0.42961260  0.69109391  1  0.147512  0  0.114164  0.135124  0  1.004719  0
H  H6  1  0.39464721  0.01171379  0.81837694  1  0.056449  0  0.113489  0.122738  0  0.975913  0
H  H7  1  0.41984296  0.90775954  0.76396264  1  0.129717  0  0.111711  0.114893  0  1.007659  0
H  H8  1  0.32024123  0.75202337  0.71245173  1  0.09433  0  0.114408  0.134729  0  0.98308  0
H  H9  1  0.64777340  0.76150747  0.57038736  1  0.146174  0  0.114089  0.134977  0  1.004746  0
H  H10  1  0.39463384  0.30666801  0.98832289  1  0.107895  0  0.113573  0.122878  0  0.975928  0
H  H11  1  0.41996649  0.35619870  0.09228148  1  0.131082  0  0.111643  0.114835  0  1.007478  0
H  H12  1  0.32032215  0.46042145  0.24797381  1  0.099021  0  0.114432  0.134703  0  0.983303  0
H  H13  1  0.64751446  0.30887349  0.23848527  1  0.158886  0  0.114107  0.134918  0  1.00446  0
C  C14  1  0.50158750  0.46297893  0.41540011  1  1.659784  0  0.274621  0.674601  0  4.079088  0
C  C15  1  0.50148827  0.45241812  0.53699653  1  1.661643  0  0.274882  0.674938  0  4.078559  0
C  C16  1  0.50167487  0.58458627  0.54756415  1  1.606109  0  0.274493  0.674439  0  4.079138  0
C  C17  1  0.50371221  0.21649946  0.79888682  1  1.613756  0  0.278425  0.669232  0  4.052207  0
C  C18  1  0.50351044  0.08238996  0.78352270  1  1.617075  0  0.2785  0.669255  0  4.052725  0
C  C19  1  0.50350960  0.20113473  0.91762925  1  1.622464  0  0.278415  0.669197  0  4.053587  0
C  C20  1  0.49823938  0.25219992  0.77311445  1  0.085892  0  -0.006358  -0.072774  0  3.925501  0
C  C21  1  0.44233293  0.22602664  0.71578523  1  -0.058132  0  -0.07897  -0.078514  0  3.981661  0
C  C22  1  0.45448947  0.25570683  0.68838572  1  0.083177  0  -0.081631  -0.13146  0  3.975097  0
C  C23  1  0.51258665  0.31301535  0.71780151  1  0.295305  0  0.087058  0.121337  0  4.030747  0
C  C24  1  0.55887223  0.34026402  0.77579882  1  0.087865  0  0.019243  0.032432  0  3.983863  0
C  C25  1  0.55469343  0.30956149  0.80337406  1  0.088733  0  0.015816  0.073959  0  4.005846  0
C  C26  1  0.39546868  0.33080359  0.56195274  1  -0.071438  0  -0.085683  -0.214618  0  3.931948  0
C  C27  1  0.48079483  0.35561669  0.61800950  1  0.335744  0  0.089579  0.197944  0  4.050267  0
C  C28  1  0.58031483  0.41128099  0.64768089  1  0.144633  0  -0.088908  -0.214322  0  3.926353  0
C  C29  1  0.58955821  0.44170219  0.62084991  1  0.0  0  0.022708  0.150483  0  4.038928  0
C  C30  1  0.50003466  0.41806291  0.56467454  1  0.017951  0  -0.010179  -0.139973  0  3.886972  0
C  C31  1  0.40526646  0.36218939  0.53577486  1  0.121965  0  0.020378  0.146737  0  4.038587  0
C  C32  1  0.49792307  0.02090985  0.74780327  1  0.03009  0  -0.006649  -0.073143  0  3.925045  0
C  C33  1  0.44182715  0.98975472  0.77397513  1  -0.005017  0  -0.078864  -0.078206  0  3.980311  0
C  C34  1  0.45400938  0.93266324  0.74428722  1  0.015716  0  -0.0816  -0.131439  0  3.975222  0
C  C35  1  0.51239942  0.90479451  0.68698917  1  0.34799  0  0.086981  0.120546  0  4.031783  0
C  C36  1  0.55885730  0.93554705  0.65974780  1  0.091712  0  0.019074  0.032553  0  3.983084  0
C  C37  1  0.55459189  0.99383178  0.69045504  1  0.160075  0  0.016035  0.07423  0  4.00529  0
C  C38  1  0.39556853  0.73113684  0.66917653  1  -0.063459  0  -0.085736  -0.21505  0  3.93216  0
C  C39  1  0.48083084  0.76239028  0.64437133  1  0.379464  0  0.089471  0.197743  0  4.050748  0
C  C40  1  0.58041456  0.73641884  0.58871212  1  0.08733  0  -0.088864  -0.214084  0  3.92571  0
C  C41  1  0.58969864  0.67915792  0.55828659  1  0.013241  0  0.02294  0.150901  0  4.038854  0
C  C42  1  0.50018012  0.64661366  0.58191942  1  0.128576  0  -0.010368  -0.140707  0  3.888687  0
C  C43  1  0.40542006  0.67356661  0.63779157  1  0.099145  0  0.020282  0.147158  0  4.038763  0
C  C44  1  0.49799214  0.22689726  0.97911041  1  0.08955  0  -0.006726  -0.073141  0  3.924817  0
C  C45  1  0.44187384  0.28422961  0.01027890  1  -0.207514  0  -0.078775  -0.078354  0  3.980271  0
C  C46  1  0.45405298  0.31161248  0.06736007  1  0.118178  0  -0.081893  -0.131714  0  3.97514  0
C  C47  1  0.51240189  0.28218596  0.09522096  1  0.30387  0  0.086964  0.120634  0  4.031664  0
C  C48  1  0.55887480  0.22418911  0.06446219  1  0.238975  0  0.019454  0.032872  0  3.983365  0
C  C49  1  0.55465183  0.19662890  0.00618455  1  0.043405  0  0.015802  0.073972  0  4.005915  0
C  C50  1  0.39555276  0.43804626  0.26886395  1  0.021903  0  -0.085651  -0.214912  0  3.931826  0
C  C51  1  0.48078226  0.38197316  0.23761127  1  0.339284  0  0.089436  0.197755  0  4.050852  0
C  C52  1  0.58024169  0.35229777  0.26358244  1  -0.026047  0  -0.088837  -0.214007  0  3.92652  0
C  C53  1  0.58959804  0.37912221  0.32083149  1  0.105218  0  0.022935  0.150786  0  4.038847  0
C  C54  1  0.50011246  0.43531374  0.35337761  1  0.079538  0  -0.010481  -0.140796  0  3.888311  0
C  C55  1  0.40542851  0.46422260  0.32642649  1  0.063829  0  0.020216  0.146974  0  4.038985  0
N  N56  1  0.53148189  0.34590498  0.69281744  1  -0.480705  0  -0.145254  -0.10658  0  3.300613  0
N  N57  1  0.45662995  0.32141801  0.64188238  1  -0.445074  0  -0.143557  -0.127899  0  3.237868  0
N  N58  1  0.53136114  0.84691776  0.65409492  1  -0.440688  0  -0.145146  -0.106054  0  3.301374  0
N  N59  1  0.45655223  0.82046396  0.67857220  1  -0.485474  0  -0.143592  -0.127967  0  3.238857  0
N  N60  1  0.53138338  0.30716750  0.15308660  1  -0.450182  0  -0.145214  -0.106171  0  3.300965  0
N  N61  1  0.45652518  0.35810048  0.17955009  1  -0.489091  0  -0.14354  -0.12781  0  3.238526  0
Cl  Cl62  1  0.60430647  0.34332348  0.87391979  1  -0.176916  0  0.003052  -0.045056  0  1.595141  0
Cl  Cl63  1  0.61726689  0.41037865  0.81240263  1  -0.149859  0  0.003462  -0.052732  0  1.603586  0
Cl  Cl64  1  0.29164203  0.33196357  0.46706131  1  -0.176825  0  0.006526  -0.05208  0  1.555624  0
Cl  Cl65  1  0.71871977  0.50986059  0.65690679  1  -0.177558  0  0.008043  -0.04868  0  1.558446  0
Cl  Cl66  1  0.60461015  0.03062938  0.65671381  1  -0.177985  0  0.003026  -0.045083  0  1.59507  0
Cl  Cl67  1  0.61751862  0.90205712  0.58964485  1  -0.150465  0  0.003461  -0.052768  0  1.603216  0
Cl  Cl68  1  0.29184571  0.63506617  0.66801555  1  -0.175928  0  0.006676  -0.051989  0  1.555582  0
Cl  Cl69  1  0.71899021  0.64710284  0.49013752  1  -0.182247  0  0.008045  -0.048709  0  1.558274  0
Cl  Cl70  1  0.60450191  0.12608051  0.96939260  1  -0.176526  0  0.003003  -0.045088  0  1.595254  0
Cl  Cl71  1  0.61744053  0.18758284  0.09795133  1  -0.147928  0  0.003387  -0.052826  0  1.603601  0
Cl  Cl72  1  0.29199203  0.53295662  0.36491975  1  -0.178014  0  0.006678  -0.051941  0  1.555482  0
Cl  Cl73  1  0.71886122  0.34304913  0.35289563  1  -0.181813  0  0.008095  -0.048585  0  1.558107  0
O  O74  1  0.73869200  0.55901606  0.55531677  1  -1.242755  0  -0.228734  -0.587173  0  2.409026  0
O  O75  1  0.73868163  0.49630177  0.44096634  1  -1.244032  0  -0.228726  -0.587201  0  2.408665  0
O  O76  1  0.73855288  0.44465785  0.50366408  1  -1.246412  0  -0.228926  -0.587522  0  2.408978  0
O  O77  1  0.26442301  0.56253572  0.51315288  1  -1.248879  0  -0.229095  -0.589707  0  2.4134  0
O  O78  1  0.26415994  0.48682905  0.54935913  1  -1.248846  0  -0.229278  -0.590035  0  2.413668  0
O  O79  1  0.26422624  0.45061177  0.43744383  1  -1.247475  0  -0.229113  -0.589865  0  2.414225  0
O  O80  1  0.74288898  0.16852557  0.89132073  1  -1.252711  0  -0.232056  -0.594914  0  2.415649  0
O  O81  1  0.74305002  0.22280581  0.83150312  1  -1.243357  0  -0.231985  -0.59494  0  2.413758  0
O  O82  1  0.74294940  0.10870267  0.77723199  1  -1.245455  0  -0.232038  -0.594771  0  2.415003  0
O  O83  1  0.27118432  0.21547055  0.89606729  1  -1.254067  0  -0.234116  -0.591406  0  2.358129  0
O  O84  1  0.27102483  0.10395947  0.81943319  1  -1.256619  0  -0.234274  -0.591741  0  2.357724  0
O  O85  1  0.27125030  0.18059372  0.78456181  1  -1.253812  0  -0.23428  -0.591485  0  2.357559  0
