# generated using pymatgen
data_ZnH4C5(NO2)2
_symmetry_space_group_name_H-M   'P 1'
_cell_length_a   8.26586354
_cell_length_b   8.43046676
_cell_length_c   9.41944564
_cell_angle_alpha   89.99997774
_cell_angle_beta   90.00003887
_cell_angle_gamma   93.77737178
_symmetry_Int_Tables_number   1
_chemical_formula_structural   ZnH4C5(NO2)2
_chemical_formula_sum   'Zn4 H16 C20 N8 O16'
_cell_volume   654.96892129
_cell_formula_units_Z   4
loop_
 _symmetry_equiv_pos_site_id
 _symmetry_equiv_pos_as_xyz
  1  'x, y, z'
loop_
 _atom_site_type_symbol
 _atom_site_label
 _atom_site_symmetry_multiplicity
 _atom_site_fract_x
 _atom_site_fract_y
 _atom_site_fract_z
 _atom_site_occupancy
 _atom_site_hle17_bader_spin_density
 _atom_site_hle17_ddec_charge
 _atom_site_hle17_ddec_spin_density
 _atom_site_hle17_ddec_sum_bond_order
 _atom_site_hle17_magmom
 _atom_site_hse06_10hf_bader_spin_density
 _atom_site_hse06_10hf_ddec_charge
 _atom_site_hse06_10hf_ddec_spin_density
 _atom_site_hse06_10hf_ddec_sum_bond_order
 _atom_site_hse06_10hf_magmom
 _atom_site_hse06_bader_spin_density
 _atom_site_hse06_ddec_charge
 _atom_site_hse06_ddec_spin_density
 _atom_site_hse06_ddec_sum_bond_order
 _atom_site_hse06_magmom
 _atom_site_pbe_bader_spin_density
 _atom_site_pbe_cm5_charge
 _atom_site_pbe_ddec_charge
 _atom_site_pbe_ddec_spin_density
 _atom_site_pbe_ddec_sum_bond_order
 _atom_site_pbe_magmom
Zn  Zn0  1  0.12071901  0.37584897  0.25787396  1  0  1.082945  0  1.758184  0  0  0.907173  0  2.203433  0  0  0.955383  0  2.150692  0  0  0.6856  0.871948  0  2.240581  0
Zn  Zn1  1  0.37928254  0.62415344  0.75787475  1  0  1.082861  0  1.758316  0  0  0.907154  0  2.203506  0  0  0.95536  0  2.150766  0  0  0.685588  0.871931  0  2.24065  0
Zn  Zn2  1  0.87928018  0.62415118  0.74212557  1  0  1.082885  0  1.758326  0  0  0.907158  0  2.203524  0  0  0.955361  0  2.150786  0  0  0.685577  0.871933  0  2.240667  0
Zn  Zn3  1  0.62071921  0.37584910  0.24212477  1  0  1.082944  0  1.758166  0  0  0.907174  0  2.203398  0  0  0.955386  0  2.150657  0  0  0.6856  0.87195  0  2.240543  0
H  H4  1  0.09362820  0.77456319  0.24829688  1  0  0.310691  0  0.923903  0  0  0.291599  0  0.982023  0  0  0.300625  0  0.974788  0  0  0.310315  0.285208  0  0.987226  0
H  H5  1  0.40637449  0.22543804  0.74829677  1  0  0.310737  0  0.923851  0  0  0.291657  0  0.981955  0  0  0.300683  0  0.974719  0  0  0.310355  0.285265  0  0.987164  0
H  H6  1  0.90637447  0.22543460  0.75170264  1  0  0.310738  0  0.923853  0  0  0.29167  0  0.981954  0  0  0.300697  0  0.974718  0  0  0.310348  0.285275  0  0.987167  0
H  H7  1  0.59362598  0.77456330  0.25170275  1  0  0.310716  0  0.923848  0  0  0.291645  0  0.981948  0  0  0.300672  0  0.974711  0  0  0.310341  0.285253  0  0.987156  0
H  H8  1  0.24264196  0.16779090  0.98533085  1  0  0.107644  0  0.968438  0  0  0.112675  0  1.035241  0  0  0.115248  0  1.034246  0  0  0.11463  0.110654  0  1.036367  0
H  H9  1  0.25735976  0.83221142  0.48533104  1  0  0.107619  0  0.968448  0  0  0.112673  0  1.035237  0  0  0.115246  0  1.034245  0  0  0.114618  0.110653  0  1.036364  0
H  H10  1  0.75735601  0.83220924  0.01466973  1  0  0.107629  0  0.968447  0  0  0.112655  0  1.035263  0  0  0.115227  0  1.034269  0  0  0.114617  0.110635  0  1.036389  0
H  H11  1  0.74264313  0.16778994  0.51466742  1  0  0.107631  0  0.968439  0  0  0.112655  0  1.035263  0  0  0.115228  0  1.034269  0  0  0.114606  0.110634  0  1.036389  0
H  H12  1  0.21953870  0.83679595  0.00067406  1  0  0.114307  0  0.982861  0  0  0.120677  0  1.050177  0  0  0.123088  0  1.049545  0  0  0.118334  0.118751  0  1.051098  0
H  H13  1  0.28046274  0.16320775  0.50067389  1  0  0.114317  0  0.982836  0  0  0.120706  0  1.050139  0  0  0.123118  0  1.049505  0  0  0.118316  0.118779  0  1.051065  0
H  H14  1  0.78046298  0.16320540  0.99932547  1  0  0.114266  0  0.982798  0  0  0.120636  0  1.050127  0  0  0.123049  0  1.049491  0  0  0.118288  0.11871  0  1.051051  0
H  H15  1  0.71953780  0.83679478  0.49932669  1  0  0.11431  0  0.982853  0  0  0.12068  0  1.050173  0  0  0.12309  0  1.049538  0  0  0.118312  0.118754  0  1.051094  0
H  H16  1  0.02692261  0.02809378  0.37510488  1  0  0.089919  0  0.96538  0  0  0.097393  0  1.034296  0  0  0.099602  0  1.031602  0  0  0.133116  0.095076  0  1.037676  0
H  H17  1  0.47308017  0.97190739  0.87510561  1  0  0.089892  0  0.965386  0  0  0.097369  0  1.034315  0  0  0.099574  0  1.031619  0  0  0.133112  0.09505  0  1.037698  0
H  H18  1  0.97307991  0.97190163  0.62489571  1  0  0.089921  0  0.96539  0  0  0.0974  0  1.034317  0  0  0.099602  0  1.03162  0  0  0.133118  0.095083  0  1.037694  0
H  H19  1  0.52691917  0.02809513  0.12489498  1  0  0.089897  0  0.965382  0  0  0.097373  0  1.034307  0  0  0.09958  0  1.031612  0  0  0.133116  0.095056  0  1.037687  0
C  C20  1  0.19469933  0.08953117  0.06835545  1  0  -0.008029  0  3.745156  0  0  -0.042128  0  4.017371  0  0  -0.040825  0  4.038458  0  0  -0.009704  -0.042822  0  4.003459  0
C  C21  1  0.30530322  0.91047013  0.56835610  1  0  -0.008023  0  3.745101  0  0  -0.042147  0  4.017312  0  0  -0.040851  0  4.038407  0  0  -0.009705  -0.042845  0  4.003404  0
C  C22  1  0.80530221  0.91046780  0.93164514  1  0  -0.008045  0  3.74522  0  0  -0.04216  0  4.017436  0  0  -0.040859  0  4.038526  0  0  -0.009715  -0.042856  0  4.003525  0
C  C23  1  0.69469853  0.08953241  0.43164343  1  0  -0.008053  0  3.745215  0  0  -0.042157  0  4.017422  0  0  -0.040855  0  4.03851  0  0  -0.009702  -0.042852  0  4.00351  0
C  C24  1  0.18388230  0.92632756  0.07460619  1  0  -0.012686  0  3.680201  0  0  -0.05152  0  3.94559  0  0  -0.05016  0  3.964986  0  0  -0.002779  -0.052385  0  3.933146  0
C  C25  1  0.31612032  0.07367492  0.57460502  1  0  -0.012721  0  3.680075  0  0  -0.051563  0  3.945467  0  0  -0.050202  0  3.964863  0  0  -0.002769  -0.052432  0  3.933031  0
C  C26  1  0.81611923  0.07367141  0.92539545  1  0  -0.012658  0  3.680101  0  0  -0.051472  0  3.945512  0  0  -0.050109  0  3.964904  0  0  -0.002738  -0.052338  0  3.933073  0
C  C27  1  0.68388143  0.92632762  0.42539450  1  0  -0.012704  0  3.680183  0  0  -0.051531  0  3.945586  0  0  -0.050167  0  3.964979  0  0  -0.002754  -0.052395  0  3.933141  0
C  C28  1  0.08379671  0.02280020  0.27189925  1  0  0.221576  0  3.658967  0  0  0.164013  0  3.92292  0  0  0.178634  0  3.935968  0  0  0.142154  0.154588  0  3.914442  0
C  C29  1  0.41620728  0.97720221  0.77189994  1  0  0.221586  0  3.658969  0  0  0.164031  0  3.922932  0  0  0.178658  0  3.935975  0  0  0.142143  0.154609  0  3.91445  0
C  C30  1  0.91620475  0.97719758  0.72810027  1  0  0.221604  0  3.658852  0  0  0.164042  0  3.922811  0  0  0.178672  0  3.93585  0  0  0.142219  0.154619  0  3.914329  0
C  C31  1  0.58379440  0.02279914  0.22810064  1  0  0.221577  0  3.658891  0  0  0.16402  0  3.92285  0  0  0.178644  0  3.935895  0  0  0.142141  0.154596  0  3.914372  0
C  C32  1  0.09104475  0.52281934  0.98152160  1  0  0.545298  0  3.865942  0  0  0.497246  0  4.157963  0  0  0.527724  0  4.151014  0  0  0.2136  0.476533  0  4.161556  0
C  C33  1  0.40895283  0.47717464  0.48151776  1  0  0.545115  0  3.866091  0  0  0.496962  0  4.158168  0  0  0.527433  0  4.151228  0  0  0.213464  0.476254  0  4.161761  0
C  C34  1  0.90895279  0.47717367  0.01848217  1  0  0.545074  0  3.866112  0  0  0.496899  0  4.158232  0  0  0.527365  0  4.151289  0  0  0.213465  0.47619  0  4.161824  0
C  C35  1  0.59104727  0.52282076  0.51847858  1  0  0.545271  0  3.865929  0  0  0.497178  0  4.157977  0  0  0.527652  0  4.15103  0  0  0.213573  0.476464  0  4.16157  0
C  C36  1  0.98554646  0.41485305  0.53029576  1  0  0.564942  0  3.903062  0  0  0.509772  0  4.207921  0  0  0.541104  0  4.198193  0  0  0.208667  0.488172  0  4.214218  0
C  C37  1  0.51445611  0.58514258  0.03029907  1  0  0.565009  0  3.903086  0  0  0.509804  0  4.208006  0  0  0.541154  0  4.198255  0  0  0.208654  0.488199  0  4.2143  0
C  C38  1  0.01445728  0.58514237  0.46970058  1  0  0.565059  0  3.903049  0  0  0.50986  0  4.207947  0  0  0.54121  0  4.198197  0  0  0.208661  0.488255  0  4.214244  0
C  C39  1  0.48554521  0.41485283  0.96970363  1  0  0.564967  0  3.903057  0  0  0.509781  0  4.207948  0  0  0.541117  0  4.198212  0  0  0.208659  0.488182  0  4.214243  0
N  N40  1  0.13305715  0.14851653  0.19280542  1  0  -0.405044  0  3.294671  0  0  -0.322602  0  3.584029  0  0  -0.345021  0  3.599754  0  0  -0.360589  -0.307437  0  3.572824  0
N  N41  1  0.36694550  0.85148472  0.69280612  1  0  -0.40502  0  3.294718  0  0  -0.322584  0  3.584072  0  0  -0.345003  0  3.599801  0  0  -0.360578  -0.30742  0  3.572865  0
N  N42  1  0.86694318  0.85148243  0.80719411  1  0  -0.405077  0  3.294772  0  0  -0.322598  0  3.584083  0  0  -0.345017  0  3.599809  0  0  -0.360635  -0.307434  0  3.572876  0
N  N43  1  0.63305618  0.14851663  0.30719340  1  0  -0.405005  0  3.294674  0  0  -0.32255  0  3.584018  0  0  -0.34497  0  3.599744  0  0  -0.36057  -0.307387  0  3.572814  0
N  N44  1  0.11344054  0.88711054  0.20371675  1  0  -0.27499  0  3.439612  0  0  -0.206586  0  3.674126  0  0  -0.222564  0  3.687891  0  0  -0.377459  -0.195919  0  3.664749  0
N  N45  1  0.38656226  0.11289308  0.70371667  1  0  -0.27502  0  3.439574  0  0  -0.206658  0  3.674124  0  0  -0.222635  0  3.687885  0  0  -0.377514  -0.195988  0  3.664739  0
N  N46  1  0.88656107  0.11288962  0.79628384  1  0  -0.275014  0  3.439426  0  0  -0.206692  0  3.674006  0  0  -0.222672  0  3.687766  0  0  -0.377519  -0.196023  0  3.664627  0
N  N47  1  0.61343828  0.88710945  0.29628392  1  0  -0.274977  0  3.43951  0  0  -0.20662  0  3.674047  0  0  -0.222598  0  3.687809  0  0  -0.377475  -0.195949  0  3.664662  0
O  O48  1  0.19581600  0.49197099  0.07373998  1  0  -0.563761  0  2.116898  0  0  -0.49416  0  2.368976  0  0  -0.521648  0  2.359688  0  0  -0.28858  -0.474391  0  2.374538  0
O  O49  1  0.30417702  0.50803262  0.57374502  1  0  -0.563677  0  2.116669  0  0  -0.494052  0  2.368759  0  0  -0.521545  0  2.359478  0  0  -0.288531  -0.474261  0  2.374265  0
O  O50  1  0.80417600  0.50803030  0.92625424  1  0  -0.563694  0  2.116724  0  0  -0.494025  0  2.368793  0  0  -0.521515  0  2.359515  0  0  -0.288527  -0.47424  0  2.374316  0
O  O51  1  0.69581875  0.49197107  0.42625981  1  0  -0.563771  0  2.116828  0  0  -0.494167  0  2.368927  0  0  -0.521655  0  2.359639  0  0  -0.288583  -0.474395  0  2.37448  0
O  O52  1  0.12054031  0.58880437  0.86220779  1  0  -0.593481  0  2.087114  0  0  -0.531979  0  2.357503  0  0  -0.557807  0  2.345221  0  0  -0.286681  -0.513051  0  2.364887  0
O  O53  1  0.37945655  0.41119916  0.36221456  1  0  -0.59356  0  2.087599  0  0  -0.531854  0  2.357868  0  0  -0.557684  0  2.345609  0  0  -0.286631  -0.512935  0  2.365255  0
O  O54  1  0.87945895  0.41119697  0.13778643  1  0  -0.593524  0  2.087546  0  0  -0.531824  0  2.357816  0  0  -0.557675  0  2.345611  0  0  -0.286636  -0.512906  0  2.365208  0
O  O55  1  0.62054399  0.58880337  0.63779027  1  0  -0.593482  0  2.087229  0  0  -0.531918  0  2.35759  0  0  -0.557756  0  2.345336  0  0  -0.286649  -0.512994  0  2.364979  0
O  O56  1  0.02038855  0.29977575  0.45316356  1  0  -0.587161  0  2.097994  0  0  -0.528067  0  2.364867  0  0  -0.552959  0  2.353549  0  0  -0.300567  -0.510145  0  2.372444  0
O  O57  1  0.47960967  0.70022894  0.95315908  1  0  -0.587233  0  2.097933  0  0  -0.528095  0  2.364724  0  0  -0.552986  0  2.353387  0  0  -0.300596  -0.51019  0  2.372354  0
O  O58  1  0.97960965  0.70022795  0.54684127  1  0  -0.587268  0  2.097886  0  0  -0.52813  0  2.364671  0  0  -0.55302  0  2.353335  0  0  -0.300605  -0.510228  0  2.372306  0
O  O59  1  0.52038981  0.29977596  0.04683619  1  0  -0.587173  0  2.097971  0  0  -0.528077  0  2.364846  0  0  -0.552972  0  2.35353  0  0  -0.300573  -0.510155  0  2.372423  0
O  O60  1  0.92653740  0.40234556  0.65492728  1  0  -0.592035  0  2.125955  0  0  -0.523455  0  2.371394  0  0  -0.550361  0  2.361143  0  0  -0.300002  -0.504725  0  2.378454  0
O  O61  1  0.57345815  0.59765236  0.15492213  1  0  -0.591995  0  2.126095  0  0  -0.523442  0  2.371602  0  0  -0.550359  0  2.361349  0  0  -0.299968  -0.504709  0  2.378662  0
O  O62  1  0.07345809  0.59765338  0.34507755  1  0  -0.592019  0  2.126095  0  0  -0.523461  0  2.371597  0  0  -0.550374  0  2.361343  0  0  -0.299971  -0.504727  0  2.378657  0
O  O63  1  0.42653741  0.40234777  0.84507208  1  0  -0.592047  0  2.126006  0  0  -0.523453  0  2.371448  0  0  -0.550364  0  2.361198  0  0  -0.300006  -0.504727  0  2.378508  0
