# generated using pymatgen
data_AgH7C9N3O4
_symmetry_space_group_name_H-M   'P 1'
_cell_length_a   6.05028041
_cell_length_b   7.04133928
_cell_length_c   12.73055088
_cell_angle_alpha   91.56291883
_cell_angle_beta   96.57292216
_cell_angle_gamma   101.45156670
_symmetry_Int_Tables_number   1
_chemical_formula_structural   AgH7C9N3O4
_chemical_formula_sum   'Ag2 H14 C18 N6 O8'
_cell_volume   527.36065600
_cell_formula_units_Z   2
loop_
 _symmetry_equiv_pos_site_id
 _symmetry_equiv_pos_as_xyz
  1  'x, y, z'
loop_
 _atom_site_type_symbol
 _atom_site_label
 _atom_site_symmetry_multiplicity
 _atom_site_fract_x
 _atom_site_fract_y
 _atom_site_fract_z
 _atom_site_occupancy
 _atom_site_hle17_bader_spin_density
 _atom_site_hle17_ddec_charge
 _atom_site_hle17_ddec_spin_density
 _atom_site_hle17_ddec_sum_bond_order
 _atom_site_hle17_magmom
 _atom_site_hse06_10hf_bader_spin_density
 _atom_site_hse06_10hf_ddec_charge
 _atom_site_hse06_10hf_ddec_spin_density
 _atom_site_hse06_10hf_ddec_sum_bond_order
 _atom_site_hse06_10hf_magmom
 _atom_site_hse06_bader_spin_density
 _atom_site_hse06_ddec_charge
 _atom_site_hse06_ddec_spin_density
 _atom_site_hse06_ddec_sum_bond_order
 _atom_site_hse06_magmom
 _atom_site_pbe_bader_spin_density
 _atom_site_pbe_cm5_charge
 _atom_site_pbe_ddec_charge
 _atom_site_pbe_ddec_spin_density
 _atom_site_pbe_ddec_sum_bond_order
 _atom_site_pbe_magmom
Ag  Ag0  1  0.23449561  0.06958353  0.54941892  1  0  0.496989  0  1.556853  0  0  0.351418  0  2.028508  0  0  0.383496  0  1.975046  0  0  0.474744  0.330258  0  2.065126  0
Ag  Ag1  1  0.76548474  0.93042463  0.45057699  1  0  0.496848  0  1.557087  0  0  0.351356  0  2.028615  0  0  0.383432  0  1.975155  0  0  0.474735  0.330195  0  2.065232  0
H  H2  1  0.19336233  0.36934085  0.37546760  1  0  0.120267  0  0.976839  0  0  0.124257  0  1.04524  0  0  0.127534  0  1.043233  0  0  0.119264  0.121882  0  1.046737  0
H  H3  1  0.80662525  0.63066296  0.62452774  1  0  0.120391  0  0.976658  0  0  0.124315  0  1.045142  0  0  0.127595  0  1.043133  0  0  0.119293  0.121934  0  1.046651  0
H  H4  1  0.32191054  0.41582082  0.70461937  1  0  0.114962  0  0.965685  0  0  0.119877  0  1.034095  0  0  0.123465  0  1.032013  0  0  0.117147  0.117218  0  1.035868  0
H  H5  1  0.67806718  0.58419035  0.29537494  1  0  0.115043  0  0.965614  0  0  0.119823  0  1.034157  0  0  0.12341  0  1.032075  0  0  0.117099  0.117167  0  1.035931  0
H  H6  1  0.34518799  0.77939140  0.70126418  1  0  0.102256  0  0.938054  0  0  0.112359  0  0.996581  0  0  0.114478  0  0.995167  0  0  0.123181  0.110652  0  0.997926  0
H  H7  1  0.65479673  0.22062118  0.29873052  1  0  0.102318  0  0.937938  0  0  0.11243  0  0.996452  0  0  0.114548  0  0.995036  0  0  0.123171  0.110729  0  0.997791  0
H  H8  1  0.26765759  0.25757741  0.92266269  1  0  0.119676  0  0.939468  0  0  0.12511  0  1.00553  0  0  0.129855  0  1.001765  0  0  0.109522  0.121691  0  1.008318  0
H  H9  1  0.73237031  0.74242724  0.07734254  1  0  0.119714  0  0.93951  0  0  0.125104  0  1.005636  0  0  0.129847  0  1.001873  0  0  0.109517  0.121716  0  1.008395  0
H  H10  1  0.22934058  0.89679783  0.34759455  1  0  0.333477  0  0.9266  0  0  0.312379  0  0.999406  0  0  0.321069  0  0.991083  0  0  0.293291  0.305991  0  1.00565  0
H  H11  1  0.77065304  0.10321039  0.65239966  1  0  0.333515  0  0.926579  0  0  0.312401  0  0.999402  0  0  0.321092  0  0.991078  0  0  0.293322  0.306012  0  1.00565  0
H  H12  1  0.21781761  0.67057576  0.28387149  1  0  0.344946  0  0.885437  0  0  0.330803  0  0.938097  0  0  0.337521  0  0.933721  0  0  0.311  0.326021  0  0.941264  0
H  H13  1  0.78218467  0.32943392  0.71612241  1  0  0.344895  0  0.885528  0  0  0.330797  0  0.938112  0  0  0.337516  0  0.933734  0  0  0.310976  0.326011  0  0.941282  0
H  H14  1  0.04443558  0.60200140  0.85277594  1  0  0.409217  0  0.796956  0  0  0.391128  0  0.854627  0  0  0.399229  0  0.846366  0  0  0.342804  0.385182  0  0.860822  0
H  H15  1  0.95560003  0.39800748  0.14723138  1  0  0.40922  0  0.796665  0  0  0.391114  0  0.854385  0  0  0.399219  0  0.846113  0  0  0.342738  0.385167  0  0.860589  0
C  C16  1  0.25238352  0.66792168  0.44477834  1  0  0.424194  0  3.875612  0  0  0.393909  0  4.133453  0  0  0.411816  0  4.148498  0  0  0.226445  0.381764  0  4.122952  0
C  C17  1  0.74761446  0.33209105  0.55521309  1  0  0.424377  0  3.875202  0  0  0.394081  0  4.132896  0  0  0.411985  0  4.147944  0  0  0.226491  0.381936  0  4.122397  0
C  C18  1  0.23097794  0.46279285  0.44791045  1  0  -0.033108  0  3.61844  0  0  -0.062029  0  3.861809  0  0  -0.062178  0  3.879457  0  0  0.041937  -0.062395  0  3.850365  0
C  C19  1  0.76897738  0.53720809  0.55208556  1  0  -0.033368  0  3.618472  0  0  -0.062188  0  3.861842  0  0  -0.062346  0  3.879498  0  0  0.041888  -0.062557  0  3.850403  0
C  C20  1  0.29837992  0.48919340  0.63137146  1  0  -0.013099  0  3.706981  0  0  -0.050861  0  3.973256  0  0  -0.05402  0  3.995401  0  0  0.006784  -0.049201  0  3.958821  0
C  C21  1  0.70162972  0.51081911  0.36862368  1  0  -0.013057  0  3.70687  0  0  -0.05069  0  3.973213  0  0  -0.053844  0  3.995355  0  0  0.007004  -0.049032  0  3.958779  0
C  C22  1  0.31110643  0.68673186  0.62893392  1  0  0.111523  0  3.698921  0  0  0.078784  0  3.952074  0  0  0.085585  0  3.970937  0  0  0.043383  0.073933  0  3.939956  0
C  C23  1  0.68883700  0.31327502  0.37106012  1  0  0.111395  0  3.698842  0  0  0.078659  0  3.951866  0  0  0.085456  0  3.970732  0  0  0.043333  0.07381  0  3.939747  0
C  C24  1  0.15103922  0.14477721  0.95731309  1  0  -0.067409  0  3.691778  0  0  -0.101264  0  3.942527  0  0  -0.101074  0  3.960068  0  0  -0.074546  -0.101312  0  3.930709  0
C  C25  1  0.84897749  0.85519589  0.04268428  1  0  -0.067673  0  3.691936  0  0  -0.101496  0  3.942762  0  0  -0.10131  0  3.960295  0  0  -0.074682  -0.10157  0  3.930937  0
C  C26  1  0.02960775  0.98678814  0.89189671  1  0  -0.05101  0  3.714603  0  0  -0.039321  0  3.951607  0  0  -0.043064  0  3.971385  0  0  -0.01179  -0.037023  0  3.938349  0
C  C27  1  0.97039146  0.01318756  0.10810695  1  0  -0.050732  0  3.714452  0  0  -0.038992  0  3.951346  0  0  -0.042725  0  3.971112  0  0  -0.011632  -0.036688  0  3.93809  0
C  C28  1  0.87867705  0.84030825  0.93571034  1  0  -0.094009  0  3.77112  0  0  -0.081119  0  4.010413  0  0  -0.0861  0  4.030956  0  0  -0.0118  -0.077765  0  3.996647  0
C  C29  1  0.12134040  0.15966763  0.06428952  1  0  -0.094349  0  3.771136  0  0  -0.081354  0  4.010375  0  0  -0.086342  0  4.030921  0  0  -0.011946  -0.077997  0  3.996592  0
C  C30  1  0.04884084  0.98727487  0.77430571  1  0  0.608858  0  3.986921  0  0  0.561997  0  4.283149  0  0  0.594301  0  4.278091  0  0  0.185391  0.540178  0  4.285469  0
C  C31  1  0.95114344  0.01272089  0.22570414  1  0  0.608683  0  3.985826  0  0  0.561795  0  4.282186  0  0  0.594106  0  4.277124  0  0  0.185265  0.539965  0  4.284504  0
C  C32  1  0.75085281  0.66047714  0.87357506  1  0  0.678308  0  3.762681  0  0  0.62413  0  4.074984  0  0  0.657323  0  4.063549  0  0  0.243462  0.601126  0  4.082659  0
C  C33  1  0.24915575  0.33951522  0.12644296  1  0  0.678399  0  3.761832  0  0  0.624063  0  4.074341  0  0  0.657261  0  4.062907  0  0  0.243479  0.601059  0  4.082007  0
N  N34  1  0.24536467  0.75425245  0.35246424  1  0  -0.652354  0  3.139064  0  0  -0.610246  0  3.373962  0  0  -0.63364  0  3.373214  0  0  -0.56676  -0.594035  0  3.374314  0
N  N35  1  0.75461997  0.24575270  0.64753335  1  0  -0.65241  0  3.138813  0  0  -0.610373  0  3.373728  0  0  -0.63377  0  3.372974  0  0  -0.566749  -0.594162  0  3.374082  0
N  N36  1  0.28314515  0.77614544  0.53721225  1  0  -0.399704  0  3.318733  0  0  -0.310832  0  3.602238  0  0  -0.333002  0  3.614329  0  0  -0.361416  -0.296072  0  3.594273  0
N  N37  1  0.71683781  0.22385981  0.46278369  1  0  -0.399832  0  3.318894  0  0  -0.31086  0  3.6023  0  0  -0.333021  0  3.614378  0  0  -0.361462  -0.296099  0  3.594331  0
N  N38  1  0.25209387  0.37821770  0.53920434  1  0  -0.223982  0  3.410954  0  0  -0.133887  0  3.670853  0  0  -0.146635  0  3.689789  0  0  -0.340841  -0.125125  0  3.658077  0
N  N39  1  0.74788602  0.62178171  0.46079206  1  0  -0.223844  0  3.410884  0  0  -0.133881  0  3.67087  0  0  -0.146624  0  3.6898  0  0  -0.340881  -0.12512  0  3.658102  0
O  O40  1  0.22773991  0.08735621  0.74586463  1  0  -0.609589  0  1.972742  0  0  -0.552537  0  2.214102  0  0  -0.57818  0  2.203891  0  0  -0.335508  -0.534387  0  2.220326  0
O  O41  1  0.77223371  0.91259621  0.25414017  1  0  -0.609385  0  1.972549  0  0  -0.552311  0  2.213914  0  0  -0.577958  0  2.203711  0  0  -0.335285  -0.53415  0  2.22014  0
O  O42  1  0.87787564  0.89166763  0.71371116  1  0  -0.661842  0  1.973843  0  0  -0.612649  0  2.213294  0  0  -0.638126  0  2.204124  0  0  -0.334495  -0.593998  0  2.218376  0
O  O43  1  0.12218001  0.10836077  0.28631114  1  0  -0.661922  0  1.97276  0  0  -0.612838  0  2.212362  0  0  -0.638318  0  2.203181  0  0  -0.334568  -0.594225  0  2.217555  0
O  O44  1  0.88324355  0.54106100  0.83707548  1  0  -0.553276  0  2.03288  0  0  -0.502031  0  2.234166  0  0  -0.521303  0  2.219797  0  0  -0.329441  -0.488382  0  2.244056  0
O  O45  1  0.11680237  0.45894942  0.16293004  1  0  -0.553122  0  2.032833  0  0  -0.501794  0  2.234121  0  0  -0.521067  0  2.219754  0  0  -0.329182  -0.48814  0  2.244007  0
O  O46  1  0.54526673  0.60586313  0.86300449  1  0  -0.505116  0  1.890723  0  0  -0.469218  0  2.097146  0  0  -0.488193  0  2.087935  0  0  -0.271782  -0.456028  0  2.103428  0
O  O47  1  0.45479027  0.39411891  0.13698731  1  0  -0.505279  0  1.889683  0  0  -0.469321  0  2.096124  0  0  -0.4883  0  2.086906  0  0  -0.271899  -0.456132  0  2.102421  0
