# generated using pymatgen
data_Al2H4C19NO12
_symmetry_space_group_name_H-M   'P 1'
_cell_length_a   6.69640698
_cell_length_b   19.41516810
_cell_length_c   21.47689148
_cell_angle_alpha   86.69054494
_cell_angle_beta   88.55134069
_cell_angle_gamma   88.99577065
_symmetry_Int_Tables_number   1
_chemical_formula_structural   Al2H4C19NO12
_chemical_formula_sum   'Al4 H8 C38 N2 O24'
_cell_volume   2786.34202545
_cell_formula_units_Z   2
loop_
 _symmetry_equiv_pos_site_id
 _symmetry_equiv_pos_as_xyz
  1  'x, y, z'
loop_
 _atom_site_type_symbol
 _atom_site_label
 _atom_site_symmetry_multiplicity
 _atom_site_fract_x
 _atom_site_fract_y
 _atom_site_fract_z
 _atom_site_occupancy
 _atom_site_pbe_bader_charge
 _atom_site_pbe_bader_spin_density
 _atom_site_pbe_cm5_charge
 _atom_site_pbe_ddec_charge
 _atom_site_pbe_ddec_spin_density
 _atom_site_pbe_ddec_sum_bond_order
 _atom_site_pbe_magmom
Al  Al0  1  0.76603439  0.26510352  0.26193708  1  2.503473  0  0.408825  1.651286  0  2.571884  0
Al  Al1  1  0.23397113  0.73489365  0.73805448  1  2.503264  0  0.408806  1.651087  0  2.572109  0
Al  Al2  1  0.26564440  0.26491920  0.26247983  1  2.503565  0  0.409262  1.648503  0  2.575448  0
Al  Al3  1  0.73435324  0.73508672  0.73751834  1  2.503517  0  0.40917  1.648438  0  2.575748  0
H  H4  1  0.16159848  0.10262373  0.95117083  1  0.142416  0  0.125885  0.139475  0  0.94695  0
H  H5  1  0.83840527  0.89737962  0.04882417  1  0.142542  0  0.125871  0.139506  0  0.946992  0
H  H6  1  0.78933021  0.04769480  0.91511054  1  0.121385  0  0.121923  0.136174  0  0.962575  0
H  H7  1  0.21067508  0.95230857  0.08487839  1  0.121608  0  0.121863  0.136077  0  0.962726  0
H  H8  1  0.52122876  0.17560097  0.25486717  1  0.622496  0  0.364339  0.447592  0  0.826044  0
H  H9  1  0.47875108  0.82439976  0.74514023  1  0.622522  0  0.364314  0.447562  0  0.825961  0
H  H10  1  0.01108141  0.35538801  0.26582363  1  0.623477  0  0.363937  0.445999  0  0.828793  0
H  H11  1  0.98890285  0.64461480  0.73418131  1  0.623548  0  0.363873  0.445941  0  0.828966  0
C  C12  1  0.51777396  0.34967749  0.17491334  1  1.690259  0  0.276993  0.702277  0  4.180974  0
C  C13  1  0.48222444  0.65031249  0.82507164  1  1.690156  0  0.276829  0.702232  0  4.180732  0
C  C14  1  0.50570535  0.34524375  0.34419779  1  1.691303  0  0.281844  0.70938  0  4.169221  0
C  C15  1  0.49431686  0.65474512  0.65580290  1  1.692689  0  0.281885  0.709603  0  4.169271  0
C  C16  1  0.01303612  0.17776865  0.34728243  1  1.707782  0  0.276904  0.70045  0  4.182372  0
C  C17  1  0.98696025  0.82223159  0.65271650  1  1.707939  0  0.276936  0.700537  0  4.182145  0
C  C18  1  0.02715841  0.18486498  0.18009315  1  1.657659  0  0.281102  0.720032  0  4.156758  0
C  C19  1  0.97284530  0.81513941  0.81989994  1  1.657818  0  0.281169  0.71989  0  4.156939  0
C  C20  1  0.88403381  0.02729657  0.95263295  1  0.010104  0  -0.057237  -0.102909  0  3.595843  0
C  C21  1  0.11595938  0.97270885  0.04736295  1  0.010026  0  -0.057223  -0.102836  0  3.595975  0
C  C22  1  0.08699581  0.05730631  0.97237808  1  -0.01119  0  -0.051148  -0.090954  0  3.586155  0
C  C23  1  0.91298988  0.94270015  0.02761643  1  -0.011576  0  -0.051067  -0.090992  0  3.586009  0
C  C24  1  0.03176251  0.13822603  0.13023964  1  0.157428  0  -0.021841  -0.160732  0  3.916571  0
C  C25  1  0.96825449  0.86178196  0.86975458  1  0.158486  0  -0.021761  -0.160578  0  3.916721  0
C  C26  1  0.81770974  0.01622248  0.02202607  1  0.302891  0  0.094793  0.043684  0  3.645651  0
C  C27  1  0.18228192  0.98378397  0.97796933  1  0.303228  0  0.094779  0.043478  0  3.646081  0
C  C28  1  0.02146790  0.04817692  0.04379528  1  0.108531  0  0.027462  0.116761  0  3.763784  0
C  C29  1  0.97852677  0.95182900  0.95620105  1  0.108681  0  0.027353  0.116761  0  3.763528  0
C  C30  1  0.03297052  0.09708465  0.08957797  1  -0.357861  0  -0.021027  -0.027344  0  4.058463  0
C  C31  1  0.96702571  0.90291973  0.91041750  1  -0.358625  0  -0.021091  -0.027461  0  4.058476  0
C  C32  1  0.98944485  0.87544569  0.60311896  1  0.198635  0  0.003265  -0.131682  0  3.821057  0
C  C33  1  0.01054977  0.12456022  0.39688250  1  0.198197  0  0.003275  -0.131856  0  3.820799  0
C  C34  1  0.99324297  0.92315388  0.56313109  1  -0.260647  0  -0.005279  0.030327  0  4.253426  0
C  C35  1  0.00675195  0.07684533  0.43686789  1  -0.259517  0  -0.00536  0.03054  0  4.253275  0
C  C36  1  0.99778601  0.97565331  0.51975973  1  0.049236  0  0.00335  0.000191  0  4.182899  0
C  C37  1  0.00223749  0.02434283  0.48023035  1  -0.147244  0  0.003605  0.000108  0  4.183113  0
C  C38  1  0.51671536  0.39605056  0.12006914  1  0.109535  0  0.001936  -0.133533  0  3.819419  0
C  C39  1  0.48328998  0.60391778  0.87990707  1  0.110275  0  0.00222  -0.133192  0  3.81932  0
C  C40  1  0.51108962  0.43591677  0.07368220  1  -0.157499  0  -0.005762  0.03082  0  4.252069  0
C  C41  1  0.48892516  0.56404233  0.92628229  1  -0.15599  0  -0.006252  0.030109  0  4.252162  0
C  C42  1  0.50391519  0.47970011  0.02312597  1  -0.14587  0  0.002265  -0.001547  0  4.186547  0
C  C43  1  0.49612377  0.52025332  0.97683350  1  0.055858  0  0.002712  -0.000785  0  4.186221  0
C  C44  1  0.50151595  0.39235577  0.39359272  1  0.211559  0  0.002566  -0.135577  0  3.824925  0
C  C45  1  0.49856327  0.60762528  0.60641680  1  0.212141  0  0.002267  -0.136119  0  3.824089  0
C  C46  1  0.50090666  0.43370752  0.43467433  1  -0.290201  0  -0.0048  0.030907  0  4.25432  0
C  C47  1  0.49931933  0.56626361  0.56533837  1  -0.291564  0  -0.004509  0.031202  0  4.253238  0
C  C48  1  0.50031538  0.47905548  0.47945563  1  -0.115404  0  0.00535  0.002669  0  4.180228  0
C  C49  1  0.49994513  0.52091359  0.52054761  1  0.091133  0  0.005373  0.002587  0  4.179893  0
N  N50  1  0.37326545  0.96365648  0.94956189  1  0.367943  0  0.054354  0.508241  0  4.239281  0
N  N51  1  0.62673207  0.03635149  0.05043991  1  0.368389  0  0.05424  0.508252  0  4.23914  0
O  O52  1  0.33746944  0.32686472  0.32503680  1  -1.226572  0  -0.223227  -0.576256  0  2.277863  0
O  O53  1  0.66253132  0.67313758  0.67496200  1  -1.226718  0  -0.223214  -0.57616  0  2.277862  0
O  O54  1  0.68811580  0.33177395  0.19600259  1  -1.22921  0  -0.225069  -0.577234  0  2.279085  0
O  O55  1  0.31187643  0.66822067  0.80398314  1  -1.228778  0  -0.224945  -0.577079  0  2.278901  0
O  O56  1  0.85437753  0.20278450  0.20004538  1  -1.2227  0  -0.225186  -0.583428  0  2.282509  0
O  O57  1  0.14561724  0.79722043  0.79994262  1  -1.222722  0  -0.225292  -0.583369  0  2.282503  0
O  O58  1  0.67811125  0.32739814  0.32391548  1  -1.223677  0  -0.222447  -0.576364  0  2.284264  0
O  O59  1  0.32191112  0.67258870  0.67607740  1  -1.224254  0  -0.222485  -0.576405  0  2.28451  0
O  O60  1  0.84344054  0.19822267  0.32731926  1  -1.222756  0  -0.223576  -0.574753  0  2.284515  0
O  O61  1  0.15656070  0.80176987  0.67267023  1  -1.222682  0  -0.223555  -0.574753  0  2.284436  0
O  O62  1  0.34697648  0.33193159  0.19713837  1  -1.230241  0  -0.225493  -0.577647  0  2.286576  0
O  O63  1  0.65302432  0.66807178  0.80285106  1  -1.230359  0  -0.225377  -0.57776  0  2.286769  0
O  O64  1  0.51802027  0.22428425  0.26263758  1  -1.419033  0  -0.444694  -1.000866  0  2.193724  0
O  O65  1  0.48197448  0.77572015  0.73735603  1  -1.419013  0  -0.444624  -1.000745  0  2.193525  0
O  O66  1  0.18441145  0.19788478  0.32751249  1  -1.2283  0  -0.224493  -0.575748  0  2.28495  0
O  O67  1  0.81558762  0.80212111  0.67249219  1  -1.228464  0  -0.224505  -0.575797  0  2.284949  0
O  O68  1  0.19470112  0.20271294  0.20007093  1  -1.230065  0  -0.22376  -0.578903  0  2.280033  0
O  O69  1  0.80529813  0.79728989  0.79992785  1  -1.230119  0  -0.223756  -0.578868  0  2.280109  0
O  O70  1  0.01388487  0.30602453  0.26135096  1  -1.419966  0  -0.445142  -1.000075  0  2.197477  0
O  O71  1  0.98611136  0.69397986  0.73864404  1  -1.419927  0  -0.445047  -0.999975  0  2.197636  0
O  O72  1  0.48116422  0.92189339  0.97995527  1  -0.46185  0  -0.130641  -0.334345  0  1.904844  0
O  O73  1  0.41076137  0.98819043  0.89612012  1  -0.434621  0  -0.125716  -0.324787  0  1.871053  0
O  O74  1  0.51881698  0.07811149  0.02004819  1  -0.461947  0  -0.130659  -0.33445  0  1.904944  0
O  O75  1  0.58926876  0.01182266  0.10388633  1  -0.434531  0  -0.125637  -0.324807  0  1.870959  0
