# generated using pymatgen
data_Cu2H8C9N4O7
_symmetry_space_group_name_H-M   'P 1'
_cell_length_a   6.62335761
_cell_length_b   10.29928568
_cell_length_c   12.14988106
_cell_angle_alpha   109.69948825
_cell_angle_beta   89.40028134
_cell_angle_gamma   90.95579091
_symmetry_Int_Tables_number   1
_chemical_formula_structural   Cu2H8C9N4O7
_chemical_formula_sum   'Cu4 H16 C18 N8 O14'
_cell_volume   780.18802672
_cell_formula_units_Z   2
loop_
 _symmetry_equiv_pos_site_id
 _symmetry_equiv_pos_as_xyz
  1  'x, y, z'
loop_
 _atom_site_type_symbol
 _atom_site_label
 _atom_site_symmetry_multiplicity
 _atom_site_fract_x
 _atom_site_fract_y
 _atom_site_fract_z
 _atom_site_occupancy
 _atom_site_pbe_bader_charge
 _atom_site_pbe_bader_spin_density
 _atom_site_pbe_cm5_charge
 _atom_site_pbe_ddec_charge
 _atom_site_pbe_ddec_spin_density
 _atom_site_pbe_ddec_sum_bond_order
 _atom_site_pbe_magmom
Cu  Cu0  1  0.24743397  0.85889161  0.23934022  1  1.118337  0.576789  0.714507  0.846105  0.704908  2.196588  0.574
Cu  Cu1  1  0.74682208  0.14107875  0.76070642  1  1.121281  -0.578675  0.714323  0.845369  -0.708371  2.196227  -0.576
Cu  Cu2  1  0.00063900  0.99931698  0.49944509  1  1.085262  0.343633  0.768018  0.805439  0.430518  2.351683  0.342
Cu  Cu3  1  0.50062372  0.00060560  0.50056175  1  1.065979  -0.335887  0.767646  0.785403  -0.422835  2.317465  -0.335
H  H4  1  0.25210414  0.41530150  0.28266832  1  0.076455  0.000262  0.10912  0.115491  0.000218  1.006564  0.0
H  H5  1  0.74781182  0.58470697  0.71733130  1  0.076138  -0.000255  0.109079  0.115561  -0.000214  1.006611  0.0
H  H6  1  0.25388180  0.04955250  0.97907964  1  0.087283  0.000217  0.115872  0.127201  0.000182  0.983383  0.0
H  H7  1  0.74608556  0.95046135  0.02091968  1  0.087084  -0.000226  0.115782  0.127065  -0.000185  0.98364  0.0
H  H8  1  0.24638244  0.45183024  0.94002028  1  0.110531  0.000459  0.113944  0.122766  0.000393  0.983886  0.0
H  H9  1  0.75364534  0.54817862  0.05996925  1  0.11115  -0.00045  0.113782  0.12267  -0.000388  0.984064  0.0
H  H10  1  0.26003949  0.07941633  0.38261358  1  0.641068  -0.000595  0.273091  0.346461  6.8e-05  1.023991  -0.001
H  H11  1  0.74304495  0.92046542  0.61729088  1  0.650237  0.000695  0.273108  0.346331  1e-06  1.02371  0.001
H  H12  1  0.92584488  0.29836535  0.57984967  1  0.632767  -3.4e-05  0.290567  0.388833  -4.4e-05  0.935628  0.0
H  H13  1  0.43090214  0.69063127  0.40076388  1  0.616943  -1.4e-05  0.284748  0.38672  2e-05  0.944552  0.0
H  H14  1  0.07428345  0.70143151  0.42007779  1  0.632266  -2.1e-05  0.291119  0.389186  1.4e-05  0.935207  0.0
H  H15  1  0.56933435  0.30954019  0.59924933  1  0.656487  3.1e-05  0.284759  0.386637  1.4e-05  0.944876  0.0
H  H16  1  0.06687549  0.26998322  0.46890258  1  0.62792  1.1e-05  0.296447  0.398  1.6e-05  0.914198  0.0
H  H17  1  0.51029043  0.71647557  0.52802398  1  0.626386  2e-06  0.300383  0.390263  7e-06  0.916801  0.0
H  H18  1  0.93310455  0.73000556  0.53099842  1  0.627687  -3.1e-05  0.296919  0.398473  -2.9e-05  0.91331  0.0
H  H19  1  0.48980387  0.28342798  0.47197417  1  0.627016  -2.5e-05  0.300752  0.390865  -1.5e-05  0.916029  0.0
C  C20  1  0.24721506  0.60105113  0.17006342  1  1.499137  -0.002367  0.199448  0.553788  -0.00072  4.197058  -0.004
C  C21  1  0.75320279  0.39897662  0.82989562  1  1.500899  0.002346  0.200024  0.554477  0.000703  4.196538  0.004
C  C22  1  0.24883269  0.44848021  0.11630244  1  -0.050134  0.002973  -0.016216  -0.03202  0.002097  3.990418  0.002
C  C23  1  0.75157857  0.55155893  0.88373137  1  -0.05063  -0.003133  -0.016056  -0.031981  -0.002209  3.989951  -0.002
C  C24  1  0.25155444  0.36683769  0.18796036  1  0.050184  0.001448  -0.065358  -0.089073  0.001062  3.905765  0.001
C  C25  1  0.74850806  0.63317974  0.81204131  1  0.050404  -0.001146  -0.065779  -0.089608  -0.000868  3.905884  -0.001
C  C26  1  0.25361331  0.22331145  0.13826546  1  -0.033459  0.006582  -0.011746  -0.025383  0.004392  3.967867  0.005
C  C27  1  0.74642645  0.77670604  0.86174700  1  -0.033296  -0.006563  -0.011848  -0.025362  -0.00438  3.968425  -0.005
C  C28  1  0.25282140  0.16168714  0.01652856  1  0.054929  -0.000507  -0.057713  -0.088568  -0.000286  3.871683  0.0
C  C29  1  0.74722580  0.83832638  0.98349019  1  0.055141  0.000515  -0.057844  -0.088611  0.000296  3.871785  0.0
C  C30  1  0.25016055  0.24314164  0.94494612  1  0.00842  0.000689  0.003088  0.02841  0.000433  4.006563  0.0
C  C31  1  0.74967248  0.75692183  0.05511665  1  0.007289  -0.000731  0.002878  0.028007  -0.000459  4.006664  -0.001
C  C32  1  0.24810864  0.38671836  0.99444916  1  0.017467  0.000248  -0.060677  -0.092015  0.000293  3.890694  0.0
C  C33  1  0.75209607  0.61334232  0.00558215  1  0.017668  -1.1e-05  -0.060923  -0.092319  -0.00015  3.890992  0.0
C  C34  1  0.25553973  0.13326979  0.21315234  1  1.529128  -0.00102  0.211114  0.579337  -0.000118  4.18356  -0.002
C  C35  1  0.74437308  0.86674937  0.78687493  1  1.528981  0.000992  0.210725  0.57898  9.5e-05  4.184384  0.002
C  C36  1  0.24989816  0.17380302  0.81740509  1  0.985415  -0.000201  0.250644  0.293683  -0.000868  3.93983  -0.002
C  C37  1  0.74947411  0.82623235  0.18264550  1  0.973391  0.000358  0.250501  0.294416  0.000918  3.938882  0.002
N  N38  1  0.08324952  0.13890227  0.75000555  1  -0.608892  -0.03281  -0.202014  -0.22765  -0.022066  3.334294  -0.03
N  N39  1  0.58339385  0.87308354  0.24879852  1  -0.62299  0.031116  -0.202724  -0.229043  0.020958  3.325451  0.028
N  N40  1  0.91600619  0.86007135  0.25008420  1  -0.605754  0.027417  -0.208485  -0.234275  0.018329  3.35456  0.025
N  N41  1  0.41610778  0.12793106  0.75118519  1  -0.63607  -0.030008  -0.207909  -0.232823  -0.02001  3.343743  -0.027
N  N42  1  0.15110895  0.07157646  0.64311033  1  -0.13187  0.035697  -0.137494  -0.008209  0.024769  3.62748  0.032
N  N43  1  0.65235950  0.93629466  0.35613829  1  -0.178739  -0.035348  -0.139902  -0.002013  -0.024598  3.625163  -0.032
N  N44  1  0.84821325  0.92793371  0.35705975  1  -0.134648  0.036829  -0.139504  -0.010856  0.025078  3.632712  0.033
N  N45  1  0.34709675  0.06414997  0.64372288  1  -0.177267  -0.036762  -0.141937  -0.004983  -0.025111  3.626366  -0.033
O  O46  1  0.25204421  0.67611841  0.10481417  1  -1.090258  0.094501  -0.310547  -0.511941  0.05873  2.224741  0.083
O  O47  1  0.74833137  0.32395737  0.89521011  1  -1.090498  -0.094044  -0.311055  -0.512714  -0.058528  2.224086  -0.083
O  O48  1  0.24131379  0.65821358  0.28162987  1  -1.164143  0.054001  -0.314806  -0.574598  0.033633  2.264526  0.048
O  O49  1  0.75862527  0.34192070  0.71833031  1  -1.16572  -0.053092  -0.31548  -0.575349  -0.033134  2.264788  -0.047
O  O50  1  0.26897288  0.19042653  0.32383980  1  -1.164701  0.000484  -0.315554  -0.541807  5.2e-05  2.214121  0.001
O  O51  1  0.73094307  0.80958509  0.67616399  1  -1.1648  3e-06  -0.315758  -0.542351  0.000242  2.214005  0.0
O  O52  1  0.24379891  0.00380374  0.15863293  1  -1.138013  0.057989  -0.324681  -0.553639  0.035915  2.320847  0.052
O  O53  1  0.75600138  0.99619941  0.84145775  1  -1.139434  -0.056704  -0.324893  -0.553948  -0.035194  2.320995  -0.051
O  O54  1  0.25340165  0.99001917  0.40493409  1  -1.075611  0.107717  -0.556137  -0.799925  0.067061  2.417561  0.097
O  O55  1  0.74954097  0.00990471  0.59501698  1  -1.083441  -0.113265  -0.555807  -0.798915  -0.070592  2.416686  -0.102
O  O56  1  0.94249706  0.24021504  0.49785004  1  -1.25071  -0.000768  -0.603017  -0.797783  -0.000438  1.976913  0.0
O  O57  1  0.54303249  0.73062142  0.45452037  1  -1.238308  0.000398  -0.604243  -0.790669  0.000172  1.977839  0.0
O  O58  1  0.05745797  0.75979034  0.50200293  1  -1.249295  -0.000672  -0.602543  -0.797024  -0.000391  1.978631  0.0
O  O59  1  0.45724765  0.26931328  0.54550806  1  -1.27805  0.000963  -0.603739  -0.790483  0.000611  1.979834  0.0
