# generated using pymatgen
data_Cu2Mo4H18C24N6O13
_symmetry_space_group_name_H-M   'P 1'
_cell_length_a   8.28984154
_cell_length_b   13.45873920
_cell_length_c   15.02708694
_cell_angle_alpha   70.95484512
_cell_angle_beta   84.09965071
_cell_angle_gamma   73.91160128
_symmetry_Int_Tables_number   1
_chemical_formula_structural   Cu2Mo4H18C24N6O13
_chemical_formula_sum   'Cu4 Mo8 H36 C48 N12 O26'
_cell_volume   1522.60104353
_cell_formula_units_Z   2
loop_
 _symmetry_equiv_pos_site_id
 _symmetry_equiv_pos_as_xyz
  1  'x, y, z'
loop_
 _atom_site_type_symbol
 _atom_site_label
 _atom_site_symmetry_multiplicity
 _atom_site_fract_x
 _atom_site_fract_y
 _atom_site_fract_z
 _atom_site_occupancy
 _atom_site_hle17_bader_spin_density
 _atom_site_hle17_ddec_charge
 _atom_site_hle17_ddec_spin_density
 _atom_site_hle17_ddec_sum_bond_order
 _atom_site_hle17_magmom
 _atom_site_hse06_10hf_bader_spin_density
 _atom_site_hse06_10hf_ddec_charge
 _atom_site_hse06_10hf_ddec_spin_density
 _atom_site_hse06_10hf_ddec_sum_bond_order
 _atom_site_hse06_10hf_magmom
 _atom_site_hse06_bader_spin_density
 _atom_site_hse06_ddec_charge
 _atom_site_hse06_ddec_spin_density
 _atom_site_hse06_ddec_sum_bond_order
 _atom_site_hse06_magmom
 _atom_site_pbe_bader_spin_density
 _atom_site_pbe_cm5_charge
 _atom_site_pbe_ddec_charge
 _atom_site_pbe_ddec_spin_density
 _atom_site_pbe_ddec_sum_bond_order
 _atom_site_pbe_magmom
Cu  Cu0  1  0.05486087  0.75279726  0.15011578  1  0  0.473212  0  1.590038  0  0  0.343094  0  2.000295  0  0  0.354466  0  1.964554  0  0  0.53233  0.337944  0  2.023291  0
Cu  Cu1  1  0.94513835  0.24720274  0.84988467  1  0  0.473185  0  1.59001  0  0  0.343078  0  2.000258  0  0  0.35445  0  1.964507  0  0  0.532312  0.337924  0  2.023248  0
Cu  Cu2  1  0.77828398  0.30495188  0.45953087  1  0  0.83246  0  1.79396  0  0  0.747387  0  2.283999  0  0  0.727481  0  2.246662  0  0  0.59883  0.762124  0  2.307123  0
Cu  Cu3  1  0.22171735  0.69504893  0.54046789  1  0  0.83238  0  1.793968  0  0  0.747319  0  2.284013  0  0  0.727403  0  2.246674  0  0  0.598811  0.762038  0  2.30713  0
Mo  Mo4  1  0.02374611  0.04638868  0.59079230  1  0  2.235766  0  3.994584  0  0  2.239021  0  4.515126  0  0  2.335836  0  4.483898  0  0  1.516997  2.165223  0  4.547156  0
Mo  Mo5  1  0.97625068  0.95361132  0.40920696  1  0  2.235693  0  3.994591  0  0  2.238949  0  4.515131  0  0  2.335766  0  4.483902  0  0  1.516949  2.165145  0  4.547166  0
Mo  Mo6  1  0.41262682  0.06278616  0.58571010  1  0  2.217617  0  4.060995  0  0  2.211725  0  4.597425  0  0  2.312368  0  4.559848  0  0  1.508072  2.1374  0  4.629677  0
Mo  Mo7  1  0.58737273  0.93721302  0.41428924  1  0  2.217589  0  4.060928  0  0  2.211677  0  4.59737  0  0  2.312323  0  4.559792  0  0  1.508071  2.13735  0  4.629622  0
Mo  Mo8  1  0.44284492  0.80595711  0.64241225  1  0  2.196697  0  4.085096  0  0  2.198416  0  4.616881  0  0  2.296013  0  4.583724  0  0  1.501178  2.125962  0  4.647792  0
Mo  Mo9  1  0.55715462  0.19404207  0.35758842  1  0  2.196692  0  4.085015  0  0  2.198413  0  4.616783  0  0  2.296003  0  4.583634  0  0  1.501203  2.125958  0  4.647695  0
Mo  Mo10  1  0.16618167  0.18665406  0.37198087  1  0  2.232876  0  3.978662  0  0  2.232346  0  4.503297  0  0  2.330689  0  4.469559  0  0  1.509724  2.158031  0  4.536829  0
Mo  Mo11  1  0.83381940  0.81334430  0.62801929  1  0  2.232709  0  3.978544  0  0  2.232175  0  4.5032  0  0  2.330526  0  4.46945  0  0  1.50964  2.157863  0  4.536729  0
H  H12  1  0.55836315  0.53504157  0.77392224  1  0  0.121979  0  0.932631  0  0  0.134102  0  0.984169  0  0  0.13629  0  0.984083  0  0  0.111489  0.132482  0  0.984363  0
H  H13  1  0.44164675  0.46495597  0.22607833  1  0  0.121925  0  0.932686  0  0  0.134086  0  0.984182  0  0  0.13627  0  0.9841  0  0  0.111481  0.132464  0  0.984382  0
H  H14  1  0.47867696  0.36701753  0.87442974  1  0  0.092668  0  0.946572  0  0  0.104039  0  1.005012  0  0  0.105995  0  1.004924  0  0  0.100358  0.102579  0  1.00524  0
H  H15  1  0.52132897  0.63298083  0.12557082  1  0  0.09263  0  0.946626  0  0  0.10401  0  1.005049  0  0  0.105966  0  1.004962  0  0  0.100342  0.10255  0  1.005279  0
H  H16  1  0.50972354  0.21070556  0.81569591  1  0  0.095033  0  0.964916  0  0  0.107653  0  1.023283  0  0  0.10901  0  1.024714  0  0  0.101292  0.106642  0  1.022417  0
H  H17  1  0.49027658  0.78929524  0.18430225  1  0  0.095045  0  0.964843  0  0  0.10763  0  1.02325  0  0  0.108988  0  1.024681  0  0  0.101279  0.10662  0  1.022386  0
H  H18  1  0.60688098  0.21965457  0.65122480  1  0  0.129822  0  0.956022  0  0  0.138732  0  1.015402  0  0  0.141492  0  1.013546  0  0  0.108482  0.136647  0  1.016944  0
H  H19  1  0.39311582  0.78034543  0.34877379  1  0  0.129838  0  0.956028  0  0  0.13872  0  1.015434  0  0  0.14148  0  1.013578  0  0  0.108477  0.136635  0  1.016975  0
H  H20  1  0.74960832  0.47797248  0.33554592  1  0  0.104042  0  0.981242  0  0  0.109618  0  1.054099  0  0  0.115263  0  1.049305  0  0  0.104961  0.105527  0  1.05771  0
H  H21  1  0.25038815  0.52202834  0.66445444  1  0  0.104123  0  0.981222  0  0  0.109707  0  1.054063  0  0  0.115353  0  1.049264  0  0  0.10497  0.105617  0  1.057673  0
H  H22  1  0.88299344  0.57738758  0.19259695  1  0  0.085893  0  0.9621  0  0  0.085946  0  1.040138  0  0  0.090055  0  1.035477  0  0  0.115794  0.082838  0  1.043656  0
H  H23  1  0.11700304  0.42261323  0.80740274  1  0  0.085892  0  0.962123  0  0  0.085948  0  1.040153  0  0  0.090058  0  1.035496  0  0  0.115804  0.082841  0  1.043672  0
H  H24  1  0.00651619  0.76591918  0.33381533  1  0  0.080537  0  0.961546  0  0  0.085923  0  1.034075  0  0  0.088649  0  1.0307  0  0  0.117393  0.083767  0  1.036789  0
H  H25  1  0.99348514  0.23408162  0.66618343  1  0  0.080551  0  0.961564  0  0  0.08596  0  1.034072  0  0  0.088679  0  1.030703  0  0  0.117405  0.083803  0  1.036786  0
H  H26  1  0.88418756  0.67194798  0.48228167  1  0  0.126667  0  0.9599  0  0  0.133694  0  1.024803  0  0  0.13835  0  1.02102  0  0  0.112398  0.130168  0  1.027952  0
H  H27  1  0.11581498  0.32805283  0.51771769  1  0  0.126576  0  0.95997  0  0  0.13365  0  1.024834  0  0  0.138306  0  1.021051  0  0  0.112361  0.130125  0  1.027983  0
H  H28  1  0.13289499  0.96075159  0.16945113  1  0  0.12045  0  0.973428  0  0  0.130991  0  1.035351  0  0  0.134646  0  1.031901  0  0  0.100967  0.128252  0  1.038018  0
H  H29  1  0.86710723  0.03925004  0.83054933  1  0  0.120477  0  0.973381  0  0  0.130993  0  1.035335  0  0  0.134638  0  1.031908  0  0  0.100984  0.128255  0  1.038002  0
H  H30  1  0.22361571  0.13216505  0.11419253  1  0  0.107627  0  0.949275  0  0  0.121165  0  1.002725  0  0  0.123558  0  1.002119  0  0  0.100458  0.119386  0  1.003336  0
H  H31  1  0.77638562  0.86783575  0.88580556  1  0  0.107628  0  0.949262  0  0  0.121198  0  1.002684  0  0  0.123591  0  1.002074  0  0  0.100448  0.119417  0  1.0033  0
H  H32  1  0.33161605  0.19829649  0.95148360  1  0  0.083515  0  0.95387  0  0  0.098867  0  1.008435  0  0  0.100897  0  1.007821  0  0  0.097605  0.097443  0  1.008937  0
H  H33  1  0.66838164  0.80170432  0.04851470  1  0  0.083532  0  0.953835  0  0  0.098875  0  1.008414  0  0  0.100902  0  1.007802  0  0  0.097621  0.097452  0  1.008914  0
H  H34  1  0.36129558  0.09022889  0.83918956  1  0  0.125441  0  0.974957  0  0  0.135753  0  1.033089  0  0  0.138782  0  1.030807  0  0  0.102731  0.133537  0  1.034912  0
H  H35  1  0.63870058  0.90977273  0.16080791  1  0  0.125444  0  0.974966  0  0  0.135758  0  1.033095  0  0  0.138786  0  1.030814  0  0  0.102733  0.133542  0  1.034918  0
H  H36  1  0.12026310  0.79249091  0.80064932  1  0  0.117339  0  0.946203  0  0  0.123348  0  1.012742  0  0  0.126321  0  1.0115  0  0  0.111998  0.121174  0  1.013818  0
H  H37  1  0.87973458  0.20750990  0.19935163  1  0  0.117347  0  0.946229  0  0  0.123343  0  1.012778  0  0  0.126317  0  1.011535  0  0  0.111989  0.121167  0  1.013859  0
H  H38  1  0.10942042  0.62369606  0.77200403  1  0  0.07763  0  0.964086  0  0  0.086514  0  1.027888  0  0  0.088735  0  1.02669  0  0  0.108442  0.084935  0  1.028745  0
H  H39  1  0.89057879  0.37630394  0.22799775  1  0  0.077645  0  0.964029  0  0  0.086509  0  1.027854  0  0  0.08873  0  1.026656  0  0  0.108447  0.08493  0  1.02871  0
H  H40  1  0.23108045  0.43851875  0.04863682  1  0  0.078377  0  0.910807  0  0  0.09062  0  0.962694  0  0  0.093426  0  0.960886  0  0  0.11455  0.088561  0  0.964107  0
H  H41  1  0.76892208  0.56148206  0.95136520  1  0  0.07841  0  0.910745  0  0  0.090639  0  0.962647  0  0  0.093445  0  0.960838  0  0  0.114552  0.088581  0  0.964062  0
H  H42  1  0.25317615  0.60009598  0.08825635  1  0  0.086253  0  1.007695  0  0  0.093139  0  1.080721  0  0  0.097562  0  1.077524  0  0  0.093856  0.089928  0  1.083177  0
H  H43  1  0.74682485  0.39990564  0.91174352  1  0  0.086221  0  1.007646  0  0  0.093105  0  1.080683  0  0  0.097529  0  1.077485  0  0  0.093843  0.089894  0  1.083138  0
H  H44  1  0.69431289  0.61974090  0.59039445  1  0  0.337699  0  0.90131  0  0  0.320528  0  0.958535  0  0  0.329364  0  0.951038  0  0  0.312468  0.314155  0  0.963931  0
H  H45  1  0.30568940  0.38025747  0.40960697  1  0  0.337737  0  0.90121  0  0  0.32057  0  0.958446  0  0  0.329403  0  0.950942  0  0  0.312483  0.314211  0  0.96384  0
H  H46  1  0.32055630  0.88070286  0.83887635  1  0  0.339535  0  0.873677  0  0  0.325244  0  0.927582  0  0  0.332907  0  0.921053  0  0  0.323132  0.319733  0  0.932383  0
H  H47  1  0.67944017  0.11929795  0.16112401  1  0  0.339583  0  0.873628  0  0  0.325232  0  0.927609  0  0  0.332898  0  0.921077  0  0  0.323136  0.319722  0  0.932405  0
C  C48  1  0.63186540  0.46863809  0.65720620  1  0  0.165746  0  3.784912  0  0  0.156193  0  4.030208  0  0  0.160398  0  4.053639  0  0  0.097443  0.153296  0  4.014536  0
C  C49  1  0.36813778  0.53136109  0.34279361  1  0  0.165747  0  3.784834  0  0  0.156164  0  4.030199  0  0  0.160369  0  4.05363  0  0  0.097439  0.153275  0  4.014549  0
C  C50  1  0.57182052  0.46625376  0.74820303  1  0  -0.162538  0  3.74854  0  0  -0.177835  0  3.999979  0  0  -0.181395  0  4.020299  0  0  -0.096021  -0.175381  0  3.986349  0
C  C51  1  0.42818484  0.53374298  0.25179803  1  0  -0.16252  0  3.748572  0  0  -0.177844  0  4.000033  0  0  -0.181397  0  4.020352  0  0  -0.09601  -0.175387  0  3.986401  0
C  C52  1  0.52816815  0.37187819  0.80348765  1  0  -0.078157  0  3.807663  0  0  -0.097061  0  4.072179  0  0  -0.098762  0  4.094722  0  0  -0.096271  -0.095951  0  4.057102  0
C  C53  1  0.47183779  0.62812017  0.19651224  1  0  -0.078065  0  3.807655  0  0  -0.096973  0  4.072156  0  0  -0.098675  0  4.0947  0  0  -0.096223  -0.095862  0  4.057078  0
C  C54  1  0.54291786  0.28347643  0.76940606  1  0  -0.084629  0  3.787626  0  0  -0.103059  0  4.047817  0  0  -0.106811  0  4.072306  0  0  -0.099437  -0.100588  0  4.031359  0
C  C55  1  0.45708225  0.71652438  0.23059344  1  0  -0.084649  0  3.787554  0  0  -0.103049  0  4.047731  0  0  -0.106804  0  4.072224  0  0  -0.099461  -0.100578  0  4.031273  0
C  C56  1  0.59798405  0.28689174  0.67817983  1  0  -0.132937  0  3.708159  0  0  -0.151098  0  3.955276  0  0  -0.152566  0  3.975205  0  0  -0.090301  -0.150037  0  3.941971  0
C  C57  1  0.40201485  0.71310906  0.32181774  1  0  -0.132928  0  3.708228  0  0  -0.151054  0  3.955332  0  0  -0.152519  0  3.975259  0  0  -0.090224  -0.149993  0  3.942026  0
C  C58  1  0.64241190  0.38142938  0.62158754  1  0  0.142358  0  3.819588  0  0  0.144278  0  4.06488  0  0  0.145318  0  4.088542  0  0  0.083419  0.143454  0  4.049104  0
C  C59  1  0.35759097  0.61857060  0.37841137  1  0  0.142268  0  3.819563  0  0  0.144169  0  4.064917  0  0  0.145208  0  4.088577  0  0  0.083332  0.14335  0  4.049134  0
C  C60  1  0.73268865  0.50689111  0.51031605  1  0  0.347823  0  3.741357  0  0  0.313444  0  4.014171  0  0  0.327929  0  4.026958  0  0  0.225793  0.304072  0  4.005155  0
C  C61  1  0.26731025  0.49310970  0.48968351  1  0  0.347844  0  3.741376  0  0  0.313477  0  4.014147  0  0  0.327938  0  4.026972  0  0  0.22583  0.304122  0  4.005133  0
C  C62  1  0.80607202  0.56446201  0.42322936  1  0  0.037804  0  3.77207  0  0  0.052984  0  4.006162  0  0  0.056793  0  4.024742  0  0  0.01318  0.050178  0  3.993837  0
C  C63  1  0.19392656  0.43553961  0.57676998  1  0  0.037797  0  3.772301  0  0  0.053034  0  4.006325  0  0  0.05685  0  4.024914  0  0  0.013142  0.05023  0  3.993996  0
C  C64  1  0.80837418  0.53943062  0.33931595  1  0  -0.117208  0  3.694807  0  0  -0.135936  0  3.936367  0  0  -0.141132  0  3.954647  0  0  -0.074936  -0.132776  0  3.924633  0
C  C65  1  0.19162528  0.46057181  0.66068310  1  0  -0.117339  0  3.694876  0  0  -0.136108  0  3.936455  0  0  -0.141301  0  3.954726  0  0  -0.074954  -0.132948  0  3.924724  0
C  C66  1  0.88208196  0.59548327  0.25849943  1  0  0.124938  0  3.653462  0  0  0.100066  0  3.888524  0  0  0.105885  0  3.906045  0  0  0.045355  0.09612  0  3.877143  0
C  C67  1  0.11791540  0.40451836  0.74150064  1  0  0.124987  0  3.653478  0  0  0.100123  0  3.888539  0  0  0.105935  0  3.906071  0  0  0.04537  0.096175  0  3.877158  0
C  C68  1  0.94955238  0.70105123  0.33729244  1  0  0.135042  0  3.669053  0  0  0.102681  0  3.918552  0  0  0.110462  0  3.934399  0  0  0.042356  0.097353  0  3.908433  0
C  C69  1  0.05044894  0.29894957  0.66270765  1  0  0.135048  0  3.669045  0  0  0.10266  0  3.918577  0  0  0.110446  0  3.934427  0  0  0.042342  0.097333  0  3.908457  0
C  C70  1  0.87933374  0.64772371  0.42053150  1  0  -0.120772  0  3.66036  0  0  -0.144903  0  3.913281  0  0  -0.150777  0  3.93107  0  0  -0.078974  -0.141312  0  3.901978  0
C  C71  1  0.12066694  0.35227872  0.57946814  1  0  -0.120736  0  3.660518  0  0  -0.144926  0  3.913434  0  0  -0.150801  0  3.931223  0  0  -0.078914  -0.141336  0  3.902131  0
C  C72  1  0.20017603  0.92840576  0.03574389  1  0  0.138682  0  3.819678  0  0  0.137542  0  4.058897  0  0  0.140024  0  4.083987  0  0  0.084855  0.135796  0  4.042079  0
C  C73  1  0.79982164  0.07159507  0.96425840  1  0  0.138706  0  3.819693  0  0  0.13752  0  4.059002  0  0  0.140026  0  4.084058  0  0  0.084835  0.135773  0  4.042184  0
C  C74  1  0.18368614  0.98803939  0.09847041  1  0  -0.138976  0  3.720133  0  0  -0.160055  0  3.971538  0  0  -0.162841  0  3.992455  0  0  -0.095556  -0.158047  0  3.957435  0
C  C75  1  0.81631309  0.01196060  0.90152870  1  0  -0.138992  0  3.720133  0  0  -0.160024  0  3.971554  0  0  -0.162816  0  3.992467  0  0  -0.095547  -0.158015  0  3.957451  0
C  C76  1  0.23341904  0.08455936  0.06648906  1  0  -0.063497  0  3.749932  0  0  -0.079909  0  4.004462  0  0  -0.08362  0  4.029185  0  0  -0.09491  -0.077271  0  3.987572  0
C  C77  1  0.76658262  0.91544063  0.93350992  1  0  -0.063539  0  3.750048  0  0  -0.079977  0  4.004558  0  0  -0.08369  0  4.029283  0  0  -0.094926  -0.077339  0  3.987669  0
C  C78  1  0.29556080  0.12164841  0.97387650  1  0  -0.083617  0  3.817463  0  0  -0.102369  0  4.082807  0  0  -0.103487  0  4.104099  0  0  -0.100223  -0.101641  0  4.068352  0
C  C79  1  0.70443932  0.87835239  0.02612166  1  0  -0.083597  0  3.817387  0  0  -0.102341  0  4.082737  0  0  -0.103457  0  4.104027  0  0  -0.100226  -0.101614  0  4.068284  0
C  C80  1  0.31284351  0.06306357  0.91061942  1  0  -0.170986  0  3.766338  0  0  -0.189551  0  4.023352  0  0  -0.191851  0  4.041541  0  0  -0.0997  -0.18796  0  4.011157  0
C  C81  1  0.68715385  0.93693806  0.08937998  1  0  -0.171006  0  3.766312  0  0  -0.189545  0  4.023336  0  0  -0.191845  0  4.041527  0  0  -0.099685  -0.187955  0  4.011142  0
C  C82  1  0.26500258  0.96536126  0.94341763  1  0  0.17025  0  3.771022  0  0  0.160841  0  4.014388  0  0  0.163918  0  4.038258  0  0  0.098982  0.158728  0  3.998257  0
C  C83  1  0.73499389  0.03463955  0.05658273  1  0  0.170291  0  3.771055  0  0  0.160818  0  4.014534  0  0  0.163889  0  4.038404  0  0  0.098973  0.158708  0  3.9984  0
C  C84  1  0.20560204  0.80720635  0.96576949  1  0  0.356204  0  3.71733  0  0  0.322443  0  3.975201  0  0  0.339415  0  3.988371  0  0  0.236079  0.311469  0  3.965754  0
C  C85  1  0.79439686  0.19279446  0.03423073  1  0  0.356162  0  3.71744  0  0  0.322426  0  3.975301  0  0  0.339407  0  3.988471  0  0  0.236042  0.311452  0  3.965854  0
C  C86  1  0.19129196  0.71020575  0.94673486  1  0  0.025368  0  3.801051  0  0  0.041497  0  4.030712  0  0  0.042066  0  4.051301  0  0  0.00521  0.040968  0  4.016921  0
C  C87  1  0.80870693  0.28979506  0.05326603  1  0  0.025422  0  3.800888  0  0  0.041477  0  4.030644  0  0  0.042026  0  4.051259  0  0  0.005223  0.040949  0  4.016851  0
C  C88  1  0.15008837  0.71540496  0.85702784  1  0  -0.110989  0  3.675539  0  0  -0.132165  0  3.921875  0  0  -0.136703  0  3.942075  0  0  -0.076281  -0.129227  0  3.908443  0
C  C89  1  0.84990931  0.28459586  0.14297378  1  0  -0.111019  0  3.675559  0  0  -0.132165  0  3.921902  0  0  -0.136697  0  3.942108  0  0  -0.076269  -0.129231  0  3.908471  0
C  C90  1  0.14199188  0.62015650  0.84171588  1  0  0.125115  0  3.708326  0  0  0.102972  0  3.962079  0  0  0.107326  0  3.98021  0  0  0.043211  0.100191  0  3.949642  0
C  C91  1  0.85800612  0.37984351  0.15828596  1  0  0.125136  0  3.708295  0  0  0.103021  0  3.962016  0  0  0.107376  0  3.980149  0  0  0.043245  0.100241  0  3.949576  0
C  C92  1  0.20856686  0.51827528  0.99478052  1  0  0.119142  0  3.762774  0  0  0.094572  0  4.022099  0  0  0.098994  0  4.040182  0  0  0.038175  0.091715  0  4.009681  0
C  C93  1  0.79143446  0.48172553  0.00522024  1  0  0.119073  0  3.762848  0  0  0.094525  0  4.022156  0  0  0.098946  0  4.040238  0  0  0.038167  0.091667  0  4.009739  0
C  C94  1  0.21955810  0.60870669  0.01734725  1  0  -0.166169  0  3.747339  0  0  -0.181254  0  3.987308  0  0  -0.186432  0  4.006057  0  0  -0.092218  -0.177907  0  3.974913  0
C  C95  1  0.78044411  0.39129493  0.98265255  1  0  -0.166143  0  3.747178  0  0  -0.181209  0  3.987166  0  0  -0.18638  0  4.005919  0  0  -0.092208  -0.177861  0  3.974771  0
N  N96  1  0.69054842  0.54511809  0.58574912  1  0  -0.361849  0  3.315318  0  0  -0.303268  0  3.541645  0  0  -0.321187  0  3.553839  0  0  -0.368528  -0.291273  0  3.533463  0
N  N97  1  0.30945598  0.45488108  0.41425061  1  0  -0.361845  0  3.315183  0  0  -0.303271  0  3.541518  0  0  -0.321177  0  3.55372  0  0  -0.36854  -0.291332  0  3.533391  0
N  N98  1  0.70456247  0.40811159  0.52970799  1  0  -0.490649  0  3.293539  0  0  -0.44408  0  3.629671  0  0  -0.454051  0  3.634225  0  0  -0.385252  -0.437601  0  3.626128  0
N  N99  1  0.29543644  0.59188922  0.47029024  1  0  -0.490613  0  3.293548  0  0  -0.444045  0  3.629678  0  0  -0.454006  0  3.634237  0  0  -0.385267  -0.437558  0  3.626117  0
N  N100  1  0.95276112  0.67585104  0.25674397  1  0  -0.303399  0  3.450199  0  0  -0.214642  0  3.740535  0  0  -0.228241  0  3.749271  0  0  -0.385655  -0.206159  0  3.734734  0
N  N101  1  0.04723746  0.32415059  0.74325603  1  0  -0.303406  0  3.450215  0  0  -0.214652  0  3.740564  0  0  -0.228247  0  3.749291  0  0  -0.385682  -0.206166  0  3.734757  0
N  N102  1  0.16312893  0.82997339  0.04721403  1  0  -0.452022  0  3.38532  0  0  -0.373162  0  3.688343  0  0  -0.391707  0  3.696148  0  0  -0.403037  -0.361113  0  3.682712  0
N  N103  1  0.83687093  0.17002499  0.95278753  1  0  -0.452037  0  3.385437  0  0  -0.373166  0  3.68848  0  0  -0.391714  0  3.696269  0  0  -0.403061  -0.361117  0  3.682847  0
N  N104  1  0.26613219  0.88709485  0.90211162  1  0  -0.348906  0  3.316647  0  0  -0.286816  0  3.533722  0  0  -0.304518  0  3.545914  0  0  -0.359339  -0.274801  0  3.525236  0
N  N105  1  0.73386549  0.11290597  0.09788868  1  0  -0.348922  0  3.316724  0  0  -0.286749  0  3.533829  0  0  -0.304461  0  3.546028  0  0  -0.359268  -0.274732  0  3.525334  0
N  N106  1  0.17156849  0.52235463  0.90834771  1  0  -0.329241  0  3.075578  0  0  -0.29224  0  3.34584  0  0  -0.302384  0  3.360799  0  0  -0.324126  -0.28508  0  3.33538  0
N  N107  1  0.82843072  0.47764538  0.09165474  1  0  -0.329252  0  3.075744  0  0  -0.292258  0  3.345987  0  0  -0.302401  0  3.360945  0  0  -0.324173  -0.285097  0  3.335525  0
O  O108  1  0.51047486  0.16512901  0.52206420  1  0  -0.759244  0  1.591592  0  0  -0.757264  0  1.873815  0  0  -0.784869  0  1.861881  0  0  -0.537056  -0.737218  0  1.883103  0
O  O109  1  0.48952468  0.83487017  0.47793580  1  0  -0.759221  0  1.591519  0  0  -0.757231  0  1.873731  0  0  -0.784833  0  1.861791  0  0  -0.537057  -0.737182  0  1.883015  0
O  O110  1  0.28043366  0.94112923  0.59511001  1  0  -1.007572  0  1.873296  0  0  -1.002889  0  2.180627  0  0  -1.045731  0  2.174647  0  0  -0.615271  -0.969954  0  2.184218  0
O  O111  1  0.71956588  0.05886996  0.40489066  1  0  -1.007574  0  1.873332  0  0  -1.002881  0  2.180652  0  0  -1.045725  0  2.174675  0  0  -0.615254  -0.969946  0  2.184244  0
O  O112  1  0.98958898  0.28983540  0.38212171  1  0  -0.764418  0  1.714231  0  0  -0.74901  0  2.032444  0  0  -0.767575  0  2.013349  0  0  -0.545007  -0.735354  0  2.046617  0
O  O113  1  0.01041000  0.71016215  0.61787814  1  0  -0.764271  0  1.714009  0  0  -0.748881  0  2.032234  0  0  -0.76745  0  2.013138  0  0  -0.544933  -0.735225  0  2.046402  0
O  O114  1  0.02543099  0.01598632  0.71035807  1  0  -0.665085  0  1.425458  0  0  -0.660862  0  1.665827  0  0  -0.683999  0  1.656995  0  0  -0.500844  -0.643723  0  1.6735  0
O  O115  1  0.97456459  0.98401368  0.28964125  1  0  -0.665059  0  1.425396  0  0  -0.660853  0  1.66578  0  0  -0.68399  0  1.656948  0  0  -0.500813  -0.643712  0  1.673453  0
O  O116  1  0.34130074  0.70922793  0.63929663  1  0  -0.773103  0  1.731626  0  0  -0.757182  0  2.066853  0  0  -0.776899  0  2.047502  0  0  -0.554101  -0.742873  0  2.080795  0
O  O117  1  0.65869791  0.29077044  0.36070433  1  0  -0.773159  0  1.731629  0  0  -0.757243  0  2.066879  0  0  -0.776962  0  2.047532  0  0  -0.554142  -0.742936  0  2.080823  0
O  O118  1  0.43991031  0.79874733  0.75903468  1  0  -0.707522  0  1.469943  0  0  -0.707142  0  1.71355  0  0  -0.732119  0  1.705347  0  0  -0.516046  -0.689058  0  1.720413  0
O  O119  1  0.56009110  0.20125022  0.24096570  1  0  -0.707479  0  1.469874  0  0  -0.707093  0  1.713501  0  0  -0.732068  0  1.705298  0  0  -0.516054  -0.689008  0  1.72036  0
O  O120  1  0.40070786  0.06384670  0.69928857  1  0  -0.657517  0  1.40751  0  0  -0.64313  0  1.635735  0  0  -0.665394  0  1.625143  0  0  -0.500669  -0.627052  0  1.644232  0
O  O121  1  0.59929266  0.93615004  0.30071144  1  0  -0.657503  0  1.407496  0  0  -0.643105  0  1.635724  0  0  -0.665369  0  1.625133  0  0  -0.500662  -0.627029  0  1.644225  0
O  O122  1  0.85269568  0.15980011  0.55736047  1  0  -0.738386  0  1.712776  0  0  -0.726589  0  2.035131  0  0  -0.745487  0  2.017354  0  0  -0.534343  -0.712845  0  2.048568  0
O  O123  1  0.14730355  0.84019988  0.44263798  1  0  -0.738344  0  1.712765  0  0  -0.72653  0  2.035085  0  0  -0.74543  0  2.017309  0  0  -0.534319  -0.712782  0  2.048515  0
O  O124  1  0.18478356  0.13957943  0.54020384  1  0  -0.97903  0  1.839477  0  0  -0.967798  0  2.136085  0  0  -1.009471  0  2.131353  0  0  -0.594908  -0.93558  0  2.138922  0
O  O125  1  0.81521720  0.86041975  0.45979610  1  0  -0.979021  0  1.839533  0  0  -0.967782  0  2.136129  0  0  -1.009457  0  2.131398  0  0  -0.594912  -0.935558  0  2.138962  0
O  O126  1  0.93665307  0.93700464  0.57125988  1  0  -0.989325  0  1.88042  0  0  -0.985281  0  2.190589  0  0  -1.028332  0  2.183482  0  0  -0.611093  -0.951313  0  2.194885  0
O  O127  1  0.06334648  0.06299454  0.42873880  1  0  -0.989375  0  1.880419  0  0  -0.985306  0  2.190543  0  0  -1.028371  0  2.183473  0  0  -0.611109  -0.951333  0  2.194837  0
O  O128  1  0.17265273  0.18795392  0.25813617  1  0  -0.638245  0  1.417291  0  0  -0.63726  0  1.652172  0  0  -0.660475  0  1.643817  0  0  -0.488341  -0.620079  0  1.65951  0
O  O129  1  0.82734771  0.81204607  0.74186354  1  0  -0.63822  0  1.417294  0  0  -0.637239  0  1.652186  0  0  -0.660455  0  1.643828  0  0  -0.488332  -0.620059  0  1.659525  0
O  O130  1  0.58798337  0.93404626  0.58664799  1  0  -1.07642  0  1.907447  0  0  -1.062885  0  2.204582  0  0  -1.107719  0  2.199262  0  0  -0.61198  -1.027815  0  2.206624  0
O  O131  1  0.41201650  0.06595211  0.41335157  1  0  -1.076395  0  1.907394  0  0  -1.062862  0  2.204533  0  0  -1.107694  0  2.199213  0  0  -0.611963  -1.027791  0  2.206571  0
O  O132  1  0.67650705  0.72875102  0.63191140  1  0  -0.915139  0  1.760651  0  0  -0.900617  0  2.034157  0  0  -0.940072  0  2.028463  0  0  -0.589117  -0.870726  0  2.038492  0
O  O133  1  0.32349249  0.27124817  0.36808927  1  0  -0.915169  0  1.760677  0  0  -0.900656  0  2.034199  0  0  -0.940104  0  2.028499  0  0  -0.589113  -0.870762  0  2.038528  0
