# generated using pymatgen
data_Cd3H20C12N16(ClO)2
_symmetry_space_group_name_H-M   'P 1'
_cell_length_a   7.78753246
_cell_length_b   9.37187902
_cell_length_c   9.50953511
_cell_angle_alpha   87.04802505
_cell_angle_beta   65.83932309
_cell_angle_gamma   82.77305036
_symmetry_Int_Tables_number   1
_chemical_formula_structural   Cd3H20C12N16(ClO)2
_chemical_formula_sum   'Cd3 H20 C12 N16 Cl2 O2'
_cell_volume   628.21416718
_cell_formula_units_Z   1
loop_
 _symmetry_equiv_pos_site_id
 _symmetry_equiv_pos_as_xyz
  1  'x, y, z'
loop_
 _atom_site_type_symbol
 _atom_site_label
 _atom_site_symmetry_multiplicity
 _atom_site_fract_x
 _atom_site_fract_y
 _atom_site_fract_z
 _atom_site_occupancy
 _atom_site_hle17_bader_spin_density
 _atom_site_hle17_ddec_charge
 _atom_site_hle17_ddec_spin_density
 _atom_site_hle17_ddec_sum_bond_order
 _atom_site_hle17_magmom
 _atom_site_hse06_10hf_bader_spin_density
 _atom_site_hse06_10hf_ddec_charge
 _atom_site_hse06_10hf_ddec_spin_density
 _atom_site_hse06_10hf_ddec_sum_bond_order
 _atom_site_hse06_10hf_magmom
 _atom_site_hse06_bader_spin_density
 _atom_site_hse06_ddec_charge
 _atom_site_hse06_ddec_spin_density
 _atom_site_hse06_ddec_sum_bond_order
 _atom_site_hse06_magmom
 _atom_site_pbe_bader_spin_density
 _atom_site_pbe_cm5_charge
 _atom_site_pbe_ddec_charge
 _atom_site_pbe_ddec_spin_density
 _atom_site_pbe_ddec_sum_bond_order
 _atom_site_pbe_magmom
Cd  Cd0  1  0.00000037  0.50000090  0.50000007  1  0  0.924564  0  1.935355  0  0  0.719082  0  2.416774  0  0  0.766449  0  2.376785  0  0  0.693086  0.684324  0  2.444487  0
Cd  Cd1  1  0.49999953  0.49999977  0.50000008  1  0  0.925104  0  1.935129  0  0  0.719692  0  2.416679  0  0  0.767087  0  2.376738  0  0  0.693055  0.684536  0  2.444529  0
Cd  Cd2  1  0.50000113  0.99999960  0.99999910  1  0  1.03233  0  1.776926  0  0  0.829448  0  2.226891  0  0  0.879601  0  2.183813  0  0  0.801637  0.791418  0  2.257512  0
H  H3  1  0.92940131  0.76676616  0.25283157  1  0  0.103052  0  0.959622  0  0  0.11567  0  1.024518  0  0  0.117449  0  1.02368  0  0  0.090919  0.114768  0  1.024508  0
H  H4  1  0.81750233  0.23333487  0.25279822  1  0  0.10223  0  0.959248  0  0  0.115156  0  1.02409  0  0  0.11693  0  1.023242  0  0  0.090637  0.114323  0  1.023886  0
H  H5  1  0.07059741  0.23323554  0.74716858  1  0  0.103029  0  0.959652  0  0  0.115652  0  1.024538  0  0  0.117433  0  1.023702  0  0  0.09091  0.11475  0  1.024529  0
H  H6  1  0.18249778  0.76666467  0.74720088  1  0  0.102224  0  0.959224  0  0  0.115151  0  1.024072  0  0  0.116924  0  1.023225  0  0  0.090636  0.114318  0  1.023866  0
H  H7  1  0.05990978  0.89880503  0.12791716  1  0  0.09917  0  0.943065  0  0  0.115666  0  1.003065  0  0  0.116934  0  1.002536  0  0  0.099812  0.114834  0  1.003462  0
H  H8  1  0.81195621  0.10122035  0.12790462  1  0  0.099858  0  0.942428  0  0  0.116147  0  1.002679  0  0  0.117408  0  1.002167  0  0  0.100022  0.115281  0  1.003072  0
H  H9  1  0.94008911  0.10119559  0.87208300  1  0  0.099178  0  0.943058  0  0  0.115676  0  1.003054  0  0  0.116947  0  1.002526  0  0  0.099815  0.114844  0  1.003452  0
H  H10  1  0.18804195  0.89877812  0.87209658  1  0  0.099873  0  0.942361  0  0  0.116176  0  1.002603  0  0  0.117437  0  1.002091  0  0  0.10005  0.115308  0  1.002996  0
H  H11  1  0.88222475  0.91528130  0.48091339  1  0  0.063378  0  0.956164  0  0  0.077918  0  1.022696  0  0  0.078459  0  1.023972  0  0  0.087812  0.077347  0  1.022062  0
H  H12  1  0.63674368  0.08482860  0.48087922  1  0  0.063651  0  0.956231  0  0  0.078144  0  1.022457  0  0  0.078701  0  1.02374  0  0  0.087891  0.077571  0  1.021736  0
H  H13  1  0.11777797  0.08471934  0.51908716  1  0  0.06338  0  0.956174  0  0  0.077912  0  1.022712  0  0  0.078455  0  1.023986  0  0  0.087814  0.077341  0  1.022078  0
H  H14  1  0.36325723  0.91517096  0.51912190  1  0  0.063682  0  0.956247  0  0  0.078173  0  1.022459  0  0  0.078731  0  1.02374  0  0  0.0879  0.077601  0  1.021738  0
H  H15  1  0.00072158  0.05092541  0.35723362  1  0  0.061452  0  0.954021  0  0  0.076295  0  1.022419  0  0  0.077024  0  1.022926  0  0  0.087117  0.075695  0  1.021875  0
H  H16  1  0.64180196  0.94915116  0.35729192  1  0  0.061539  0  0.954167  0  0  0.07644  0  1.022249  0  0  0.077178  0  1.02274  0  0  0.087017  0.075837  0  1.021636  0
H  H17  1  0.99927929  0.94907522  0.64276596  1  0  0.061423  0  0.954067  0  0  0.076295  0  1.022427  0  0  0.077024  0  1.022934  0  0  0.087118  0.075695  0  1.021882  0
H  H18  1  0.35819789  0.05084840  0.64271024  1  0  0.061586  0  0.954121  0  0  0.076493  0  1.022185  0  0  0.077231  0  1.022677  0  0  0.087035  0.075891  0  1.021572  0
H  H19  1  0.18213806  0.20093556  0.09051497  1  0  0.402502  0  0.886538  0  0  0.365824  0  0.972734  0  0  0.376408  0  0.957268  0  0  0.295343  0.358135  0  0.983985  0
H  H20  1  0.72713458  0.79902407  0.09070221  1  0  0.40303  0  0.885954  0  0  0.366305  0  0.972135  0  0  0.376905  0  0.95665  0  0  0.295431  0.358499  0  0.983589  0
H  H21  1  0.81786174  0.79906507  0.90948567  1  0  0.402505  0  0.886526  0  0  0.365829  0  0.972728  0  0  0.376412  0  0.957263  0  0  0.295357  0.358139  0  0.983979  0
H  H22  1  0.27286506  0.20097764  0.90929843  1  0  0.403035  0  0.885947  0  0  0.366311  0  0.972125  0  0  0.376912  0  0.956638  0  0  0.295431  0.358506  0  0.983578  0
C  C23  1  0.19238705  0.78656813  0.26278494  1  0  0.364807  0  3.706256  0  0  0.343126  0  3.974043  0  0  0.355994  0  3.990333  0  0  0.229985  0.334421  0  3.962801  0
C  C24  1  0.54457071  0.21342205  0.26275833  1  0  0.36433  0  3.706738  0  0  0.3426  0  3.974719  0  0  0.355479  0  3.991  0  0  0.229876  0.333777  0  3.963599  0
C  C25  1  0.80761412  0.21343142  0.73721311  1  0  0.364802  0  3.706268  0  0  0.343125  0  3.974063  0  0  0.355997  0  3.990353  0  0  0.230013  0.33442  0  3.962822  0
C  C26  1  0.45542927  0.78657750  0.73724230  1  0  0.36433  0  3.706739  0  0  0.3426  0  3.974724  0  0  0.355478  0  3.991006  0  0  0.229893  0.333777  0  3.963601  0
C  C27  1  0.01909968  0.85150212  0.24350396  1  0  -0.207992  0  3.689464  0  0  -0.246168  0  3.932176  0  0  -0.248941  0  3.943254  0  0  -0.157392  -0.244262  0  3.924209  0
C  C28  1  0.73718705  0.14854025  0.24349557  1  0  -0.207334  0  3.688078  0  0  -0.245999  0  3.931013  0  0  -0.248735  0  3.942047  0  0  -0.157089  -0.243984  0  3.922942  0
C  C29  1  0.98090118  0.14849851  0.75649563  1  0  -0.207959  0  3.689429  0  0  -0.24614  0  3.932151  0  0  -0.248928  0  3.943246  0  0  -0.157383  -0.244235  0  3.924185  0
C  C30  1  0.26281200  0.85145929  0.75650459  1  0  -0.207283  0  3.687952  0  0  -0.245968  0  3.930901  0  0  -0.248698  0  3.941921  0  0  -0.1571  -0.243953  0  3.922828  0
C  C31  1  0.91003030  0.96627162  0.36822704  1  0  -0.082812  0  3.65668  0  0  -0.120545  0  3.912995  0  0  -0.121776  0  3.92773  0  0  -0.164235  -0.119345  0  3.90255  0
C  C32  1  0.72159489  0.03377495  0.36823089  1  0  -0.084289  0  3.65733  0  0  -0.120953  0  3.912409  0  0  -0.122226  0  3.927161  0  0  -0.164349  -0.119692  0  3.901914  0
C  C33  1  0.08997057  0.03372901  0.63177255  1  0  -0.08276  0  3.656689  0  0  -0.120512  0  3.913014  0  0  -0.121742  0  3.927753  0  0  -0.164235  -0.119312  0  3.902566  0
C  C34  1  0.27840522  0.96622460  0.63176821  1  0  -0.084459  0  3.65736  0  0  -0.121124  0  3.912454  0  0  -0.122397  0  3.927204  0  0  -0.164409  -0.119863  0  3.901958  0
N  N35  1  0.38124967  0.66524442  0.34967834  1  0  -0.089182  0  3.181285  0  0  -0.046725  0  3.477068  0  0  -0.0531  0  3.493202  0  0  -0.107313  -0.041431  0  3.465428  0
N  N36  1  0.26888177  0.33476973  0.34960169  1  0  -0.089586  0  3.182135  0  0  -0.046921  0  3.477716  0  0  -0.053299  0  3.493789  0  0  -0.107709  -0.041988  0  3.466299  0
N  N37  1  0.61875120  0.33475622  0.65032125  1  0  -0.089225  0  3.181299  0  0  -0.046761  0  3.47708  0  0  -0.053136  0  3.493213  0  0  -0.107339  -0.041467  0  3.465442  0
N  N38  1  0.73111803  0.66523090  0.65039895  1  0  -0.089564  0  3.182118  0  0  -0.046906  0  3.477707  0  0  -0.053286  0  3.493781  0  0  -0.107704  -0.041975  0  3.466289  0
N  N39  1  0.47969414  0.75531732  0.24730560  1  0  -0.093539  0  3.041797  0  0  -0.081359  0  3.326582  0  0  -0.07988  0  3.338664  0  0  -0.09384  -0.082024  0  3.317853  0
N  N40  1  0.27275959  0.24467092  0.24725399  1  0  -0.093222  0  3.0417  0  0  -0.081079  0  3.326179  0  0  -0.079589  0  3.338256  0  0  -0.093481  -0.081651  0  3.317579  0
N  N41  1  0.52030690  0.24468224  0.75269398  1  0  -0.093527  0  3.041774  0  0  -0.081346  0  3.326551  0  0  -0.079866  0  3.338635  0  0  -0.093807  -0.08201  0  3.317825  0
N  N42  1  0.72724022  0.75532971  0.75274664  1  0  -0.093236  0  3.041768  0  0  -0.081096  0  3.326259  0  0  -0.079605  0  3.338336  0  0  -0.093497  -0.08167  0  3.317658  0
N  N43  1  0.36403373  0.83296680  0.19151900  1  0  -0.352884  0  3.152166  0  0  -0.293181  0  3.438319  0  0  -0.31211  0  3.453836  0  0  -0.242777  -0.279157  0  3.426944  0
N  N44  1  0.44418061  0.16700910  0.19149688  1  0  -0.353021  0  3.152786  0  0  -0.29312  0  3.43872  0  0  -0.312122  0  3.454284  0  0  -0.243076  -0.279266  0  3.427519  0
N  N45  1  0.63596731  0.16703275  0.80848058  1  0  -0.352838  0  3.152118  0  0  -0.293134  0  3.43827  0  0  -0.312064  0  3.453786  0  0  -0.242786  -0.27911  0  3.426896  0
N  N46  1  0.55581937  0.83299045  0.80850375  1  0  -0.353037  0  3.152885  0  0  -0.293138  0  3.438824  0  0  -0.312139  0  3.454388  0  0  -0.243084  -0.279283  0  3.427621  0
N  N47  1  0.20104761  0.68161720  0.36246669  1  0  -0.321879  0  3.079458  0  0  -0.268356  0  3.356278  0  0  -0.28576  0  3.373867  0  0  -0.230302  -0.256121  0  3.343739  0
N  N48  1  0.43628626  0.31840002  0.36240539  1  0  -0.321607  0  3.078893  0  0  -0.268275  0  3.35594  0  0  -0.285649  0  3.373514  0  0  -0.230192  -0.255703  0  3.343247  0
N  N49  1  0.79895251  0.31838235  0.63753242  1  0  -0.321888  0  3.079511  0  0  -0.268378  0  3.356338  0  0  -0.285782  0  3.373923  0  0  -0.230319  -0.256143  0  3.343799  0
N  N50  1  0.56371372  0.68159953  0.63759525  1  0  -0.321598  0  3.078867  0  0  -0.26826  0  3.355908  0  0  -0.285633  0  3.37348  0  0  -0.23019  -0.255687  0  3.343211  0
Cl  Cl51  1  0.85143975  0.50004455  0.29691997  1  0  -0.542892  0  0.954877  0  0  -0.483593  0  1.22859  0  0  -0.500471  0  1.205522  0  0  -0.309225  -0.473075  0  1.244059  0
Cl  Cl52  1  0.14856023  0.49995500  0.70308067  1  0  -0.542906  0  0.9549  0  0  -0.48361  0  1.228617  0  0  -0.50049  0  1.205553  0  0  -0.309228  -0.47309  0  1.244082  0
O  O53  1  0.21107817  0.14010896  0.99987331  1  0  -0.789763  0  1.856943  0  0  -0.727131  0  2.063352  0  0  -0.747786  0  2.03281  0  0  -0.574768  -0.712932  0  2.085509  0
O  O54  1  0.78892164  0.85989166  0.00012732  1  0  -0.789761  0  1.856945  0  0  -0.727125  0  2.063354  0  0  -0.747776  0  2.032814  0  0  -0.574781  -0.712925  0  2.085511  0
