# generated using pymatgen
data_ZnH12(C5N2)2
_symmetry_space_group_name_H-M   'P 1'
_cell_length_a   7.32548401
_cell_length_b   8.80337251
_cell_length_c   8.80336927
_cell_angle_alpha   90.00006245
_cell_angle_beta   90.00018857
_cell_angle_gamma   90.00003480
_symmetry_Int_Tables_number   1
_chemical_formula_structural   ZnH12(C5N2)2
_chemical_formula_sum   'Zn2 H24 C20 N8'
_cell_volume   567.72016915
_cell_formula_units_Z   2
loop_
 _symmetry_equiv_pos_site_id
 _symmetry_equiv_pos_as_xyz
  1  'x, y, z'
loop_
 _atom_site_type_symbol
 _atom_site_label
 _atom_site_symmetry_multiplicity
 _atom_site_fract_x
 _atom_site_fract_y
 _atom_site_fract_z
 _atom_site_occupancy
 _atom_site_pbe_bader_spin_density
 _atom_site_pbe_cm5_charge
 _atom_site_pbe_ddec_charge
 _atom_site_pbe_ddec_spin_density
 _atom_site_pbe_ddec_sum_bond_order
 _atom_site_pbe_magmom
Zn  Zn0  1  0.00000000  0.00000114  0.00000000  1  0  0.738704  0.634033  0  2.548131  0
Zn  Zn1  1  0.49999896  0.00000067  0.99999963  1  0  0.738706  0.63404  0  2.548121  0
H  H2  1  0.82855887  0.65553925  0.90418486  1  0  0.090652  0.125417  0  1.035013  0
H  H3  1  0.82856126  0.34446257  0.09581692  1  0  0.090642  0.125414  0  1.03512  0
H  H4  1  0.67144013  0.34446297  0.90418674  1  0  0.090671  0.1254  0  1.035077  0
H  H5  1  0.32856194  0.09581469  0.34446067  1  0  0.090647  0.125412  0  1.035052  0
H  H6  1  0.17143846  0.09581482  0.65553907  1  0  0.090663  0.125427  0  1.03504  0
H  H7  1  0.17143541  0.90418099  0.34446316  1  0  0.09065  0.125421  0  1.03517  0
H  H8  1  0.32856011  0.90418460  0.65553859  1  0  0.090659  0.125428  0  1.035026  0
H  H9  1  0.67143865  0.65553763  0.09581460  1  0  0.090669  0.125422  0  1.035057  0
H  H10  1  0.94658490  0.71415423  0.73981957  1  0  0.094227  0.135362  0  1.006937  0
H  H11  1  0.94658926  0.28584538  0.26018025  1  0  0.094247  0.135389  0  1.006916  0
H  H12  1  0.55341346  0.28584668  0.73982107  1  0  0.094235  0.135386  0  1.006906  0
H  H13  1  0.44658958  0.26018010  0.28584359  1  0  0.094227  0.135379  0  1.006936  0
H  H14  1  0.05341230  0.26017910  0.71415633  1  0  0.094241  0.135386  0  1.006939  0
H  H15  1  0.05341300  0.73981551  0.28584444  1  0  0.094237  0.135362  0  1.006954  0
H  H16  1  0.44658650  0.73981925  0.71415486  1  0  0.09422  0.135366  0  1.006949  0
H  H17  1  0.55341130  0.71415614  0.26017881  1  0  0.094228  0.135367  0  1.006949  0
H  H18  1  0.96444589  0.52219942  0.80354169  1  0  0.093662  0.134022  0  1.004761  0
H  H19  1  0.96444878  0.47780247  0.19645819  1  0  0.093672  0.134035  0  1.004785  0
H  H20  1  0.53555408  0.47780269  0.80354334  1  0  0.093651  0.134003  0  1.004783  0
H  H21  1  0.46445087  0.19645804  0.47780076  1  0  0.093648  0.134008  0  1.004786  0
H  H22  1  0.03555097  0.19645796  0.52219908  1  0  0.09365  0.134004  0  1.004813  0
H  H23  1  0.03555110  0.80354005  0.47780278  1  0  0.093649  0.134013  0  1.004756  0
H  H24  1  0.46444708  0.80354018  0.52219887  1  0  0.093657  0.134029  0  1.004804  0
H  H25  1  0.53555017  0.52220012  0.19645876  1  0  0.093628  0.133984  0  1.004822  0
C  C26  1  0.24999931  0.58282270  0.99999847  1  0  -0.043857  -0.148903  0  4.095627  0
C  C27  1  0.24999789  0.41717823  0.99999838  1  0  -0.043847  -0.148901  0  4.095604  0
C  C28  1  0.74999941  0.99999673  0.41717594  1  0  -0.043887  -0.148906  0  4.095664  0
C  C29  1  0.74999973  0.99999682  0.58282388  1  0  -0.04394  -0.149066  0  4.095829  0
C  C30  1  0.12056067  0.68050792  0.93282861  1  0  0.086063  0.198358  0  4.028157  0
C  C31  1  0.12056293  0.31949126  0.06716894  1  0  0.086113  0.198345  0  4.028159  0
C  C32  1  0.37943763  0.31949294  0.93282763  1  0  0.086087  0.198369  0  4.028102  0
C  C33  1  0.62056306  0.06716777  0.31948993  1  0  0.086138  0.198402  0  4.028052  0
C  C34  1  0.87943677  0.06716917  0.68050774  1  0  0.086155  0.198452  0  4.028061  0
C  C35  1  0.87943637  0.93282586  0.31948962  1  0  0.08607  0.19826  0  4.028156  0
C  C36  1  0.62056408  0.93282826  0.68050786  1  0  0.086112  0.1984  0  4.028223  0
C  C37  1  0.37943606  0.68050865  0.06716949  1  0  0.086105  0.198313  0  4.02816  0
C  C38  1  0.95652162  0.64106298  0.84068888  1  0  -0.236024  -0.415033  0  3.959473  0
C  C39  1  0.95652427  0.35893891  0.15930983  1  0  -0.236088  -0.4151  0  3.959607  0
C  C40  1  0.54347577  0.35893917  0.84069157  1  0  -0.236048  -0.415038  0  3.959554  0
C  C41  1  0.45652486  0.15930858  0.35893715  1  0  -0.236024  -0.415043  0  3.959471  0
C  C42  1  0.04347558  0.15930863  0.64106266  1  0  -0.236072  -0.415087  0  3.959537  0
C  C43  1  0.04347800  0.84068938  0.35893695  1  0  -0.236007  -0.414992  0  3.959654  0
C  C44  1  0.45652294  0.84068851  0.64106132  1  0  -0.236  -0.415024  0  3.959505  0
C  C45  1  0.54347453  0.64106250  0.15930942  1  0  -0.236035  -0.415007  0  3.959546  0
N  N46  1  0.16988584  0.82605785  0.95903009  1  0  -0.291386  -0.262238  0  3.549484  0
N  N47  1  0.16988926  0.17394477  0.04096873  1  0  -0.291306  -0.262115  0  3.549441  0
N  N48  1  0.33011256  0.17394304  0.95903223  1  0  -0.291338  -0.262157  0  3.549393  0
N  N49  1  0.66988920  0.04096979  0.17394230  1  0  -0.291329  -0.262174  0  3.54936  0
N  N50  1  0.83011198  0.04096905  0.82605648  1  0  -0.291323  -0.262128  0  3.549395  0
N  N51  1  0.83011376  0.95903163  0.17394189  1  0  -0.291378  -0.26214  0  3.549382  0
N  N52  1  0.66988672  0.95903081  0.82605563  1  0  -0.291377  -0.26223  0  3.54952  0
N  N53  1  0.33011099  0.82605739  0.04096704  1  0  -0.29132  -0.262129  0  3.549442  0
