# generated using pymatgen
data_Co5H26(C11O16)2
_symmetry_space_group_name_H-M   'P 1'
_cell_length_a   11.01237185
_cell_length_b   12.52404255
_cell_length_c   15.55153319
_cell_angle_alpha   92.51202909
_cell_angle_beta   89.99935716
_cell_angle_gamma   90.00207686
_symmetry_Int_Tables_number   1
_chemical_formula_structural   Co5H26(C11O16)2
_chemical_formula_sum   'Co10 H52 C44 O64'
_cell_volume   2142.79721811
_cell_formula_units_Z   2
loop_
 _symmetry_equiv_pos_site_id
 _symmetry_equiv_pos_as_xyz
  1  'x, y, z'
loop_
 _atom_site_type_symbol
 _atom_site_label
 _atom_site_symmetry_multiplicity
 _atom_site_fract_x
 _atom_site_fract_y
 _atom_site_fract_z
 _atom_site_occupancy
 _atom_site_pbe_bader_charge
 _atom_site_pbe_bader_spin_density
 _atom_site_pbe_cm5_charge
 _atom_site_pbe_ddec_charge
 _atom_site_pbe_ddec_spin_density
 _atom_site_pbe_ddec_sum_bond_order
 _atom_site_pbe_magmom
Co  Co0  1  0.89932884  0.29310034  0.77241070  1  1.309377  2.62129  0.637964  1.030238  2.807942  2.264251  2.606
Co  Co1  1  0.99760398  0.50378122  0.71077160  1  1.318718  2.619845  0.646898  1.039867  2.810786  2.321602  2.607
Co  Co2  1  0.39934271  0.70694992  0.72758960  1  1.309579  2.621548  0.63835  1.030723  2.808236  2.265956  2.606
Co  Co3  1  0.49760470  0.49624246  0.78921491  1  1.318889  2.619654  0.646656  1.039472  2.810451  2.319472  2.606
Co  Co4  1  0.10067412  0.70694183  0.22759243  1  1.309212  2.621458  0.63805  1.030295  2.808083  2.265213  2.606
Co  Co5  1  0.00241804  0.49622810  0.28922352  1  1.318733  2.619771  0.646652  1.039454  2.810623  2.32043  2.607
Co  Co6  1  0.60064390  0.29307232  0.27241874  1  1.309619  2.621435  0.638104  1.030475  2.808086  2.264532  2.606
Co  Co7  1  0.50237737  0.50377963  0.21077800  1  1.318758  2.619796  0.64672  1.039529  2.810635  2.320291  2.607
Co  Co8  1  0.00001856  0.99998948  0.99999935  1  1.330945  2.640375  0.644088  1.088216  2.823371  2.280071  2.626
Co  Co9  1  0.49998355  0.99998928  0.50000229  1  1.330559  2.640497  0.643963  1.08795  2.823435  2.279324  2.626
H  H10  1  0.07163166  0.30916173  0.06353817  1  0.135217  0.000426  0.116696  0.13377  0.000147  0.98816  0.0
H  H11  1  0.93908478  0.92534582  0.83676951  1  0.620355  0.001645  0.334818  0.422933  0.000816  0.851874  0.001
H  H12  1  0.94841363  0.05435974  0.85016967  1  0.645666  0.000435  0.292026  0.384959  0.000258  0.955787  0.0
H  H13  1  0.17173597  0.83639287  0.96591963  1  0.648187  0.000653  0.292776  0.393106  0.000408  0.943924  0.001
H  H14  1  0.22149737  0.94299109  0.01210782  1  0.62869  7.2e-05  0.329993  0.419447  -0.000146  0.855076  0.0
H  H15  1  0.71326586  0.26583306  0.87833857  1  0.63017  0.000167  0.295713  0.393785  7.9e-05  0.936203  0.0
H  H16  1  0.66390220  0.27325629  0.78737864  1  0.628085  -2.8e-05  0.307298  0.400494  -0.000223  0.907359  0.0
H  H17  1  0.81051331  0.12861416  0.68017461  1  0.616944  0.000864  0.331671  0.414604  0.000498  0.855008  0.001
H  H18  1  0.80858431  0.22870349  0.62381117  1  0.643653  0.000119  0.300853  0.392111  -3.1e-05  0.938893  0.0
H  H19  1  0.10774841  0.53756892  0.56330199  1  0.656628  0.000803  0.287053  0.381765  0.000657  0.964773  0.001
H  H20  1  0.11301158  0.41308048  0.58794182  1  0.618262  -0.000602  0.32053  0.406292  -0.000766  0.873624  0.0
H  H21  1  0.94866324  0.67548131  0.61586577  1  0.627907  0.001381  0.327006  0.410899  0.000855  0.862458  0.001
H  H22  1  0.87770816  0.69124739  0.70550818  1  0.644695  0.00051  0.287427  0.382663  0.000445  0.963013  0.001
H  H23  1  0.57161531  0.69085532  0.43645596  1  0.134785  0.000426  0.116609  0.133628  0.000147  0.988285  0.0
H  H24  1  0.43909916  0.07462745  0.66323532  1  0.619923  0.001642  0.334885  0.423176  0.000814  0.851695  0.001
H  H25  1  0.44839391  0.94560266  0.64983670  1  0.645929  0.000436  0.292028  0.384968  0.000259  0.95589  0.0
H  H26  1  0.67173210  0.16360369  0.53406881  1  0.648013  0.000652  0.292775  0.392989  0.000406  0.944054  0.001
H  H27  1  0.72150428  0.05700126  0.48789658  1  0.628442  7.2e-05  0.330029  0.419425  -0.000146  0.855138  0.0
H  H28  1  0.21330964  0.73412752  0.62167357  1  0.630136  0.000169  0.295802  0.393923  7.9e-05  0.936028  0.0
H  H29  1  0.16394979  0.72669141  0.71262131  1  0.62805  -2.7e-05  0.307492  0.400585  -0.000222  0.907474  0.0
H  H30  1  0.31052529  0.87133960  0.81980565  1  0.617398  0.000861  0.331866  0.414743  0.000496  0.854602  0.001
H  H31  1  0.30860136  0.77128213  0.87616553  1  0.643621  0.000125  0.300969  0.392269  -2.7e-05  0.938712  0.0
H  H32  1  0.60775267  0.46242688  0.93673261  1  0.657362  0.000801  0.286903  0.381584  0.000656  0.965008  0.001
H  H33  1  0.61304672  0.58691785  0.91208960  1  0.617751  -0.000601  0.320447  0.406347  -0.000766  0.873845  0.0
H  H34  1  0.44866916  0.32446436  0.88414398  1  0.627617  0.001378  0.327093  0.411128  0.000852  0.862009  0.001
H  H35  1  0.37769024  0.30871270  0.79449229  1  0.644357  0.000511  0.287316  0.382574  0.000445  0.963152  0.001
H  H36  1  0.92836494  0.69085564  0.93646232  1  0.134869  0.000426  0.116651  0.133691  0.000147  0.988132  0.0
H  H37  1  0.06093906  0.07463004  0.16323493  1  0.620173  0.001646  0.334813  0.423111  0.000817  0.851856  0.001
H  H38  1  0.05160567  0.94561779  0.14984125  1  0.645989  0.000436  0.291996  0.384892  0.000259  0.955962  0.0
H  H39  1  0.82827880  0.16359011  0.03407730  1  0.648225  0.000653  0.292735  0.39294  0.000408  0.944116  0.001
H  H40  1  0.77850377  0.05699440  0.98790076  1  0.628541  7.3e-05  0.330027  0.419505  -0.000145  0.855014  0.0
H  H41  1  0.28671348  0.73415245  0.12167130  1  0.630289  0.000168  0.295788  0.393894  8e-05  0.936045  0.0
H  H42  1  0.33608078  0.72672119  0.21262777  1  0.628249  -2.7e-05  0.307357  0.400554  -0.000222  0.907453  0.0
H  H43  1  0.18947330  0.87137188  0.31980890  1  0.617033  0.000862  0.331791  0.414692  0.000497  0.854909  0.001
H  H44  1  0.19139867  0.77127541  0.37617728  1  0.643786  0.000121  0.300923  0.392236  -3e-05  0.938725  0.0
H  H45  1  0.89224910  0.46243753  0.43672455  1  0.657395  0.000802  0.287007  0.381753  0.000656  0.964835  0.001
H  H46  1  0.88696595  0.58691075  0.41208171  1  0.61794  -0.000601  0.320421  0.406342  -0.000766  0.873681  0.0
H  H47  1  0.05134335  0.32447219  0.38413868  1  0.627727  0.001381  0.327072  0.411175  0.000854  0.862011  0.001
H  H48  1  0.12230387  0.30871655  0.29450235  1  0.644895  0.00051  0.287371  0.382668  0.000446  0.963044  0.001
H  H49  1  0.42839491  0.30914932  0.56354995  1  0.134776  0.000426  0.116681  0.133742  0.000147  0.98811  0.0
H  H50  1  0.56089835  0.92534748  0.33675559  1  0.620113  0.001643  0.334735  0.422918  0.000814  0.851798  0.001
H  H51  1  0.55157908  0.05436752  0.35015922  1  0.646175  0.000434  0.292097  0.384979  0.000258  0.955789  0.0
H  H52  1  0.32825814  0.83637368  0.46592668  1  0.647875  0.000652  0.292697  0.393072  0.000407  0.943987  0.001
H  H53  1  0.27848596  0.94298174  0.51210292  1  0.62835  7.1e-05  0.329939  0.41941  -0.000146  0.855181  0.0
H  H54  1  0.78672056  0.26584835  0.37833152  1  0.630161  0.000167  0.295628  0.393673  7.8e-05  0.936347  0.0
H  H55  1  0.83607677  0.27326843  0.28737881  1  0.628303  -2.7e-05  0.307344  0.400581  -0.000223  0.907179  0.0
H  H56  1  0.68948765  0.12863927  0.18018023  1  0.617118  0.00086  0.331671  0.414552  0.000496  0.854855  0.001
H  H57  1  0.69141613  0.22868951  0.12381629  1  0.643661  0.000123  0.300867  0.392175  -2.8e-05  0.938823  0.0
H  H58  1  0.39224847  0.53758347  0.06328439  1  0.657419  0.0008  0.28699  0.381649  0.000656  0.964904  0.001
H  H59  1  0.38696804  0.41308370  0.08792587  1  0.617888  -0.000602  0.320554  0.406453  -0.000767  0.873663  0.0
H  H60  1  0.55131473  0.67550748  0.11585713  1  0.627811  0.001378  0.327127  0.411306  0.000852  0.861845  0.001
H  H61  1  0.62229547  0.69125521  0.20551578  1  0.644616  0.00051  0.287425  0.382675  0.000445  0.963007  0.001
C  C62  1  0.11472685  0.30991312  0.92857442  1  0.048228  0.003938  -0.011945  -0.049957  0.001684  3.971789  0.003
C  C63  1  0.15624737  0.37168951  0.86151423  1  -0.023784  0.001647  -0.004142  -0.08592  -0.000371  3.978082  0.001
C  C64  1  0.19629978  0.47662798  0.88027928  1  0.039889  0.004881  -0.010606  -0.094613  0.001932  3.967975  0.004
C  C65  1  0.19316089  0.52167716  0.96460259  1  -0.055474  0.001875  0.006257  -0.035137  0.00101  3.861502  0.001
C  C66  1  0.14432143  0.46058190  0.03040893  1  -0.024112  0.009328  -0.016417  -0.070737  0.004793  3.95461  0.007
C  C67  1  0.11019324  0.35471801  0.01224423  1  -0.058583  0.001918  -0.065955  -0.076191  0.000891  3.90422  0.001
C  C68  1  0.06260516  0.20052660  0.91367555  1  1.557194  0.001445  0.226778  0.610929  -0.000386  4.131468  0.001
C  C69  1  0.16044782  0.32565044  0.77009283  1  1.60448  0.010502  0.220419  0.589503  0.006775  4.193977  0.008
C  C70  1  0.23450601  0.54499858  0.80883463  1  1.581137  -0.000738  0.228504  0.608289  -0.002431  4.150375  0.0
C  C71  1  0.24091845  0.63431060  0.98131108  1  1.632812  0.000584  0.219331  0.608789  0.000313  4.190149  0.0
C  C72  1  0.11099385  0.51036282  0.11637951  1  1.570085  -0.006015  0.21752  0.589164  -0.008289  4.17123  -0.006
C  C73  1  0.61470765  0.69009627  0.57143929  1  0.047925  0.003928  -0.011932  -0.049931  0.00168  3.972006  0.003
C  C74  1  0.65624372  0.62832748  0.63848842  1  -0.024771  0.001649  -0.004334  -0.086141  -0.000369  3.979041  0.001
C  C75  1  0.69632663  0.52341238  0.61969542  1  0.040649  0.004875  -0.010486  -0.094272  0.001927  3.968387  0.004
C  C76  1  0.69317079  0.47834561  0.53538128  1  -0.055998  0.001879  0.006159  -0.035447  0.001013  3.862079  0.001
C  C77  1  0.64432201  0.53944707  0.46958687  1  -0.022715  0.009319  -0.016305  -0.070488  0.00479  3.95505  0.007
C  C78  1  0.61017971  0.64530757  0.48776076  1  -0.057847  0.001924  -0.065822  -0.076009  0.000895  3.904236  0.001
C  C79  1  0.56254118  0.79944048  0.58634703  1  1.554902  0.001442  0.226423  0.61039  -0.000395  4.131014  0.001
C  C80  1  0.66044200  0.67437369  0.72989070  1  1.605376  0.010503  0.220364  0.589293  0.006778  4.194388  0.008
C  C81  1  0.73454536  0.45503575  0.69113443  1  1.581077  -0.000706  0.228533  0.608136  -0.002397  4.150878  0.0
C  C82  1  0.74090946  0.36570168  0.51867016  1  1.633469  0.000583  0.219519  0.608943  0.000313  4.189397  0.0
C  C83  1  0.61099274  0.48967151  0.38362059  1  1.569708  -0.006001  0.217667  0.589171  -0.008275  4.17107  -0.006
C  C84  1  0.88528428  0.69009550  0.07143032  1  0.047323  0.003933  -0.011984  -0.050153  0.001681  3.972054  0.003
C  C85  1  0.84375377  0.62832466  0.13848617  1  -0.023874  0.001647  -0.004217  -0.085929  -0.00037  3.978523  0.001
C  C86  1  0.80368955  0.52339639  0.11970212  1  0.040519  0.004878  -0.010539  -0.094338  0.00193  3.96831  0.004
C  C87  1  0.80683843  0.47832888  0.03538343  1  -0.054938  0.001876  0.006184  -0.035433  0.001011  3.861716  0.001
C  C88  1  0.85568697  0.53942896  0.96957979  1  -0.02441  0.00933  -0.016362  -0.070488  0.004794  3.954603  0.007
C  C89  1  0.88980790  0.64529300  0.98775864  1  -0.057915  0.001921  -0.065819  -0.075967  0.000893  3.904081  0.001
C  C90  1  0.93743230  0.79946132  0.08633567  1  1.556674  0.001451  0.226724  0.610912  -0.000388  4.131245  0.001
C  C91  1  0.83955786  0.67436691  0.22990508  1  1.604828  0.010499  0.220263  0.589097  0.006773  4.194084  0.008
C  C92  1  0.76546607  0.45503451  0.19113994  1  1.581443  -0.00071  0.228529  0.608232  -0.002399  4.150605  0.0
C  C93  1  0.75908541  0.36569553  0.01868394  1  1.632711  0.000584  0.219375  0.608983  0.000313  4.189785  0.0
C  C94  1  0.88902999  0.48966635  0.88360267  1  1.567915  -0.00603  0.217518  0.588699  -0.00831  4.171087  -0.006
C  C95  1  0.38527623  0.30990839  0.42856855  1  0.047011  0.003932  -0.011976  -0.049966  0.001681  3.971789  0.003
C  C96  1  0.34375288  0.37168432  0.36151383  1  -0.02428  0.001644  -0.004331  -0.086263  -0.000373  3.978664  0.001
C  C97  1  0.30368268  0.47660890  0.38029618  1  0.040295  0.004877  -0.010507  -0.094364  0.001928  3.968009  0.004
C  C98  1  0.30684761  0.52166770  0.46461202  1  -0.055327  0.001873  0.006124  -0.03534  0.001009  3.861882  0.001
C  C99  1  0.35568730  0.46056950  0.53041295  1  -0.024396  0.009321  -0.016293  -0.070432  0.004789  3.954712  0.007
C  C100  1  0.38982233  0.35470104  0.51224205  1  -0.057352  0.001918  -0.065811  -0.076074  0.000891  3.903933  0.001
C  C101  1  0.43741365  0.20054503  0.41366347  1  1.556915  0.001442  0.226535  0.610632  -0.000391  4.131226  0.001
C  C102  1  0.33954189  0.32564044  0.27010520  1  1.604922  0.010494  0.220501  0.589605  0.006771  4.193865  0.008
C  C103  1  0.26547939  0.54498705  0.30884949  1  1.581776  -0.000735  0.228401  0.607919  -0.00243  4.150333  0.0
C  C104  1  0.25910258  0.63430527  0.48132682  1  1.633514  0.000584  0.219454  0.608795  0.000313  4.189597  0.0
C  C105  1  0.38899841  0.51035701  0.61637701  1  1.569801  -0.006005  0.217523  0.589204  -0.008275  4.171265  -0.006
O  O106  1  0.08481660  0.13552974  0.97182035  1  -1.158104  0.063718  -0.31152  -0.558543  0.032209  2.350361  0.053
O  O107  1  0.99694071  0.17876720  0.84663845  1  -1.163422  0.046998  -0.299703  -0.562111  0.023905  2.287148  0.041
O  O108  1  0.06445097  0.33941731  0.72280967  1  -1.156872  0.097652  -0.318148  -0.614005  0.050128  2.459596  0.081
O  O109  1  0.25374032  0.27884022  0.74336365  1  -1.133836  0.029004  -0.283541  -0.468235  0.01399  2.125139  0.024
O  O110  1  0.16267031  0.56086758  0.74763327  1  -1.147868  0.082733  -0.285362  -0.531272  0.042857  2.416142  0.071
O  O111  1  0.34093078  0.58754040  0.81360831  1  -1.163109  0.094236  -0.308339  -0.604659  0.049632  2.543169  0.08
O  O112  1  0.19124523  0.70819842  0.94001182  1  -1.196916  0.00282  -0.315534  -0.560013  0.001034  2.178126  0.002
O  O113  1  0.33095168  0.64630583  0.03195417  1  -1.174201  0.003772  -0.311222  -0.552307  0.001506  2.203672  0.003
O  O114  1  0.07555113  0.44969415  0.17470745  1  -1.148322  0.073163  -0.303221  -0.551298  0.036658  2.39611  0.065
O  O115  1  0.11415234  0.61223813  0.12274944  1  -1.140726  0.076537  -0.304501  -0.580039  0.039047  2.517237  0.065
O  O116  1  0.91948051  0.98600600  0.87542943  1  -1.22668  0.055345  -0.565355  -0.777407  0.028077  2.089714  0.043
O  O117  1  0.16454114  0.91660052  0.96817325  1  -1.233577  0.053317  -0.569969  -0.784566  0.026911  2.086818  0.044
O  O118  1  0.72522038  0.23398634  0.81911071  1  -1.212209  0.054941  -0.577343  -0.768555  0.028011  2.068421  0.045
O  O119  1  0.85879584  0.19065945  0.66608072  1  -1.196259  0.053223  -0.558201  -0.727347  0.027253  2.0937  0.042
O  O120  1  0.06065357  0.47576043  0.58775828  1  -1.222909  0.063659  -0.567348  -0.746375  0.033061  2.171215  0.05
O  O121  1  0.95532869  0.66403463  0.67717069  1  -1.234595  0.051575  -0.561381  -0.758536  0.026355  2.110611  0.042
O  O122  1  0.58476885  0.86441965  0.52820090  1  -1.156668  0.063698  -0.31107  -0.558028  0.032195  2.350113  0.053
O  O123  1  0.49684775  0.82121040  0.65337567  1  -1.163414  0.047082  -0.299794  -0.561939  0.023952  2.286956  0.041
O  O124  1  0.56442936  0.66063570  0.77717163  1  -1.157307  0.097708  -0.317958  -0.613715  0.050156  2.459913  0.081
O  O125  1  0.75374056  0.72116700  0.75663020  1  -1.134001  0.029019  -0.283641  -0.468293  0.013997  2.124962  0.024
O  O126  1  0.66273898  0.43914130  0.75233759  1  -1.147794  0.082673  -0.285336  -0.531067  0.04283  2.416058  0.071
O  O127  1  0.84099389  0.41250461  0.68637175  1  -1.163214  0.094316  -0.308381  -0.604827  0.049668  2.543527  0.08
O  O128  1  0.69121807  0.29182276  0.55997845  1  -1.196545  0.002816  -0.315674  -0.560103  0.001032  2.177406  0.002
O  O129  1  0.83096920  0.35372590  0.46804466  1  -1.174873  0.00377  -0.31115  -0.552232  0.001504  2.203777  0.003
O  O130  1  0.57554973  0.55035518  0.32530688  1  -1.148509  0.073175  -0.303244  -0.551341  0.036664  2.396221  0.065
O  O131  1  0.61414897  0.38779604  0.37722425  1  -1.140844  0.076552  -0.304655  -0.580068  0.039043  2.516796  0.065
O  O132  1  0.41946301  0.01396194  0.62458377  1  -1.226359  0.055355  -0.565375  -0.777666  0.028084  2.089589  0.043
O  O133  1  0.66455582  0.08339677  0.53183070  1  -1.233199  0.053278  -0.569991  -0.784398  0.02689  2.086733  0.044
O  O134  1  0.22524643  0.76599536  0.68089872  1  -1.212216  0.054991  -0.577584  -0.768725  0.028028  2.068763  0.045
O  O135  1  0.35880507  0.80929729  0.83388444  1  -1.19665  0.053361  -0.55844  -0.727526  0.027328  2.094144  0.042
O  O136  1  0.56065891  0.52425155  0.91228619  1  -1.223217  0.063533  -0.567145  -0.746395  0.032992  2.170793  0.05
O  O137  1  0.45534052  0.33591680  0.82283531  1  -1.234153  0.051534  -0.561394  -0.758736  0.026339  2.109413  0.042
O  O138  1  0.91521904  0.86446469  0.02820263  1  -1.157525  0.063717  -0.311337  -0.558353  0.032204  2.350222  0.053
O  O139  1  0.00311037  0.82122707  0.15336845  1  -1.163738  0.047052  -0.29985  -0.562118  0.023935  2.287465  0.041
O  O140  1  0.93556652  0.66063277  0.27718597  1  -1.156864  0.097672  -0.317933  -0.613581  0.05014  2.459529  0.081
O  O141  1  0.74624629  0.72114125  0.25664160  1  -1.134  0.029  -0.283539  -0.468165  0.013987  2.125097  0.024
O  O142  1  0.83726818  0.43916082  0.25235210  1  -1.147776  0.082664  -0.285313  -0.531049  0.042833  2.415644  0.071
O  O143  1  0.65902586  0.41248796  0.18637321  1  -1.163459  0.094293  -0.308382  -0.604874  0.049659  2.542961  0.08
O  O144  1  0.80877226  0.29181734  0.05998669  1  -1.196754  0.002819  -0.315595  -0.560083  0.001033  2.177643  0.002
O  O145  1  0.66903584  0.35370362  0.96805317  1  -1.174229  0.003771  -0.311124  -0.552292  0.001505  2.20365  0.003
O  O146  1  0.92448452  0.55033503  0.82527602  1  -1.14655  0.073178  -0.303198  -0.551233  0.036675  2.396359  0.065
O  O147  1  0.88586515  0.38778877  0.87724553  1  -1.140866  0.076566  -0.304526  -0.579637  0.039051  2.516632  0.065
O  O148  1  0.08053334  0.01396984  0.12457308  1  -1.226714  0.055345  -0.565325  -0.777596  0.02808  2.089857  0.043
O  O149  1  0.83547090  0.08338968  0.03182645  1  -1.23362  0.053305  -0.569945  -0.784452  0.026892  2.08684  0.044
O  O150  1  0.27476986  0.76599756  0.18089847  1  -1.212401  0.054962  -0.577384  -0.768551  0.028023  2.068834  0.045
O  O151  1  0.14120712  0.80932424  0.33390787  1  -1.19651  0.053306  -0.558323  -0.727475  0.027295  2.094088  0.042
O  O152  1  0.93935938  0.52424687  0.41227279  1  -1.223513  0.063583  -0.567195  -0.746504  0.033018  2.17086  0.05
O  O153  1  0.04466700  0.33593642  0.32283168  1  -1.23453  0.05153  -0.56137  -0.758793  0.026336  2.109654  0.042
O  O154  1  0.41519325  0.13556520  0.47182309  1  -1.157561  0.063711  -0.311163  -0.558184  0.032204  2.349691  0.053
O  O155  1  0.50307621  0.17876942  0.34662567  1  -1.163802  0.047033  -0.299796  -0.562052  0.023922  2.287368  0.041
O  O156  1  0.43553909  0.33940306  0.22281018  1  -1.156842  0.097677  -0.318155  -0.613968  0.050137  2.459553  0.081
O  O157  1  0.24624969  0.27882954  0.24336455  1  -1.134099  0.029008  -0.283581  -0.468319  0.013991  2.124889  0.024
O  O158  1  0.33729576  0.56088068  0.24764503  1  -1.14814  0.082712  -0.28532  -0.530961  0.042848  2.415905  0.071
O  O159  1  0.15903903  0.58753111  0.31362541  1  -1.163429  0.09427  -0.308227  -0.604548  0.049648  2.543242  0.08
O  O160  1  0.30877217  0.70820347  0.44002873  1  -1.196672  0.002819  -0.315614  -0.560029  0.001033  2.177843  0.002
O  O161  1  0.16905918  0.64627557  0.53196373  1  -1.174678  0.003773  -0.311156  -0.552272  0.001506  2.203779  0.003
O  O162  1  0.42442598  0.44967178  0.67469453  1  -1.148134  0.073179  -0.303211  -0.551314  0.036665  2.395896  0.065
O  O163  1  0.38584763  0.61223267  0.62279135  1  -1.141008  0.076562  -0.304585  -0.580256  0.039057  2.517712  0.065
O  O164  1  0.58052178  0.98601461  0.37540975  1  -1.226809  0.055322  -0.565282  -0.777352  0.028065  2.089386  0.043
O  O165  1  0.33543261  0.91658939  0.46816440  1  -1.232915  0.053314  -0.569858  -0.784485  0.026909  2.086644  0.044
O  O166  1  0.77477196  0.23397573  0.31910816  1  -1.212521  0.05494  -0.577302  -0.768576  0.028003  2.068239  0.045
O  O167  1  0.64119153  0.19067351  0.16609285  1  -1.196461  0.053282  -0.558168  -0.727311  0.027283  2.093723  0.042
O  O168  1  0.43933860  0.47575950  0.08772184  1  -1.22335  0.0636  -0.567288  -0.746459  0.033027  2.170882  0.05
O  O169  1  0.54465426  0.66406781  0.17716488  1  -1.234367  0.051557  -0.561484  -0.758953  0.026354  2.10955  0.042
