# generated using pymatgen
data_CsCu3H24C12S2(IO)4
_symmetry_space_group_name_H-M   'P 1'
_cell_length_a   10.37001669
_cell_length_b   10.37003833
_cell_length_c   13.97886939
_cell_angle_alpha   72.47440378
_cell_angle_beta   72.47472099
_cell_angle_gamma   70.00164607
_symmetry_Int_Tables_number   1
_chemical_formula_structural   CsCu3H24C12S2(IO)4
_chemical_formula_sum   'Cs2 Cu6 H48 C24 S4 I8 O8'
_cell_volume   1313.69640021
_cell_formula_units_Z   2
loop_
 _symmetry_equiv_pos_site_id
 _symmetry_equiv_pos_as_xyz
  1  'x, y, z'
loop_
 _atom_site_type_symbol
 _atom_site_label
 _atom_site_symmetry_multiplicity
 _atom_site_fract_x
 _atom_site_fract_y
 _atom_site_fract_z
 _atom_site_occupancy
 _atom_site_hle17_bader_spin_density
 _atom_site_hle17_ddec_charge
 _atom_site_hle17_ddec_spin_density
 _atom_site_hle17_ddec_sum_bond_order
 _atom_site_hle17_magmom
 _atom_site_hse06_10hf_bader_spin_density
 _atom_site_hse06_10hf_ddec_charge
 _atom_site_hse06_10hf_ddec_spin_density
 _atom_site_hse06_10hf_ddec_sum_bond_order
 _atom_site_hse06_10hf_magmom
 _atom_site_hse06_bader_spin_density
 _atom_site_hse06_ddec_charge
 _atom_site_hse06_ddec_spin_density
 _atom_site_hse06_ddec_sum_bond_order
 _atom_site_hse06_magmom
 _atom_site_pbe_bader_spin_density
 _atom_site_pbe_cm5_charge
 _atom_site_pbe_ddec_charge
 _atom_site_pbe_ddec_spin_density
 _atom_site_pbe_ddec_sum_bond_order
 _atom_site_pbe_magmom
Cs  Cs0  1  0.76597261  0.76596876  0.21660177  1  0  0.882499  0  0.616179  0  0  0.790959  0  0.881562  0  0  0.80764  0  0.859047  0  0  0.645016  0.780441  0  0.895051  0
Cs  Cs1  1  0.23402900  0.23402807  0.78339760  1  0  0.882499  0  0.616171  0  0  0.790967  0  0.881561  0  0  0.807639  0  0.859039  0  0  0.645022  0.78044  0  0.89504  0
Cu  Cu2  1  0.37527098  0.62472596  0.49999957  1  0  0.205651  0  2.208149  0  0  0.145866  0  2.676798  0  0  0.163757  0  2.616182  0  0  0.141163  0.135076  0  2.717921  0
Cu  Cu3  1  0.62472659  0.37527082  0.49999929  1  0  0.205653  0  2.208174  0  0  0.145877  0  2.676807  0  0  0.163766  0  2.616193  0  0  0.141175  0.135086  0  2.717935  0
Cu  Cu4  1  0.35573902  0.63835351  0.30351755  1  0  0.181587  0  2.284207  0  0  0.116308  0  2.765175  0  0  0.127713  0  2.71477  0  0  0.185907  0.109817  0  2.798876  0
Cu  Cu5  1  0.36164529  0.64426351  0.69648413  1  0  0.181609  0  2.284211  0  0  0.116326  0  2.765183  0  0  0.127742  0  2.714793  0  0  0.185942  0.109841  0  2.798873  0
Cu  Cu6  1  0.64426200  0.36164544  0.69648363  1  0  0.181606  0  2.284182  0  0  0.116326  0  2.765145  0  0  0.127744  0  2.714752  0  0  0.185934  0.109836  0  2.798849  0
Cu  Cu7  1  0.63835412  0.35573753  0.30351693  1  0  0.181572  0  2.284254  0  0  0.11629  0  2.765228  0  0  0.127695  0  2.714826  0  0  0.185915  0.109804  0  2.798921  0
H  H8  1  0.72436487  0.90926757  0.52102240  1  0  0.049656  0  0.929371  0  0  0.063075  0  0.995693  0  0  0.063396  0  0.995708  0  0  0.086236  0.062062  0  0.997156  0
H  H9  1  0.09072620  0.27563454  0.47897776  1  0  0.049622  0  0.929469  0  0  0.063064  0  0.995761  0  0  0.063379  0  0.995776  0  0  0.086229  0.062052  0  0.997226  0
H  H10  1  0.27563413  0.09073135  0.47897709  1  0  0.049654  0  0.929365  0  0  0.063086  0  0.995675  0  0  0.063407  0  0.995687  0  0  0.086244  0.062073  0  0.997139  0
H  H11  1  0.90926877  0.72436435  0.52102408  1  0  0.049659  0  0.929334  0  0  0.063082  0  0.995651  0  0  0.063404  0  0.995662  0  0  0.086242  0.062069  0  0.997115  0
H  H12  1  0.81830607  0.02832354  0.43378435  1  0  0.057253  0  0.93455  0  0  0.070117  0  1.000131  0  0  0.070932  0  0.999412  0  0  0.086869  0.069104  0  1.000564  0
H  H13  1  0.97167095  0.18169557  0.56621656  1  0  0.057265  0  0.934612  0  0  0.070134  0  1.000182  0  0  0.070948  0  0.999466  0  0  0.086884  0.069121  0  1.00062  0
H  H14  1  0.18169756  0.97167331  0.56621457  1  0  0.057272  0  0.934514  0  0  0.070132  0  1.0001  0  0  0.070944  0  0.999387  0  0  0.086883  0.069117  0  1.000536  0
H  H15  1  0.02832443  0.81830542  0.43378399  1  0  0.057276  0  0.934508  0  0  0.070114  0  1.000117  0  0  0.070931  0  0.999395  0  0  0.086875  0.0691  0  1.00055  0
H  H16  1  0.57950000  0.95718239  0.38961647  1  0  0.087103  0  0.971742  0  0  0.098291  0  1.04455  0  0  0.100031  0  1.043956  0  0  0.0874  0.097363  0  1.044406  0
H  H17  1  0.04281710  0.42049741  0.61038314  1  0  0.087029  0  0.971888  0  0  0.098247  0  1.044655  0  0  0.099988  0  1.044061  0  0  0.087374  0.09732  0  1.044513  0
H  H18  1  0.42049880  0.04282074  0.61038140  1  0  0.087094  0  0.971767  0  0  0.098284  0  1.04458  0  0  0.100025  0  1.043987  0  0  0.087407  0.097356  0  1.044435  0
H  H19  1  0.95718351  0.57949942  0.38961717  1  0  0.08704  0  0.971844  0  0  0.098271  0  1.044619  0  0  0.100013  0  1.044024  0  0  0.087388  0.097345  0  1.044479  0
H  H20  1  0.55328211  0.09953991  0.44641427  1  0  0.09352  0  0.977184  0  0  0.109873  0  1.041029  0  0  0.110246  0  1.042351  0  0  0.083561  0.109061  0  1.040768  0
H  H21  1  0.90045814  0.44672035  0.55358563  1  0  0.09351  0  0.977188  0  0  0.109852  0  1.04104  0  0  0.110226  0  1.042365  0  0  0.083555  0.109043  0  1.040785  0
H  H22  1  0.44671972  0.90046326  0.55358505  1  0  0.093494  0  0.977119  0  0  0.109813  0  1.041012  0  0  0.110186  0  1.042338  0  0  0.083537  0.109002  0  1.04075  0
H  H23  1  0.09954229  0.55328070  0.44641521  1  0  0.093526  0  0.977125  0  0  0.109871  0  1.041  0  0  0.110245  0  1.042324  0  0  0.083554  0.109061  0  1.040742  0
H  H24  1  0.43091532  0.26141530  0.24750004  1  0  0.087723  0  0.968316  0  0  0.103245  0  1.032126  0  0  0.104336  0  1.031903  0  0  0.085897  0.101976  0  1.033266  0
H  H25  1  0.73858570  0.56908325  0.75250016  1  0  0.087723  0  0.968296  0  0  0.103244  0  1.032109  0  0  0.104331  0  1.031897  0  0  0.085891  0.101985  0  1.033238  0
H  H26  1  0.56908279  0.73858678  0.75250180  1  0  0.087704  0  0.968323  0  0  0.103234  0  1.032127  0  0  0.10432  0  1.031922  0  0  0.085894  0.101977  0  1.033258  0
H  H27  1  0.26141473  0.43091780  0.24750139  1  0  0.087667  0  0.968324  0  0  0.103211  0  1.032143  0  0  0.104285  0  1.031936  0  0  0.08588  0.101955  0  1.033268  0
H  H28  1  0.47253423  0.07644751  0.25925323  1  0  0.098799  0  0.983922  0  0  0.116025  0  1.043647  0  0  0.117663  0  1.043676  0  0  0.086545  0.114266  0  1.044503  0
H  H29  1  0.92355178  0.52746550  0.74074759  1  0  0.09885  0  0.983954  0  0  0.116081  0  1.043649  0  0  0.117721  0  1.043678  0  0  0.086573  0.114331  0  1.044495  0
H  H30  1  0.52746619  0.92355354  0.74074831  1  0  0.098814  0  0.983919  0  0  0.116053  0  1.043619  0  0  0.117696  0  1.043653  0  0  0.086566  0.114312  0  1.04446  0
H  H31  1  0.07644834  0.47253660  0.25925236  1  0  0.098829  0  0.983882  0  0  0.116064  0  1.043615  0  0  0.1177  0  1.043638  0  0  0.086558  0.114304  0  1.044476  0
H  H32  1  0.60534267  0.26993676  0.06982787  1  0  0.042766  0  0.94758  0  0  0.053683  0  1.022597  0  0  0.054183  0  1.02213  0  0  0.086069  0.053175  0  1.022843  0
H  H33  1  0.73006414  0.39465418  0.93017239  1  0  0.042741  0  0.947555  0  0  0.053663  0  1.022602  0  0  0.054164  0  1.022134  0  0  0.086064  0.053154  0  1.022849  0
H  H34  1  0.39465806  0.73006324  0.93017385  1  0  0.042741  0  0.947612  0  0  0.053678  0  1.02263  0  0  0.054173  0  1.022164  0  0  0.086067  0.05317  0  1.02288  0
H  H35  1  0.26993841  0.60535006  0.06982867  1  0  0.04276  0  0.947658  0  0  0.053646  0  1.022682  0  0  0.054151  0  1.022218  0  0  0.086077  0.053143  0  1.02292  0
H  H36  1  0.44549325  0.23510327  0.07987864  1  0  0.042266  0  0.942902  0  0  0.056527  0  1.010314  0  0  0.057266  0  1.009297  0  0  0.08843  0.055862  0  1.011017  0
H  H37  1  0.76489611  0.55450427  0.92012226  1  0  0.042248  0  0.942913  0  0  0.05654  0  1.010317  0  0  0.05728  0  1.0093  0  0  0.088446  0.055876  0  1.01102  0
H  H38  1  0.55450818  0.76489779  0.92012125  1  0  0.042247  0  0.942879  0  0  0.056533  0  1.010294  0  0  0.057267  0  1.009279  0  0  0.088425  0.055867  0  1.011  0
H  H39  1  0.23510906  0.44549788  0.07987797  1  0  0.04232  0  0.942954  0  0  0.056554  0  1.010358  0  0  0.057297  0  1.009344  0  0  0.088443  0.055887  0  1.011063  0
H  H40  1  0.59192608  0.14125042  0.92794823  1  0  0.051064  0  0.959129  0  0  0.062059  0  1.033654  0  0  0.062653  0  1.032799  0  0  0.087796  0.061197  0  1.034815  0
H  H41  1  0.85874746  0.40807154  0.07205208  1  0  0.051148  0  0.959091  0  0  0.062119  0  1.033634  0  0  0.062679  0  1.032807  0  0  0.087809  0.061255  0  1.034796  0
H  H42  1  0.40807394  0.85874851  0.07205318  1  0  0.051104  0  0.959149  0  0  0.062086  0  1.033684  0  0  0.062677  0  1.03283  0  0  0.087814  0.061222  0  1.034845  0
H  H43  1  0.14125184  0.59192633  0.92794830  1  0  0.051089  0  0.959124  0  0  0.06208  0  1.033649  0  0  0.062672  0  1.032793  0  0  0.087803  0.061216  0  1.034809  0
H  H44  1  0.75698260  0.13627266  0.94608265  1  0  0.054253  0  0.922443  0  0  0.067475  0  0.989406  0  0  0.068352  0  0.988121  0  0  0.098098  0.066782  0  0.990406  0
H  H45  1  0.86372970  0.24301373  0.05391516  1  0  0.054273  0  0.922479  0  0  0.067478  0  0.989446  0  0  0.068351  0  0.988154  0  0  0.098116  0.066786  0  0.990443  0
H  H46  1  0.24301651  0.86372942  0.05391610  1  0  0.05428  0  0.92243  0  0  0.067493  0  0.9894  0  0  0.068365  0  0.988118  0  0  0.098104  0.066802  0  0.990398  0
H  H47  1  0.13627161  0.75698415  0.94608333  1  0  0.054265  0  0.922432  0  0  0.067476  0  0.989409  0  0  0.068347  0  0.988125  0  0  0.098099  0.066784  0  0.990408  0
H  H48  1  0.66211422  0.87586355  0.97096315  1  0  0.043972  0  0.940906  0  0  0.056716  0  1.01243  0  0  0.057478  0  1.011403  0  0  0.095084  0.05606  0  1.01296  0
H  H49  1  0.12413612  0.33788434  0.02903866  1  0  0.043955  0  0.940932  0  0  0.056712  0  1.012456  0  0  0.057477  0  1.011424  0  0  0.095084  0.056055  0  1.012986  0
H  H50  1  0.33788348  0.12413642  0.02903997  1  0  0.043936  0  0.940892  0  0  0.056688  0  1.012428  0  0  0.057452  0  1.011393  0  0  0.095086  0.056031  0  1.012957  0
H  H51  1  0.87586359  0.66211565  0.97096257  1  0  0.043942  0  0.940922  0  0  0.056694  0  1.012453  0  0  0.057459  0  1.011418  0  0  0.095072  0.056038  0  1.012982  0
H  H52  1  0.76456110  0.95726865  0.85550594  1  0  0.057846  0  0.928828  0  0  0.071937  0  0.994197  0  0  0.072357  0  0.993708  0  0  0.094451  0.071474  0  0.994752  0
H  H53  1  0.04272970  0.23543683  0.14449493  1  0  0.057833  0  0.928789  0  0  0.071924  0  0.994176  0  0  0.072341  0  0.993692  0  0  0.09444  0.07146  0  0.994731  0
H  H54  1  0.23543790  0.04273027  0.14449498  1  0  0.057792  0  0.928807  0  0  0.071899  0  0.994178  0  0  0.072319  0  0.993686  0  0  0.094444  0.071435  0  0.994732  0
H  H55  1  0.95727001  0.76456315  0.85550630  1  0  0.057837  0  0.928787  0  0  0.071937  0  0.99416  0  0  0.072356  0  0.993671  0  0  0.094454  0.071474  0  0.994716  0
C  C56  1  0.75875962  0.95552552  0.43847242  1  0  0.102949  0  3.671397  0  0  0.05222  0  3.934359  0  0  0.058448  0  3.941686  0  0  -0.083068  0.047448  0  3.930117  0
C  C57  1  0.04447086  0.24124105  0.56152755  1  0  0.10292  0  3.671582  0  0  0.052174  0  3.934556  0  0  0.058412  0  3.941873  0  0  -0.083096  0.047404  0  3.930318  0
C  C58  1  0.24124039  0.04447340  0.56152684  1  0  0.102901  0  3.671343  0  0  0.052157  0  3.934339  0  0  0.058393  0  3.941654  0  0  -0.083111  0.047387  0  3.930095  0
C  C59  1  0.95552683  0.75875891  0.43847272  1  0  0.10291  0  3.671339  0  0  0.052216  0  3.934299  0  0  0.058448  0  3.941623  0  0  -0.083089  0.047447  0  3.930057  0
C  C60  1  0.62908228  0.03235848  0.39504794  1  0  -0.183269  0  3.642235  0  0  -0.219939  0  3.895347  0  0  -0.221264  0  3.907183  0  0  -0.16546  -0.218529  0  3.887475  0
C  C61  1  0.96763953  0.37091706  0.60495084  1  0  -0.183265  0  3.642472  0  0  -0.21995  0  3.895567  0  0  -0.221278  0  3.907413  0  0  -0.165453  -0.21854  0  3.887702  0
C  C62  1  0.37091783  0.96764362  0.60495130  1  0  -0.183242  0  3.642176  0  0  -0.219865  0  3.895235  0  0  -0.221203  0  3.907087  0  0  -0.165451  -0.218456  0  3.887363  0
C  C63  1  0.03235876  0.62908080  0.39504977  1  0  -0.183209  0  3.642168  0  0  -0.219931  0  3.895308  0  0  -0.221267  0  3.90716  0  0  -0.165446  -0.218521  0  3.887443  0
C  C64  1  0.51184710  0.16975899  0.22283252  1  0  -0.181761  0  3.638657  0  0  -0.217785  0  3.889308  0  0  -0.219307  0  3.900688  0  0  -0.161809  -0.216671  0  3.88245  0
C  C65  1  0.83024224  0.48815130  0.77716733  1  0  -0.181844  0  3.638795  0  0  -0.21783  0  3.889433  0  0  -0.219358  0  3.900829  0  0  -0.161799  -0.216723  0  3.882553  0
C  C66  1  0.48815333  0.83024206  0.77716831  1  0  -0.181748  0  3.638634  0  0  -0.217785  0  3.889348  0  0  -0.219274  0  3.900634  0  0  -0.16181  -0.21669  0  3.88246  0
C  C67  1  0.16976050  0.51184871  0.22283178  1  0  -0.181655  0  3.638638  0  0  -0.217738  0  3.889305  0  0  -0.219234  0  3.900677  0  0  -0.161769  -0.216634  0  3.882447  0
C  C68  1  0.54477547  0.19168511  0.10708379  1  0  0.103355  0  3.677259  0  0  0.05067  0  3.94163  0  0  0.057228  0  3.949103  0  0  -0.078313  0.046323  0  3.936508  0
C  C69  1  0.80831462  0.45522418  0.89291543  1  0  0.103392  0  3.677159  0  0  0.050629  0  3.941642  0  0  0.057188  0  3.949122  0  0  -0.078368  0.046276  0  3.936522  0
C  C70  1  0.45522395  0.80831594  0.89291942  1  0  0.103386  0  3.67717  0  0  0.050634  0  3.941626  0  0  0.057206  0  3.949099  0  0  -0.078338  0.046285  0  3.936515  0
C  C71  1  0.19168591  0.54478002  0.10708181  1  0  0.103163  0  3.677533  0  0  0.050601  0  3.941845  0  0  0.05714  0  3.949336  0  0  -0.078379  0.046255  0  3.936726  0
C  C72  1  0.67624663  0.07873877  0.96977913  1  0  0.06251  0  3.661827  0  0  0.00434  0  3.933839  0  0  0.010816  0  3.938971  0  0  -0.078019  -3e-05  0  3.931102  0
C  C73  1  0.92126039  0.32375068  0.03022199  1  0  0.062415  0  3.662016  0  0  0.004314  0  3.933995  0  0  0.01083  0  3.93912  0  0  -0.078034  -6.1e-05  0  3.931261  0
C  C74  1  0.32375208  0.92126121  0.03022376  1  0  0.062416  0  3.661961  0  0  0.00427  0  3.934013  0  0  0.010759  0  3.939133  0  0  -0.078053  -0.000102  0  3.931278  0
C  C75  1  0.07874032  0.67624931  0.96977687  1  0  0.062444  0  3.661954  0  0  0.004315  0  3.934002  0  0  0.010801  0  3.939127  0  0  -0.078021  -5.3e-05  0  3.931266  0
C  C76  1  0.73933313  0.93834911  0.94039201  1  0  0.060459  0  3.6723  0  0  0.002129  0  3.942365  0  0  0.008135  0  3.948711  0  0  -0.080453  -0.001864  0  3.938329  0
C  C77  1  0.06165117  0.26066492  0.05960838  1  0  0.060452  0  3.672377  0  0  0.002091  0  3.942485  0  0  0.008095  0  3.948826  0  0  -0.080487  -0.001905  0  3.938449  0
C  C78  1  0.26066689  0.06164982  0.05960939  1  0  0.060604  0  3.672177  0  0  0.002246  0  3.94229  0  0  0.008256  0  3.94862  0  0  -0.080445  -0.001747  0  3.938252  0
C  C79  1  0.93835015  0.73933296  0.94039225  1  0  0.060514  0  3.672248  0  0  0.002158  0  3.942343  0  0  0.008164  0  3.948682  0  0  -0.080459  -0.001835  0  3.938305  0
S  S80  1  0.66868800  0.14368062  0.26772538  1  0  0.053164  0  2.696969  0  0  0.077086  0  3.103993  0  0  0.076179  0  3.091719  0  0  -0.039409  0.076327  0  3.113909  0
S  S81  1  0.85631958  0.33131256  0.73227462  1  0  0.0532  0  2.697038  0  0  0.077109  0  3.104054  0  0  0.076203  0  3.091789  0  0  -0.039401  0.07635  0  3.113976  0
S  S82  1  0.33131272  0.85631938  0.73227634  1  0  0.053136  0  2.696993  0  0  0.077052  0  3.104011  0  0  0.076145  0  3.091741  0  0  -0.03942  0.076294  0  3.113935  0
S  S83  1  0.14368114  0.66868742  0.26772353  1  0  0.053112  0  2.696948  0  0  0.077057  0  3.104011  0  0  0.07615  0  3.091728  0  0  -0.03942  0.076304  0  3.113933  0
I  I84  1  0.56048529  0.56048475  0.15032932  1  0  -0.471075  0  1.578972  0  0  -0.420531  0  2.01696  0  0  -0.436244  0  1.979302  0  0  -0.215946  -0.408198  0  2.040105  0
I  I85  1  0.43951513  0.43951629  0.84967009  1  0  -0.471076  0  1.578988  0  0  -0.420543  0  2.017005  0  0  -0.43627  0  1.97936  0  0  -0.215955  -0.40821  0  2.040148  0
I  I86  1  0.38949365  0.38949336  0.44930723  1  0  -0.283885  0  1.980081  0  0  -0.227051  0  2.463122  0  0  -0.23698  0  2.412174  0  0  -0.117111  -0.221875  0  2.500095  0
I  I87  1  0.61050220  0.61050234  0.55068869  1  0  -0.283875  0  1.980086  0  0  -0.227028  0  2.463129  0  0  -0.236976  0  2.412197  0  0  -0.117114  -0.221857  0  2.500107  0
I  I88  1  0.34873006  0.85822296  0.35387921  1  0  -0.441147  0  1.574987  0  0  -0.390645  0  1.98058  0  0  -0.405847  0  1.942268  0  0  -0.209928  -0.378117  0  2.004585  0
I  I89  1  0.14177945  0.65126915  0.64612048  1  0  -0.441126  0  1.575004  0  0  -0.390623  0  1.980608  0  0  -0.405834  0  1.9423  0  0  -0.209916  -0.378097  0  2.004615  0
I  I90  1  0.65127096  0.14177598  0.64611983  1  0  -0.441142  0  1.574999  0  0  -0.390643  0  1.980596  0  0  -0.405854  0  1.942289  0  0  -0.209929  -0.378117  0  2.004605  0
I  I91  1  0.85822257  0.34872980  0.35387903  1  0  -0.441137  0  1.575013  0  0  -0.390642  0  1.980622  0  0  -0.405845  0  1.942306  0  0  -0.209921  -0.378112  0  2.00463  0
O  O92  1  0.84572129  0.84571981  0.38636900  1  0  -0.362214  0  2.304064  0  0  -0.290982  0  2.555681  0  0  -0.307647  0  2.559299  0  0  -0.301753  -0.279594  0  2.55334  0
O  O93  1  0.15427942  0.15428017  0.61362772  1  0  -0.362113  0  2.304016  0  0  -0.290892  0  2.555652  0  0  -0.307556  0  2.559267  0  0  -0.301716  -0.279505  0  2.553309  0
O  O94  1  0.62106795  0.06021457  0.07870112  1  0  -0.345349  0  2.263936  0  0  -0.27487  0  2.516367  0  0  -0.291037  0  2.518375  0  0  -0.28417  -0.263564  0  2.514203  0
O  O95  1  0.93978489  0.37893129  0.92130014  1  0  -0.345295  0  2.263887  0  0  -0.27484  0  2.516333  0  0  -0.291008  0  2.518327  0  0  -0.284126  -0.263519  0  2.514166  0
O  O96  1  0.37893219  0.93978754  0.92130169  1  0  -0.345329  0  2.263995  0  0  -0.274848  0  2.516441  0  0  -0.291027  0  2.51844  0  0  -0.284132  -0.263529  0  2.514269  0
O  O97  1  0.06021755  0.62106977  0.07869809  1  0  -0.345208  0  2.264121  0  0  -0.274826  0  2.516561  0  0  -0.290993  0  2.518576  0  0  -0.28413  -0.263513  0  2.514396  0
O  O98  1  0.86396119  0.86396060  0.97905149  1  0  -0.328441  0  2.249545  0  0  -0.255331  0  2.495614  0  0  -0.270432  0  2.495781  0  0  -0.294834  -0.244922  0  2.495312  0
O  O99  1  0.13604084  0.13603835  0.02094874  1  0  -0.328431  0  2.249536  0  0  -0.255327  0  2.495629  0  0  -0.270431  0  2.495797  0  0  -0.294833  -0.244912  0  2.495322  0
