# generated using pymatgen
data_CuP2H16C18(NO5)2
_symmetry_space_group_name_H-M   'P 1'
_cell_length_a   6.50814766
_cell_length_b   10.37139631
_cell_length_c   15.57953812
_cell_angle_alpha   107.58404927
_cell_angle_beta   90.00196591
_cell_angle_gamma   90.00122072
_symmetry_Int_Tables_number   1
_chemical_formula_structural   CuP2H16C18(NO5)2
_chemical_formula_sum   'Cu2 P4 H32 C36 N4 O20'
_cell_volume   1002.46062172
_cell_formula_units_Z   2
loop_
 _symmetry_equiv_pos_site_id
 _symmetry_equiv_pos_as_xyz
  1  'x, y, z'
loop_
 _atom_site_type_symbol
 _atom_site_label
 _atom_site_symmetry_multiplicity
 _atom_site_fract_x
 _atom_site_fract_y
 _atom_site_fract_z
 _atom_site_occupancy
 _atom_site_pbe_cm5_charge
 _atom_site_pbe_ddec_charge
 _atom_site_pbe_ddec_spin_density
 _atom_site_pbe_ddec_sum_bond_order
 _atom_site_pbe_magmom
Cu  Cu0  1  0.50000402  0.00000160  0.00000204  1  0.764472  0.774072  0.740872  2.270552  0.579
Cu  Cu1  1  0.99999747  0.00000492  0.50000112  1  0.764431  0.773935  0.740866  2.270617  0.579
P  P2  1  0.32360455  0.36232801  0.14347115  1  0.390241  1.294969  -0.000116  5.252405  0.0
P  P3  1  0.82361860  0.63770255  0.35654547  1  0.390281  1.294843  -0.000116  5.252455  0.0
P  P4  1  0.67640332  0.63767332  0.85652809  1  0.390222  1.294941  -0.000116  5.252311  0.0
P  P5  1  0.17638313  0.36229876  0.64345698  1  0.390274  1.294764  -0.000116  5.252368  0.0
H  H6  1  0.13809996  0.42065705  0.99129826  1  0.105412  0.106309  3e-05  1.02907  0.0
H  H7  1  0.63805946  0.57931020  0.50867052  1  0.10546  0.106278  3e-05  1.028976  0.0
H  H8  1  0.86192020  0.57933822  0.00869847  1  0.10543  0.106322  3e-05  1.028991  0.0
H  H9  1  0.36193305  0.42069110  0.49133193  1  0.105425  0.106245  3e-05  1.028917  0.0
H  H10  1  0.73455944  0.47004065  0.11906906  1  0.106366  0.111209  -4e-06  1.011899  0.0
H  H11  1  0.23454237  0.52998380  0.38095401  1  0.10637  0.111276  -4e-06  1.011893  0.0
H  H12  1  0.26545765  0.52995461  0.88092831  1  0.106364  0.111185  -4e-06  1.011877  0.0
H  H13  1  0.76544552  0.47001447  0.61904847  1  0.106326  0.111246  -4e-06  1.01187  0.0
H  H14  1  0.22847574  0.02102056  0.84445670  1  0.120517  0.09385  0.001018  1.018263  0.002
H  H15  1  0.72850471  0.97898102  0.65553513  1  0.120572  0.093981  0.001018  1.018444  0.002
H  H16  1  0.77152598  0.97897264  0.15554667  1  0.120501  0.093904  0.001018  1.018262  0.002
H  H17  1  0.27148933  0.02102234  0.34446324  1  0.120496  0.093877  0.001018  1.018605  0.002
H  H18  1  0.27649566  0.13653532  0.72420423  1  0.111053  0.125016  0.000488  1.017271  0.001
H  H19  1  0.77649675  0.86342284  0.77577819  1  0.111  0.125013  0.000488  1.017221  0.001
H  H20  1  0.72350606  0.86345285  0.27579426  1  0.111035  0.124998  0.000488  1.0174  0.001
H  H21  1  0.22349115  0.13658252  0.22422252  1  0.110973  0.125054  0.000488  1.017102  0.001
H  H22  1  0.60157943  0.26381744  0.72268245  1  0.115291  0.124787  2.9e-05  0.994085  0.0
H  H23  1  0.10158226  0.73612877  0.77728023  1  0.115274  0.124816  2.9e-05  0.993896  0.0
H  H24  1  0.39842998  0.73616568  0.27731309  1  0.115282  0.124784  2.9e-05  0.994161  0.0
H  H25  1  0.89840564  0.26387155  0.22271817  1  0.115268  0.124811  2.9e-05  0.993965  0.0
H  H26  1  0.87094206  0.27092575  0.84087848  1  0.117707  0.133442  0.000855  0.995018  0.001
H  H27  1  0.37094435  0.72907299  0.65911035  1  0.117713  0.133419  0.000855  0.994895  0.001
H  H28  1  0.12906581  0.72906545  0.15912063  1  0.117695  0.13348  0.000854  0.99498  0.001
H  H29  1  0.62903740  0.27092532  0.34088443  1  0.117776  0.133495  0.000855  0.994821  0.001
H  H30  1  0.15528430  0.19903598  0.04557637  1  0.302901  0.379477  -3.4e-05  0.97224  0.0
H  H31  1  0.65527624  0.80099685  0.45443826  1  0.302945  0.379601  -3.4e-05  0.972027  0.0
H  H32  1  0.84471896  0.80096938  0.95442626  1  0.302941  0.379526  -3.5e-05  0.97216  0.0
H  H33  1  0.34472088  0.19900853  0.54556116  1  0.302916  0.37953  -3.4e-05  0.972122  0.0
H  H34  1  0.55598366  0.44257639  0.25398072  1  0.306614  0.414287  0.0  0.927459  0.0
H  H35  1  0.05597352  0.55747442  0.24603805  1  0.306738  0.41457  0.0  0.927003  0.0
H  H36  1  0.44402114  0.55742999  0.74602084  1  0.30664  0.414339  0.0  0.927387  0.0
H  H37  1  0.94403282  0.44252790  0.75396332  1  0.30671  0.414548  0.0  0.927043  0.0
C  C38  1  0.29633314  0.45633137  0.99544970  1  -0.080368  -0.058303  7.9e-05  3.959662  0.0
C  C39  1  0.79630035  0.54364447  0.50453018  1  -0.080429  -0.058231  7.9e-05  3.959417  0.0
C  C40  1  0.70368242  0.54366390  0.00454639  1  -0.080404  -0.058338  7.9e-05  3.959584  0.0
C  C41  1  0.20369369  0.45635482  0.49547122  1  -0.08039  -0.058167  7.9e-05  3.959373  0.0
C  C42  1  0.42672407  0.43905253  0.06303952  1  -0.026181  -0.212643  -3.2e-05  4.017709  0.0
C  C43  1  0.92672212  0.56093996  0.43695738  1  -0.026117  -0.212513  -3.2e-05  4.017702  0.0
C  C44  1  0.57329302  0.56094374  0.93695806  1  -0.026104  -0.212494  -3.2e-05  4.017626  0.0
C  C45  1  0.07327192  0.43906236  0.56304463  1  -0.026187  -0.212553  -3.2e-05  4.017549  0.0
C  C46  1  0.63136230  0.48300633  0.06717254  1  -0.082203  -0.06474  -4.7e-05  3.976737  0.0
C  C47  1  0.13135821  0.51700064  0.43284227  1  -0.082187  -0.064874  -4.7e-05  3.9771  0.0
C  C48  1  0.36865172  0.51699095  0.93282653  1  -0.08226  -0.064792  -4.7e-05  3.976821  0.0
C  C49  1  0.86863276  0.48299763  0.56716021  1  -0.082174  -0.064853  -4.7e-05  3.97693  0.0
C  C50  1  0.36710578  0.07714893  0.83995008  1  0.058874  0.116493  -0.001313  3.902109  -0.001
C  C51  1  0.86712560  0.92285880  0.66004502  1  0.058801  0.11617  -0.001314  3.902384  -0.001
C  C52  1  0.63289594  0.92284227  0.16004839  1  0.058926  0.116467  -0.001313  3.902125  -0.001
C  C53  1  0.13286383  0.07714556  0.33995484  1  0.058837  0.116259  -0.001314  3.902481  -0.001
C  C54  1  0.39556389  0.14150834  0.77414036  1  -0.072196  -0.112767  0.004089  3.903653  0.005
C  C55  1  0.89556847  0.85848085  0.72584561  1  -0.072013  -0.112545  0.004088  3.903325  0.005
C  C56  1  0.60444244  0.85848286  0.22585747  1  -0.072155  -0.112764  0.004089  3.903639  0.005
C  C57  1  0.10442557  0.14152654  0.27415679  1  -0.07202  -0.112603  0.004088  3.903377  0.005
C  C58  1  0.57714665  0.21268628  0.77346500  1  -0.054165  -0.008819  -0.003736  3.901749  -0.002
C  C59  1  0.07714553  0.78728562  0.72651282  1  -0.054229  -0.008939  -0.003737  3.90149  -0.002
C  C60  1  0.42285507  0.78730391  0.22653326  1  -0.054204  -0.008758  -0.003737  3.901859  -0.002
C  C61  1  0.92284237  0.21271974  0.27348917  1  -0.054224  -0.008847  -0.003737  3.901694  -0.002
C  C62  1  0.72635003  0.21736729  0.83876678  1  -0.065634  -0.116267  0.001972  3.9142  0.002
C  C63  1  0.22634656  0.78262819  0.66121992  1  -0.065639  -0.11623  0.001972  3.913999  0.002
C  C64  1  0.27365169  0.78262592  0.16123402  1  -0.065659  -0.116449  0.001972  3.914243  0.002
C  C65  1  0.77363980  0.21737517  0.33877781  1  -0.06572  -0.116519  0.001972  3.914147  0.002
C  C66  1  0.68753400  0.15074773  0.90218291  1  0.109017  0.082072  -0.000686  3.99218  0.0
C  C67  1  0.18756601  0.84926809  0.59781122  1  0.108976  0.081906  -0.000687  3.992084  0.0
C  C68  1  0.31246772  0.84925358  0.09781890  1  0.10904  0.082215  -0.000689  3.992041  0.0
C  C69  1  0.81242189  0.15073425  0.40218759  1  0.109095  0.082223  -0.000689  3.991694  0.0
C  C70  1  0.83410089  0.14739005  0.97570801  1  0.221079  0.549389  -0.000905  4.186183  -0.001
C  C71  1  0.33413937  0.85263106  0.52429639  1  0.221039  0.54955  -0.000906  4.186489  -0.001
C  C72  1  0.16589469  0.85260924  0.02429467  1  0.221017  0.549307  -0.000905  4.186225  -0.001
C  C73  1  0.66584699  0.14737835  0.47570450  1  0.221005  0.549394  -0.000906  4.186637  -0.001
N  N74  1  0.51107100  0.08223412  0.90227613  1  -0.353244  -0.250066  0.053188  3.642931  0.069
N  N75  1  0.01110063  0.91777565  0.59772319  1  -0.353316  -0.249895  0.053179  3.642758  0.069
N  N76  1  0.48892765  0.91776214  0.09772401  1  -0.353281  -0.250169  0.053192  3.6431  0.069
N  N77  1  0.98888419  0.08222668  0.40227626  1  -0.353296  -0.249984  0.053185  3.642524  0.069
O  O78  1  0.27749163  0.20916636  0.09234665  1  -0.377573  -0.695733  -0.001245  2.351548  0.0
O  O79  1  0.77753325  0.79085800  0.40768537  1  -0.377592  -0.695869  -0.001243  2.351695  0.0
O  O80  1  0.72251317  0.79083496  0.90765387  1  -0.377578  -0.695786  -0.001245  2.351508  0.0
O  O81  1  0.22246694  0.20914534  0.59231621  1  -0.377543  -0.695783  -0.001243  2.35178  0.0
O  O82  1  0.49753367  0.35190005  0.20997520  1  -0.373326  -0.66346  2.5e-05  2.245462  0.0
O  O83  1  0.99753654  0.64814759  0.29004421  1  -0.373377  -0.663525  2.5e-05  2.245058  0.0
O  O84  1  0.50246806  0.64810531  0.79002615  1  -0.373356  -0.663524  2.5e-05  2.24537  0.0
O  O85  1  0.00246979  0.35185168  0.70996039  1  -0.373403  -0.663584  2.5e-05  2.245138  0.0
O  O86  1  0.13064621  0.43574669  0.18462244  1  -0.36511  -0.740837  -3.3e-05  2.198569  0.0
O  O87  1  0.63063763  0.56431293  0.31539022  1  -0.365148  -0.740688  -3.2e-05  2.198706  0.0
O  O88  1  0.86935859  0.56425565  0.81537509  1  -0.365068  -0.740753  -3.3e-05  2.198528  0.0
O  O89  1  0.36936409  0.43569447  0.68460897  1  -0.365121  -0.740635  -3.2e-05  2.198535  0.0
O  O90  1  0.77153259  0.08884080  0.03257290  1  -0.312005  -0.499246  0.066491  2.290734  0.095
O  O91  1  0.27156877  0.91117450  0.46742638  1  -0.311931  -0.499267  0.066508  2.290547  0.095
O  O92  1  0.22847989  0.91116052  0.96742827  1  -0.311975  -0.499266  0.066512  2.290514  0.095
O  O93  1  0.72842681  0.08883391  0.53257366  1  -0.311963  -0.499245  0.066512  2.290475  0.095
O  O94  1  0.00809260  0.20123599  0.97712718  1  -0.285351  -0.495606  0.009445  2.271055  0.013
O  O95  1  0.50811881  0.79879693  0.52288579  1  -0.285306  -0.495648  0.009443  2.271362  0.013
O  O96  1  0.99191834  0.79877037  0.02287630  1  -0.285329  -0.495527  0.009445  2.27134  0.013
O  O97  1  0.49187062  0.20120442  0.47711024  1  -0.285284  -0.495542  0.009442  2.271599  0.013
