# generated using pymatgen
data_AgH29C28N4O3
_symmetry_space_group_name_H-M   'P 1'
_cell_length_a   8.87014802
_cell_length_b   9.77384148
_cell_length_c   16.71446609
_cell_angle_alpha   84.14339540
_cell_angle_beta   73.16035930
_cell_angle_gamma   85.91070519
_symmetry_Int_Tables_number   1
_chemical_formula_structural   AgH29C28N4O3
_chemical_formula_sum   'Ag2 H58 C56 N8 O6'
_cell_volume   1378.36427768
_cell_formula_units_Z   2
loop_
 _symmetry_equiv_pos_site_id
 _symmetry_equiv_pos_as_xyz
  1  'x, y, z'
loop_
 _atom_site_type_symbol
 _atom_site_label
 _atom_site_symmetry_multiplicity
 _atom_site_fract_x
 _atom_site_fract_y
 _atom_site_fract_z
 _atom_site_occupancy
 _atom_site_pbe_bader_spin_density
 _atom_site_pbe_cm5_charge
 _atom_site_pbe_ddec_charge
 _atom_site_pbe_ddec_spin_density
 _atom_site_pbe_ddec_sum_bond_order
 _atom_site_pbe_magmom
Ag  Ag0  1  0.46591901  0.53575457  0.74289692  1  0  0.444166  0.348791  0  1.951192  0
Ag  Ag1  1  0.53407809  0.46424082  0.25710595  1  0  0.444153  0.348745  0  1.951195  0
H  H2  1  0.66992239  0.25980804  0.07552497  1  0  0.108277  0.130984  0  1.011332  0
H  H3  1  0.33008415  0.74018933  0.92447403  1  0  0.108247  0.130957  0  1.011323  0
H  H4  1  0.90140459  0.40787453  0.02981786  1  0  0.09356  0.086644  0  1.043159  0
H  H5  1  0.09859714  0.59212392  0.97018297  1  0  0.093563  0.086626  0  1.043166  0
H  H6  1  0.94673441  0.56964207  0.90149564  1  0  0.095126  0.090144  0  1.024067  0
H  H7  1  0.05327048  0.43036255  0.09850735  1  0  0.095143  0.090175  0  1.024005  0
H  H8  1  0.75772377  0.59008373  0.81434442  1  0  0.107633  0.12591  0  1.020851  0
H  H9  1  0.24228114  0.40992190  0.18565671  1  0  0.10761  0.12592  0  1.020893  0
H  H10  1  0.25101596  0.19305349  0.05734872  1  0  0.111371  0.089482  0  0.973152  0
H  H11  1  0.74898434  0.80695216  0.94265068  1  0  0.111372  0.089493  0  0.97321  0
H  H12  1  0.42103684  0.17943795  0.09274293  1  0  0.115972  0.10232  0  0.996335  0
H  H13  1  0.57896454  0.82056770  0.90725870  1  0  0.115984  0.102348  0  0.996328  0
H  H14  1  0.34431387  0.95254348  0.06303234  1  0  0.09446  0.094659  0  1.001761  0
H  H15  1  0.65568867  0.04746217  0.93696972  1  0  0.094472  0.094643  0  1.001785  0
H  H16  1  0.36718736  0.01205231  0.95723473  1  0  0.092176  0.085699  0  0.994718  0
H  H17  1  0.63281297  0.98795026  0.04276724  1  0  0.092149  0.085643  0  0.994754  0
H  H18  1  0.15273777  0.28586590  0.94554194  1  0  0.099754  0.142784  0  1.009677  0
H  H19  1  0.84726608  0.71413768  0.05445887  1  0  0.099751  0.142746  0  1.009665  0
H  H20  1  0.26812988  0.17630116  0.86998236  1  0  0.105508  0.155741  0  0.974047  0
H  H21  1  0.73187514  0.82370242  0.13001828  1  0  0.105499  0.155686  0  0.974087  0
H  H22  1  0.22991769  0.35176446  0.83883030  1  0  0.101274  0.145402  0  1.019063  0
H  H23  1  0.77008609  0.64824117  0.16116979  1  0  0.101301  0.145408  0  1.01908  0
H  H24  1  0.28088714  0.26174570  0.44543094  1  0  0.103736  0.120463  0  1.057662  0
H  H25  1  0.71910861  0.73825791  0.55456744  1  0  0.103754  0.120488  0  1.057698  0
H  H26  1  0.36052122  0.03411116  0.50646984  1  0  0.095067  0.088016  0  1.03993  0
H  H27  1  0.63946748  0.96589146  0.49353021  1  0  0.095085  0.088006  0  1.039965  0
H  H28  1  0.45376526  0.01471681  0.63387402  1  0  0.097362  0.102148  0  1.018255  0
H  H29  1  0.54622706  0.98528374  0.36612564  1  0  0.097341  0.102143  0  1.018292  0
H  H30  1  0.47329511  0.22429617  0.70335286  1  0  0.095517  0.100886  0  1.043782  0
H  H31  1  0.52669608  0.77570335  0.29664702  1  0  0.095545  0.100953  0  1.043725  0
H  H32  1  0.25973465  0.50407286  0.40985989  1  0  0.111593  0.100283  0  1.005547  0
H  H33  1  0.74026338  0.49593075  0.59013996  1  0  0.111595  0.100286  0  1.005544  0
H  H34  1  0.25900120  0.66993107  0.44380599  1  0  0.108256  0.086235  0  0.996735  0
H  H35  1  0.74099921  0.33007252  0.55619292  1  0  0.108255  0.086267  0  0.996621  0
H  H36  1  0.99311949  0.62135148  0.55264735  1  0  0.091747  0.089397  0  1.001973  0
H  H37  1  0.00688085  0.37865314  0.44735211  1  0  0.091735  0.089363  0  1.001995  0
H  H38  1  0.99253783  0.63722297  0.44669571  1  0  0.094109  0.093975  0  1.039557  0
H  H39  1  0.00746251  0.36278164  0.55330375  1  0  0.094099  0.093987  0  1.039517  0
H  H40  1  0.32878597  0.78464787  0.53717890  1  0  0.099663  0.145976  0  1.021507  0
H  H41  1  0.67121194  0.21535779  0.46282144  1  0  0.099655  0.146022  0  1.021494  0
H  H42  1  0.33634235  0.75778470  0.64315441  1  0  0.104707  0.162025  0  0.994663  0
H  H43  1  0.66365687  0.24221685  0.35684719  1  0  0.104733  0.162054  0  0.994666  0
H  H44  1  0.15408519  0.74921783  0.61961781  1  0  0.101775  0.151731  0  0.998843  0
H  H45  1  0.84591157  0.25078682  0.38038335  1  0  0.101757  0.151728  0  0.998834  0
H  H46  1  0.91056366  0.83465149  0.60653284  1  0  0.097836  0.093637  0  1.040874  0
H  H47  1  0.08944073  0.16534076  0.39346679  1  0  0.09779  0.093545  0  1.040788  0
H  H48  1  0.07636002  0.03981609  0.58784264  1  0  0.101443  0.116849  0  1.029179  0
H  H49  1  0.92364563  0.96017409  0.41215694  1  0  0.101453  0.116921  0  1.02913  0
H  H50  1  0.72190796  0.21901878  0.78939954  1  0  0.095017  0.102369  0  1.069128  0
H  H51  1  0.27809200  0.78097038  0.21059733  1  0  0.095032  0.102389  0  1.069258  0
H  H52  1  0.55796940  0.01578990  0.80486010  1  0  0.096395  0.094413  0  1.020196  0
H  H53  1  0.44203155  0.98420235  0.19513763  1  0  0.096359  0.094385  0  1.020206  0
H  H54  1  0.06569184  0.42180122  0.71156293  1  0  0.103614  0.114821  0  1.004146  0
H  H55  1  0.93429930  0.57819831  0.28843815  1  0  0.103643  0.114856  0  1.004248  0
H  H56  1  0.94507349  0.31484349  0.79596774  1  0  0.09366  0.094965  0  1.016988  0
H  H57  1  0.05491799  0.68514883  0.20403254  1  0  0.093706  0.095013  0  1.017018  0
H  H58  1  0.86068368  0.40902791  0.72033239  1  0  0.098772  0.103131  0  1.013818  0
H  H59  1  0.13930767  0.59096749  0.27966772  1  0  0.098765  0.103155  0  1.013815  0
C  C60  1  0.39977299  0.32476220  0.90554446  1  0  0.227908  0.357133  0  3.957568  0
C  C61  1  0.60023083  0.67524138  0.09445695  1  0  0.227809  0.356971  0  3.957736  0
C  C62  1  0.59008216  0.33814342  0.96680263  1  0  0.091443  0.091144  0  4.017443  0
C  C63  1  0.40991944  0.66185811  0.03319803  1  0  0.091435  0.091136  0  4.017434  0
C  C64  1  0.69175677  0.32708688  0.01744292  1  0  -0.096398  -0.165299  0  3.989008  0
C  C65  1  0.30824837  0.67291463  0.98255724  1  0  -0.09635  -0.165207  0  3.988905  0
C  C66  1  0.81976223  0.41234355  0.99181027  1  0  -0.105616  -0.097267  0  4.049544  0
C  C67  1  0.18024296  0.58765591  0.00819060  1  0  -0.105591  -0.097236  0  4.049622  0
C  C68  1  0.84416257  0.50585931  0.91967295  1  0  -0.107552  -0.115925  0  4.065023  0
C  C69  1  0.15584485  0.49414219  0.08032868  1  0  -0.107608  -0.115987  0  4.065198  0
C  C70  1  0.74064047  0.51848426  0.87038932  1  0  -0.090762  -0.149637  0  3.974516  0
C  C71  1  0.25936687  0.48151931  0.12961219  1  0  -0.09069  -0.149633  0  3.974601  0
C  C72  1  0.61346733  0.43193623  0.89429725  1  0  0.082392  0.135864  0  4.083737  0
C  C73  1  0.38653894  0.56806631  0.10570268  1  0  0.08235  0.1358  0  4.083557  0
C  C74  1  0.37851375  0.16826661  0.03826447  1  0  -0.049831  -0.048245  0  3.878  0
C  C75  1  0.62148887  0.83173801  0.96173645  1  0  -0.049878  -0.048371  0  3.878128  0
C  C76  1  0.41246012  0.02184734  0.01113443  1  0  -0.164621  -0.173024  0  3.939512  0
C  C77  1  0.58754255  0.97815625  0.98886655  1  0  -0.164488  -0.172717  0  3.939404  0
C  C78  1  0.25479297  0.28171540  0.88953494  1  0  -0.227568  -0.464692  0  3.943897  0
C  C79  1  0.74521201  0.71828920  0.11046564  1  0  -0.227501  -0.464479  0  3.943966  0
C  C80  1  0.31482883  0.57547398  0.59018343  1  0  0.227605  0.356868  0  3.968846  0
C  C81  1  0.68517040  0.42452859  0.40981691  1  0  0.227636  0.356881  0  3.968802  0
C  C82  1  0.32657135  0.36806770  0.54354737  1  0  0.091561  0.09514  0  4.009014  0
C  C83  1  0.67342426  0.63193798  0.45645210  1  0  0.091499  0.095126  0  4.009183  0
C  C84  1  0.31903484  0.25288589  0.50224550  1  0  -0.096781  -0.162187  0  3.978475  0
C  C85  1  0.68095724  0.74711981  0.49775447  1  0  -0.096763  -0.162279  0  3.978712  0
C  C86  1  0.36473599  0.12663415  0.53687665  1  0  -0.10047  -0.09461  0  4.043437  0
C  C87  1  0.63525620  0.87336949  0.46312283  1  0  -0.10043  -0.09443  0  4.043585  0
C  C88  1  0.41890250  0.11551645  0.60879389  1  0  -0.102379  -0.101224  0  4.032249  0
C  C89  1  0.58108743  0.88448411  0.39120671  1  0  -0.102395  -0.10125  0  4.032339  0
C  C90  1  0.42910679  0.23160256  0.64858118  1  0  -0.100466  -0.165042  0  4.007579  0
C  C91  1  0.57088552  0.76839696  0.35141974  1  0  -0.100518  -0.165211  0  4.007736  0
C  C92  1  0.38073064  0.35886609  0.61563487  1  0  0.076946  0.129112  0  4.102555  0
C  C93  1  0.61926504  0.64113753  0.38436532  1  0  0.077005  0.129191  0  4.102721  0
C  C94  1  0.21508306  0.56610807  0.46386974  1  0  -0.05328  -0.04843  0  3.857929  0
C  C95  1  0.78491726  0.43389758  0.53612905  1  0  -0.053274  -0.048465  0  3.857866  0
C  C96  1  0.03484155  0.57095920  0.49359650  1  0  -0.169433  -0.172215  0  3.910323  0
C  C97  1  0.96516095  0.42904953  0.50640299  1  0  -0.169416  -0.172295  0  3.910338  0
C  C98  1  0.28164448  0.72504010  0.59763359  1  0  -0.229452  -0.467644  0  3.930622  0
C  C99  1  0.71835477  0.27496145  0.40236740  1  0  -0.229498  -0.46776  0  3.930584  0
C  C100  1  0.72577814  0.91020740  0.70894024  1  0  -0.037071  -0.067025  0  4.004801  0
C  C101  1  0.27422401  0.08978382  0.29105798  1  0  -0.037085  -0.066848  0  4.004825  0
C  C102  1  0.87101790  0.91926406  0.64643417  1  0  -0.092597  -0.083548  0  4.023969  0
C  C103  1  0.12898772  0.08072715  0.35356534  1  0  -0.092587  -0.083564  0  4.023933  0
C  C104  1  0.96305765  0.03223543  0.63562611  1  0  -0.10883  -0.202706  0  3.988815  0
C  C105  1  0.03694435  0.96775786  0.36437380  1  0  -0.108848  -0.202775  0  3.988658  0
C  C106  1  0.91231557  0.13904405  0.68889451  1  0  0.083653  0.263018  0  4.047974  0
C  C107  1  0.08767946  0.86095131  0.31110149  1  0  0.08374  0.263159  0  4.047806  0
C  C108  1  0.76500886  0.13473524  0.74965873  1  0  -0.120339  -0.240198  0  4.017019  0
C  C109  1  0.23498866  0.86525702  0.25033710  1  0  -0.120351  -0.240277  0  4.017127  0
C  C110  1  0.67329601  0.02079409  0.75842696  1  0  -0.09188  -0.074855  0  4.016647  0
C  C111  1  0.32670262  0.97919919  0.24156925  1  0  -0.091795  -0.074835  0  4.016509  0
C  C112  1  0.63289173  0.78280104  0.72359271  1  0  0.173151  0.546315  0  4.271334  0
C  C113  1  0.36711537  0.21718397  0.27640578  1  0  0.173212  0.546211  0  4.271612  0
C  C114  1  0.96718927  0.35275731  0.72955849  1  0  -0.143419  -0.176896  0  3.895259  0
C  C115  1  0.03280333  0.64723706  0.27044091  1  0  -0.14347  -0.176969  0  3.895401  0
N  N116  1  0.37277969  0.48986800  0.64274178  1  0  -0.378522  -0.398263  0  3.586453  0
N  N117  1  0.62721713  0.51013459  0.35726010  1  0  -0.378504  -0.398252  0  3.586606  0
N  N118  1  0.28623602  0.50650236  0.52893873  1  0  -0.240008  -0.072902  0  3.658522  0
N  N119  1  0.71376548  0.49350328  0.47105989  1  0  -0.240023  -0.072862  0  3.658548  0
N  N120  1  0.45314284  0.27224012  0.97235768  1  0  -0.240977  -0.079703  0  3.671146  0
N  N121  1  0.54685987  0.72776244  0.02764336  1  0  -0.240972  -0.079744  0  3.671091  0
N  N122  1  0.49357451  0.42023877  0.85774494  1  0  -0.369418  -0.379703  0  3.553964  0
N  N123  1  0.50643053  0.57976377  0.14225636  1  0  -0.369372  -0.37957  0  3.553821  0
O  O124  1  0.70326449  0.67708772  0.68721562  1  0  -0.352704  -0.584704  0  2.226883  0
O  O125  1  0.29674724  0.32289933  0.31278208  1  0  -0.352646  -0.584526  0  2.227041  0
O  O126  1  0.49224735  0.78495654  0.77176353  1  0  -0.362459  -0.589525  0  2.149582  0
O  O127  1  0.50776090  0.21502847  0.22823539  1  0  -0.362598  -0.589664  0  2.149622  0
O  O128  1  0.01426287  0.24219078  0.67666182  1  0  -0.181431  -0.159044  0  2.610275  0
O  O129  1  0.98572847  0.75780565  0.32333763  1  0  -0.181523  -0.15918  0  2.610121  0
