# generated using pymatgen
data_H9PbC12I2N3
_symmetry_space_group_name_H-M   'P 1'
_cell_length_a   8.09140111
_cell_length_b   9.66456533
_cell_length_c   10.94799601
_cell_angle_alpha   107.59736350
_cell_angle_beta   101.69541169
_cell_angle_gamma   112.10795086
_symmetry_Int_Tables_number   1
_chemical_formula_structural   H9PbC12I2N3
_chemical_formula_sum   'H18 Pb2 C24 I4 N6'
_cell_volume   705.84828225
_cell_formula_units_Z   2
loop_
 _symmetry_equiv_pos_site_id
 _symmetry_equiv_pos_as_xyz
  1  'x, y, z'
loop_
 _atom_site_type_symbol
 _atom_site_label
 _atom_site_symmetry_multiplicity
 _atom_site_fract_x
 _atom_site_fract_y
 _atom_site_fract_z
 _atom_site_occupancy
 _atom_site_pbe_bader_spin_density
 _atom_site_pbe_cm5_charge
 _atom_site_pbe_ddec_charge
 _atom_site_pbe_ddec_spin_density
 _atom_site_pbe_ddec_sum_bond_order
 _atom_site_pbe_magmom
H  H0  1  0.57300383  0.91840692  0.10796892  1  0  0.280661  0.296904  0  0.983939  0
H  H1  1  0.96504308  0.81106306  0.89189684  1  0  0.28068  0.296632  0  0.983881  0
H  H2  1  0.74504204  0.87609794  0.18393227  1  0  0.271703  0.278072  0  1.032954  0
H  H3  1  0.06077511  0.69221690  0.81600205  1  0  0.271461  0.277572  0  1.031827  0
H  H4  1  0.10037531  0.09142062  0.79049524  1  0  0.098825  0.064968  0  1.055347  0
H  H5  1  0.80977236  0.30028941  0.20934023  1  0  0.098466  0.064759  0  1.054363  0
H  H6  1  0.13575978  0.94583749  0.57474564  1  0  0.106937  0.118572  0  0.994633  0
H  H7  1  0.06082292  0.37109708  0.42514595  1  0  0.106345  0.117612  0  0.995681  0
H  H8  1  0.92847382  0.90409985  0.35121436  1  0  0.092392  0.096791  0  1.054698  0
H  H9  1  0.07687218  0.55281667  0.64867509  1  0  0.092728  0.09661  0  1.053937  0
H  H10  1  0.42163885  0.04972053  0.23192744  1  0  0.09504  0.120561  0  1.022508  0
H  H11  1  0.68917344  0.81744048  0.76824011  1  0  0.094933  0.120057  0  1.02283  0
H  H12  1  0.29382120  0.21116776  0.36973511  1  0  0.089193  0.102295  0  1.039255  0
H  H13  1  0.42372996  0.84113630  0.63028309  1  0  0.089079  0.101927  0  1.040388  0
H  H14  1  0.32250100  0.39066759  0.60344362  1  0  0.09765  0.107847  0  1.017865  0
H  H15  1  0.21934151  0.78739442  0.39663061  1  0  0.097177  0.10718  0  1.017435  0
H  H16  1  0.57316712  0.44427667  0.81090342  1  0  0.090031  0.058404  0  1.078681  0
H  H17  1  0.26275802  0.63336503  0.18943731  1  0  0.090715  0.059135  0  1.079719  0
Pb  Pb18  1  0.89169657  0.31842192  0.91640810  1  0  0.371308  0.653384  0  2.26916  0
Pb  Pb19  1  0.47555466  0.40228483  0.08351252  1  0  0.371251  0.652937  0  2.26873  0
C  C20  1  0.01502167  0.07620329  0.69166521  1  0  0.054204  0.105406  0  3.972186  0
C  C21  1  0.82325266  0.38415322  0.30815445  1  0  0.055104  0.106005  0  3.969683  0
C  C22  1  0.03276914  0.99287326  0.56992275  1  0  -0.086029  -0.128015  0  3.977398  0
C  C23  1  0.96259768  0.42279543  0.42991882  1  0  -0.085777  -0.12692  0  3.978267  0
C  C24  1  0.91709865  0.97123615  0.44653800  1  0  -0.065367  -0.049217  0  3.907685  0
C  C25  1  0.97025732  0.52449697  0.55332497  1  0  -0.064315  -0.048221  0  3.906415  0
C  C26  1  0.78486957  0.03359757  0.44442429  1  0  -0.000875  -0.044322  0  3.920542  0
C  C27  1  0.84012840  0.58890216  0.55546522  1  0  -0.002207  -0.044237  0  3.922406  0
C  C28  1  0.65490677  0.01077943  0.31812884  1  0  0.110718  0.285178  0  4.097143  0
C  C29  1  0.83630677  0.69229934  0.68182061  1  0  0.110571  0.284141  0  4.096393  0
C  C30  1  0.52345978  0.07024200  0.32622221  1  0  -0.117407  -0.280864  0  3.953442  0
C  C31  1  0.69669492  0.74359167  0.67382556  1  0  -0.117026  -0.281126  0  3.955824  0
C  C32  1  0.52378754  0.16387729  0.45359525  1  0  -0.005351  0.07043  0  4.047901  0
C  C33  1  0.56978345  0.70990949  0.54651002  1  0  -0.006266  0.071219  0  4.049947  0
C  C34  1  0.39854194  0.23428146  0.46388990  1  0  -0.07696  -0.087952  0  3.916545  0
C  C35  1  0.43449454  0.77012679  0.53624062  1  0  -0.076625  -0.087629  0  3.917521  0
C  C36  1  0.41418808  0.33295818  0.59110434  1  0  -0.091007  -0.124048  0  4.015135  0
C  C37  1  0.32315110  0.74178657  0.40906941  1  0  -0.090858  -0.124287  0  4.014277  0
C  C38  1  0.55377574  0.36220439  0.70938496  1  0  0.037571  0.078069  0  3.981423  0
C  C39  1  0.34454092  0.65263544  0.29086331  1  0  0.03687  0.077882  0  3.983569  0
C  C40  1  0.65583170  0.19517640  0.57925800  1  0  0.104251  0.090106  0  3.989869  0
C  C41  1  0.57634714  0.61549362  0.42085616  1  0  0.104193  0.088532  0  3.993781  0
C  C42  1  0.78097509  0.12163101  0.57337223  1  0  0.11926  0.13317  0  3.986512  0
C  C43  1  0.70734712  0.54785773  0.42656110  1  0  0.118979  0.133543  0  3.986984  0
I  I44  1  0.28608310  0.56361469  0.89924056  1  0  -0.18905  -0.439597  0  1.325336  0
I  I45  1  0.88714674  0.66440972  0.10099664  1  0  -0.188812  -0.439161  0  1.326415  0
I  I46  1  0.08461542  0.15047773  0.08932168  1  0  -0.198143  -0.43349  0  1.289947  0
I  I47  1  0.49501755  0.06114896  0.91038763  1  0  -0.197904  -0.433223  0  1.291249  0
N  N48  1  0.89449192  0.13921302  0.69300669  1  0  -0.298958  -0.246614  0  3.478569  0
N  N49  1  0.70126133  0.44570666  0.30685399  1  0  -0.298589  -0.247257  0  3.475539  0
N  N50  1  0.66894020  0.29391135  0.70307547  1  0  -0.303933  -0.242821  0  3.508471  0
N  N51  1  0.46583459  0.59048477  0.29714350  1  0  -0.303523  -0.241716  0  3.512388  0
N  N52  1  0.66497960  0.93526646  0.19599409  1  0  -0.586887  -0.583411  0  3.43704  0
N  N53  1  0.96847074  0.73912805  0.80393028  1  0  -0.586428  -0.581773  0  3.433283  0
