# generated using pymatgen
data_KH11C7SO9
_symmetry_space_group_name_H-M   'P 1'
_cell_length_a   7.16971504
_cell_length_b   7.24026404
_cell_length_c   11.93326254
_cell_angle_alpha   87.33424851
_cell_angle_beta   81.10738463
_cell_angle_gamma   73.12046782
_symmetry_Int_Tables_number   1
_chemical_formula_structural   KH11C7SO9
_chemical_formula_sum   'K2 H22 C14 S2 O18'
_cell_volume   585.64893291
_cell_formula_units_Z   2
loop_
 _symmetry_equiv_pos_site_id
 _symmetry_equiv_pos_as_xyz
  1  'x, y, z'
loop_
 _atom_site_type_symbol
 _atom_site_label
 _atom_site_symmetry_multiplicity
 _atom_site_fract_x
 _atom_site_fract_y
 _atom_site_fract_z
 _atom_site_occupancy
 _atom_site_hle17_bader_spin_density
 _atom_site_hle17_ddec_charge
 _atom_site_hle17_ddec_spin_density
 _atom_site_hle17_ddec_sum_bond_order
 _atom_site_hle17_magmom
 _atom_site_hse06_10hf_bader_spin_density
 _atom_site_hse06_10hf_ddec_charge
 _atom_site_hse06_10hf_ddec_spin_density
 _atom_site_hse06_10hf_ddec_sum_bond_order
 _atom_site_hse06_10hf_magmom
 _atom_site_hse06_bader_spin_density
 _atom_site_hse06_ddec_charge
 _atom_site_hse06_ddec_spin_density
 _atom_site_hse06_ddec_sum_bond_order
 _atom_site_hse06_magmom
 _atom_site_pbe_bader_spin_density
 _atom_site_pbe_cm5_charge
 _atom_site_pbe_ddec_charge
 _atom_site_pbe_ddec_spin_density
 _atom_site_pbe_ddec_sum_bond_order
 _atom_site_pbe_magmom
K  K0  1  0.72261018  0.57042625  0.10280147  1  0  0.931527  0  0.497669  0  0  0.891273  0  0.686433  0  0  0.904128  0  0.664238  0  0  0.79402  0.881235  0  0.702767  0
K  K1  1  0.27739039  0.42956595  0.89719931  1  0  0.931506  0  0.497693  0  0  0.8913  0  0.686404  0  0  0.904138  0  0.664227  0  0  0.794028  0.88125  0  0.702753  0
H  H2  1  0.65003708  0.28642904  0.64394576  1  0  0.378199  0  0.906128  0  0  0.352435  0  0.979061  0  0  0.364396  0  0.966247  0  0  0.305117  0.344004  0  0.987997  0
H  H3  1  0.34996143  0.71357471  0.35605489  1  0  0.378342  0  0.905969  0  0  0.352501  0  0.979021  0  0  0.364459  0  0.96621  0  0  0.305146  0.34407  0  0.987958  0
H  H4  1  0.08337720  0.39184304  0.65504137  1  0  0.419278  0  0.866981  0  0  0.38886  0  0.941636  0  0  0.401287  0  0.925751  0  0  0.307255  0.380136  0  0.950897  0
H  H5  1  0.91662132  0.60816072  0.34495760  1  0  0.419307  0  0.866986  0  0  0.388898  0  0.941615  0  0  0.401325  0  0.925704  0  0  0.307281  0.380174  0  0.950877  0
H  H6  1  0.88536840  0.08339439  0.21515896  1  0  0.103351  0  0.955602  0  0  0.112738  0  1.018604  0  0  0.116252  0  1.015075  0  0  0.11115  0.110069  0  1.02126  0
H  H7  1  0.11463838  0.91660076  0.78483699  1  0  0.103351  0  0.955618  0  0  0.11273  0  1.018626  0  0  0.116244  0  1.015098  0  0  0.111158  0.110063  0  1.021286  0
H  H8  1  0.00051546  0.12367058  0.39604427  1  0  0.128247  0  0.936617  0  0  0.137278  0  0.995555  0  0  0.141176  0  0.993751  0  0  0.112165  0.134468  0  0.99706  0
H  H9  1  0.99947927  0.87633170  0.60395508  1  0  0.12826  0  0.936522  0  0  0.137323  0  0.995419  0  0  0.141222  0  0.993611  0  0  0.11219  0.13451  0  0.996921  0
H  H10  1  0.28224638  0.26110252  0.38085225  1  0  0.111377  0  0.951607  0  0  0.118847  0  1.018721  0  0  0.122903  0  1.014224  0  0  0.112562  0.115844  0  1.022071  0
H  H11  1  0.71776047  0.73889697  0.61914777  1  0  0.1113  0  0.95165  0  0  0.118801  0  1.018749  0  0  0.122855  0  1.014253  0  0  0.112556  0.115797  0  1.0221  0
H  H12  1  0.25742059  0.90603690  0.16145314  1  0  0.422877  0  0.875421  0  0  0.392021  0  0.938934  0  0  0.401511  0  0.924924  0  0  0.299486  0.385318  0  0.948832  0
H  H13  1  0.74257781  0.09396252  0.83854764  1  0  0.422863  0  0.875445  0  0  0.392002  0  0.938967  0  0  0.401492  0  0.924956  0  0  0.299453  0.385295  0  0.948869  0
H  H14  1  0.31233643  0.77119272  0.05447829  1  0  0.416449  0  0.886167  0  0  0.386348  0  0.950393  0  0  0.396041  0  0.936139  0  0  0.297411  0.379481  0  0.960487  0
H  H15  1  0.68766197  0.22880670  0.94552165  1  0  0.416461  0  0.886148  0  0  0.386357  0  0.950384  0  0  0.39605  0  0.936127  0  0  0.297403  0.37949  0  0.960476  0
H  H16  1  0.12435755  0.18843700  0.07564240  1  0  0.413136  0  0.894407  0  0  0.382144  0  0.960026  0  0  0.39207  0  0.945206  0  0  0.290694  0.375105  0  0.970545  0
H  H17  1  0.87564224  0.81156243  0.92435992  1  0  0.413136  0  0.894413  0  0  0.382132  0  0.960053  0  0  0.392059  0  0.945233  0  0  0.290679  0.37509  0  0.970579  0
H  H18  1  0.13322069  0.40899602  0.22102497  1  0  0.420892  0  0.870068  0  0  0.39049  0  0.936414  0  0  0.399689  0  0.922989  0  0  0.302518  0.384  0  0.945874  0
H  H19  1  0.86677911  0.59100341  0.77897568  1  0  0.420876  0  0.870135  0  0  0.390476  0  0.936445  0  0  0.399675  0  0.923019  0  0  0.302512  0.383984  0  0.945907  0
H  H20  1  0.02215263  0.16399486  0.97234376  1  0  0.421994  0  0.855404  0  0  0.397731  0  0.920007  0  0  0.406923  0  0.906124  0  0  0.303822  0.391119  0  0.930018  0
H  H21  1  0.97785087  0.83600170  0.02765663  1  0  0.421942  0  0.855476  0  0  0.397667  0  0.920105  0  0  0.406859  0  0.906221  0  0  0.303789  0.391053  0  0.93012  0
H  H22  1  0.12612768  0.62964158  0.19714559  1  0  0.443373  0  0.849896  0  0  0.414231  0  0.908338  0  0  0.424355  0  0.893608  0  0  0.301518  0.407073  0  0.918741  0
H  H23  1  0.87387029  0.37035928  0.80285519  1  0  0.443381  0  0.849887  0  0  0.414236  0  0.908334  0  0  0.424359  0  0.893606  0  0  0.30151  0.407077  0  0.918739  0
C  C24  1  0.57614325  0.17245910  0.28630787  1  0  -0.17039  0  3.773318  0  0  -0.148161  0  4.0374  0  0  -0.15966  0  4.059282  0  0  -0.033125  -0.140927  0  4.022791  0
C  C25  1  0.42385841  0.82753890  0.71369097  1  0  -0.170452  0  3.773494  0  0  -0.148237  0  4.037606  0  0  -0.159738  0  4.059491  0  0  -0.033132  -0.141003  0  4.022999  0
C  C26  1  0.77915016  0.13269316  0.29108349  1  0  -0.009667  0  3.718058  0  0  -0.038307  0  3.970713  0  0  -0.031343  0  3.986242  0  0  -0.071052  -0.042398  0  3.959997  0
C  C27  1  0.22085345  0.86730775  0.70891510  1  0  -0.00964  0  3.7181  0  0  -0.038268  0  3.970757  0  0  -0.031304  0  3.986289  0  0  -0.071056  -0.042361  0  3.960046  0
C  C28  1  0.84390606  0.15613153  0.39139295  1  0  -0.167784  0  3.666444  0  0  -0.187311  0  3.923139  0  0  -0.195469  0  3.940115  0  0  -0.092189  -0.182225  0  3.911892  0
C  C29  1  0.15609290  0.84387079  0.60860602  1  0  -0.167798  0  3.666299  0  0  -0.187339  0  3.922974  0  0  -0.195497  0  3.939954  0  0  -0.092203  -0.182247  0  3.911724  0
C  C30  1  0.70702917  0.21822616  0.48986783  1  0  0.355453  0  3.775074  0  0  0.338425  0  4.035203  0  0  0.35549  0  4.048918  0  0  0.104472  0.327019  0  4.025681  0
C  C31  1  0.29297304  0.78177474  0.51013005  1  0  0.355397  0  3.774991  0  0  0.338347  0  4.035119  0  0  0.355412  0  4.048834  0  0  0.104486  0.326942  0  4.025596  0
C  C32  1  0.50222444  0.25641572  0.48514922  1  0  -0.23347  0  3.776975  0  0  -0.21357  0  4.021914  0  0  -0.230701  0  4.046747  0  0  -0.03811  -0.202462  0  4.005259  0
C  C33  1  0.49777448  0.74358659  0.51485310  1  0  -0.233466  0  3.776922  0  0  -0.213506  0  4.021786  0  0  -0.230638  0  4.046622  0  0  -0.038131  -0.202396  0  4.00513  0
C  C34  1  0.43919159  0.23269623  0.38270115  1  0  -0.018962  0  3.732894  0  0  -0.063849  0  3.996028  0  0  -0.055248  0  4.011498  0  0  -0.074427  -0.069167  0  3.985514  0
C  C35  1  0.56081114  0.76730756  0.61729912  1  0  -0.018904  0  3.732881  0  0  -0.063838  0  3.996009  0  0  -0.055237  0  4.011481  0  0  -0.074451  -0.069158  0  3.985494  0
C  C36  1  0.36050008  0.31898959  0.58865826  1  0  0.676971  0  3.822879  0  0  0.623089  0  4.122601  0  0  0.657428  0  4.115505  0  0  0.230291  0.599823  0  4.126888  0
C  C37  1  0.63949841  0.68101417  0.41134323  1  0  0.677011  0  3.822878  0  0  0.623125  0  4.122572  0  0  0.657462  0  4.115477  0  0  0.230264  0.599856  0  4.126861  0
S  S38  1  0.49951712  0.14158986  0.15592096  1  0  1.327161  0  5.617363  0  0  1.228514  0  6.136663  0  0  1.276539  0  6.112888  0  0  0.518249  1.195425  0  6.152128  0
S  S39  1  0.50048172  0.85840811  0.84407898  1  0  1.327164  0  5.617254  0  0  1.228521  0  6.13655  0  0  1.276546  0  6.112781  0  0  0.518212  1.195421  0  6.152019  0
O  O40  1  0.51841924  0.30638553  0.08108195  1  0  -0.747574  0  1.987444  0  0  -0.696592  0  2.24265  0  0  -0.717857  0  2.227791  0  0  -0.431187  -0.681321  0  2.252262  0
O  O41  1  0.48158056  0.69361389  0.91892038  1  0  -0.747507  0  1.98743  0  0  -0.696515  0  2.242612  0  0  -0.717789  0  2.22777  0  0  -0.431144  -0.681246  0  2.25223  0
O  O42  1  0.62517525  0.95704208  0.10898116  1  0  -0.696672  0  1.99712  0  0  -0.653213  0  2.264365  0  0  -0.674187  0  2.249702  0  0  -0.409503  -0.638315  0  2.274026  0
O  O43  1  0.37482595  0.04295735  0.89102020  1  0  -0.696714  0  1.997075  0  0  -0.653258  0  2.264324  0  0  -0.674228  0  2.24966  0  0  -0.40953  -0.638358  0  2.27399  0
O  O44  1  0.28788156  0.14652845  0.18588658  1  0  -0.710197  0  2.003073  0  0  -0.635452  0  2.230238  0  0  -0.658557  0  2.215388  0  0  -0.325356  -0.619233  0  2.240066  0
O  O45  1  0.71211725  0.85346952  0.81411587  1  0  -0.710174  0  2.002977  0  0  -0.635454  0  2.230211  0  0  -0.658535  0  2.215305  0  0  -0.325314  -0.619206  0  2.240022  0
O  O46  1  0.77346501  0.23853911  0.58621433  1  0  -0.48838  0  2.100699  0  0  -0.441737  0  2.311726  0  0  -0.461932  0  2.302826  0  0  -0.335552  -0.427351  0  2.317254  0
O  O47  1  0.22653817  0.76146324  0.41378343  1  0  -0.488367  0  2.100482  0  0  -0.441717  0  2.311628  0  0  -0.461917  0  2.302742  0  0  -0.33554  -0.427329  0  2.31715  0
O  O48  1  0.17393597  0.34662544  0.57933649  1  0  -0.528653  0  2.095109  0  0  -0.475438  0  2.310821  0  0  -0.497559  0  2.295522  0  0  -0.317158  -0.460168  0  2.319603  0
O  O49  1  0.82606384  0.65337399  0.42066416  1  0  -0.528733  0  2.095151  0  0  -0.475511  0  2.310849  0  0  -0.497632  0  2.295526  0  0  -0.317186  -0.460242  0  2.319634  0
O  O50  1  0.41799197  0.34430143  0.67961468  1  0  -0.630812  0  2.014566  0  0  -0.585532  0  2.247214  0  0  -0.608406  0  2.239547  0  0  -0.371644  -0.569837  0  2.252263  0
O  O51  1  0.58200609  0.65570377  0.32038764  1  0  -0.630905  0  2.014573  0  0  -0.58557  0  2.247203  0  0  -0.608441  0  2.239535  0  0  -0.371616  -0.569876  0  2.252254  0
O  O52  1  0.22928967  0.79569707  0.12942498  1  0  -0.835578  0  1.825362  0  0  -0.776011  0  1.978472  0  0  -0.794346  0  1.948445  0  0  -0.577276  -0.762952  0  1.99948  0
O  O53  1  0.77070549  0.20430377  0.87057437  1  0  -0.835571  0  1.825349  0  0  -0.775992  0  1.978468  0  0  -0.794331  0  1.948441  0  0  -0.577228  -0.762934  0  1.999479  0
O  O54  1  0.01234506  0.24923928  0.03524473  1  0  -0.890736  0  1.836023  0  0  -0.852358  0  2.018192  0  0  -0.868967  0  1.988408  0  0  -0.710684  -0.840387  0  2.039178  0
O  O55  1  0.98765462  0.75075580  0.96475772  1  0  -0.890681  0  1.83604  0  0  -0.852284  0  2.018202  0  0  -0.868894  0  1.988421  0  0  -0.710626  -0.84031  0  2.039193  0
O  O56  1  0.04608934  0.54200114  0.22885068  1  0  -0.841393  0  1.833986  0  0  -0.786908  0  1.999134  0  0  -0.805962  0  1.969854  0  0  -0.603495  -0.77339  0  2.019154  0
O  O57  1  0.95391188  0.45799830  0.77114900  1  0  -0.841401  0  1.834031  0  0  -0.786914  0  1.999143  0  0  -0.805969  0  1.969868  0  0  -0.603484  -0.773393  0  2.019167  0
