# generated using pymatgen
data_CdH7C7SNCl2
_symmetry_space_group_name_H-M   'P 1'
_cell_length_a   3.86750584
_cell_length_b   11.07542800
_cell_length_c   23.21193486
_cell_angle_alpha   89.99980933
_cell_angle_beta   90.00003814
_cell_angle_gamma   98.02793401
_symmetry_Int_Tables_number   1
_chemical_formula_structural   CdH7C7SNCl2
_chemical_formula_sum   'Cd4 H28 C28 S4 N4 Cl8'
_cell_volume   984.52285933
_cell_formula_units_Z   4
loop_
 _symmetry_equiv_pos_site_id
 _symmetry_equiv_pos_as_xyz
  1  'x, y, z'
loop_
 _atom_site_type_symbol
 _atom_site_label
 _atom_site_symmetry_multiplicity
 _atom_site_fract_x
 _atom_site_fract_y
 _atom_site_fract_z
 _atom_site_occupancy
 _atom_site_hle17_bader_spin_density
 _atom_site_hle17_ddec_charge
 _atom_site_hle17_ddec_spin_density
 _atom_site_hle17_ddec_sum_bond_order
 _atom_site_hle17_magmom
 _atom_site_hse06_10hf_bader_spin_density
 _atom_site_hse06_10hf_ddec_charge
 _atom_site_hse06_10hf_ddec_spin_density
 _atom_site_hse06_10hf_ddec_sum_bond_order
 _atom_site_hse06_10hf_magmom
 _atom_site_hse06_bader_spin_density
 _atom_site_hse06_ddec_charge
 _atom_site_hse06_ddec_spin_density
 _atom_site_hse06_ddec_sum_bond_order
 _atom_site_hse06_magmom
 _atom_site_pbe_bader_spin_density
 _atom_site_pbe_cm5_charge
 _atom_site_pbe_ddec_charge
 _atom_site_pbe_ddec_spin_density
 _atom_site_pbe_ddec_sum_bond_order
 _atom_site_pbe_magmom
Cd  Cd0  1  0.29686664  0.14654862  0.47355197  1  0  0.878851  0  2.039157  0  0  0.738764  0  2.488679  0  0  0.782174  0  2.453084  0  0  0.496196  0.708158  0  2.512805  0
Cd  Cd1  1  0.70313482  0.35345107  0.97355236  1  0  0.878846  0  2.039163  0  0  0.738748  0  2.488698  0  0  0.782159  0  2.4531  0  0  0.496194  0.708143  0  2.512821  0
Cd  Cd2  1  0.70312957  0.85344707  0.52644706  1  0  0.878891  0  2.039144  0  0  0.738805  0  2.488674  0  0  0.782215  0  2.453078  0  0  0.496209  0.708201  0  2.512798  0
Cd  Cd3  1  0.29686614  0.64655009  0.02644840  1  0  0.878858  0  2.039161  0  0  0.738772  0  2.488683  0  0  0.782184  0  2.453084  0  0  0.496205  0.708167  0  2.512813  0
H  H4  1  0.96158463  0.70353606  0.21348189  1  0  0.078375  0  0.996692  0  0  0.08363  0  1.071411  0  0  0.086784  0  1.069308  0  0  0.085687  0.081303  0  1.0729  0
H  H5  1  0.03840506  0.79645616  0.71348621  1  0  0.078379  0  0.996704  0  0  0.083653  0  1.071392  0  0  0.086807  0  1.069289  0  0  0.085689  0.081327  0  1.072867  0
H  H6  1  0.03842265  0.29646146  0.78651757  1  0  0.078345  0  0.996716  0  0  0.083591  0  1.071447  0  0  0.086747  0  1.069341  0  0  0.085674  0.081261  0  1.072935  0
H  H7  1  0.96158520  0.20354409  0.28651584  1  0  0.078306  0  0.996722  0  0  0.083581  0  1.071419  0  0  0.086737  0  1.069314  0  0  0.085661  0.081243  0  1.072917  0
H  H8  1  0.45082808  0.35304676  0.26890364  1  0  0.090757  0  0.976719  0  0  0.101174  0  1.041135  0  0  0.103597  0  1.040374  0  0  0.097463  0.099564  0  1.041427  0
H  H9  1  0.54916022  0.14694887  0.76890263  1  0  0.090724  0  0.97653  0  0  0.101077  0  1.041052  0  0  0.103501  0  1.040289  0  0  0.097415  0.099468  0  1.041347  0
H  H10  1  0.54916109  0.64695075  0.73109539  1  0  0.090697  0  0.976653  0  0  0.101081  0  1.04113  0  0  0.103504  0  1.040369  0  0  0.097399  0.09947  0  1.041427  0
H  H11  1  0.45084886  0.85305321  0.23109555  1  0  0.090644  0  0.976653  0  0  0.101023  0  1.041144  0  0  0.103446  0  1.040383  0  0  0.097381  0.099416  0  1.041439  0
H  H12  1  0.95254450  0.78029914  0.31496497  1  0  0.094974  0  0.93827  0  0  0.108771  0  0.991442  0  0  0.111433  0  0.990916  0  0  0.102904  0.106813  0  0.992014  0
H  H13  1  0.04744395  0.71970150  0.81497157  1  0  0.094999  0  0.938476  0  0  0.108823  0  0.991597  0  0  0.111484  0  0.991068  0  0  0.102938  0.106864  0  0.992171  0
H  H14  1  0.04746428  0.21969565  0.68503492  1  0  0.095009  0  0.938333  0  0  0.10879  0  0.991506  0  0  0.111452  0  0.99098  0  0  0.102906  0.10683  0  0.992078  0
H  H15  1  0.95253662  0.28030695  0.18503221  1  0  0.095018  0  0.938402  0  0  0.108807  0  0.991557  0  0  0.111466  0  0.991032  0  0  0.102924  0.106847  0  0.992127  0
H  H16  1  0.68762844  0.64616414  0.39178030  1  0  0.087556  0  0.991136  0  0  0.095282  0  1.061189  0  0  0.097974  0  1.059442  0  0  0.086563  0.093326  0  1.062468  0
H  H17  1  0.31236501  0.85384144  0.89178411  1  0  0.087553  0  0.991138  0  0  0.095279  0  1.061198  0  0  0.097972  0  1.059451  0  0  0.086539  0.093323  0  1.062478  0
H  H18  1  0.31238330  0.35383156  0.60822003  1  0  0.087613  0  0.991143  0  0  0.095339  0  1.061183  0  0  0.098032  0  1.059435  0  0  0.086564  0.093383  0  1.062463  0
H  H19  1  0.68762405  0.14616884  0.10821794  1  0  0.087538  0  0.991145  0  0  0.09526  0  1.061194  0  0  0.097954  0  1.059444  0  0  0.086553  0.093304  0  1.062473  0
H  H20  1  0.70258318  0.49193343  0.19067267  1  0  0.094965  0  0.955408  0  0  0.10482  0  1.016191  0  0  0.108063  0  1.014408  0  0  0.092455  0.102444  0  1.0176  0
H  H21  1  0.29739790  0.00805818  0.69067530  1  0  0.09506  0  0.955421  0  0  0.104914  0  1.016205  0  0  0.108158  0  1.014419  0  0  0.09251  0.102537  0  1.017613  0
H  H22  1  0.29740671  0.50806591  0.80932680  1  0  0.094996  0  0.955388  0  0  0.104849  0  1.016182  0  0  0.108093  0  1.014399  0  0  0.092471  0.102474  0  1.017593  0
H  H23  1  0.70260199  0.99194025  0.30932546  1  0  0.095076  0  0.955449  0  0  0.104928  0  1.016226  0  0  0.108173  0  1.014438  0  0  0.092519  0.102549  0  1.017635  0
H  H24  1  0.24433637  0.54549426  0.42982975  1  0  0.325354  0  0.912575  0  0  0.307151  0  0.978959  0  0  0.314753  0  0.972958  0  0  0.286213  0.301783  0  0.983176  0
H  H25  1  0.75566171  0.95450286  0.92983042  1  0  0.325392  0  0.912419  0  0  0.307183  0  0.978817  0  0  0.314786  0  0.972816  0  0  0.286243  0.301815  0  0.983033  0
H  H26  1  0.75567019  0.45450144  0.57016928  1  0  0.325459  0  0.912323  0  0  0.30726  0  0.978703  0  0  0.31486  0  0.972708  0  0  0.286326  0.301892  0  0.982919  0
H  H27  1  0.24433336  0.04549648  0.07016905  1  0  0.32537  0  0.912534  0  0  0.307171  0  0.978909  0  0  0.314772  0  0.972915  0  0  0.286252  0.301803  0  0.983121  0
H  H28  1  0.15694021  0.40032580  0.46054941  1  0  0.311915  0  0.941363  0  0  0.293057  0  1.011257  0  0  0.300969  0  1.00483  0  0  0.271878  0.287395  0  1.015974  0
H  H29  1  0.84306452  0.09967581  0.96054977  1  0  0.311901  0  0.941366  0  0  0.293009  0  1.011283  0  0  0.300919  0  1.004862  0  0  0.271854  0.287344  0  1.015997  0
H  H30  1  0.84306190  0.59967172  0.53945006  1  0  0.31193  0  0.941334  0  0  0.293091  0  1.011193  0  0  0.301001  0  1.00477  0  0  0.271888  0.287427  0  1.015909  0
H  H31  1  0.15693644  0.90032536  0.03945099  1  0  0.311903  0  0.941373  0  0  0.293018  0  1.011282  0  0  0.300927  0  1.004861  0  0  0.271852  0.287355  0  1.015998  0
C  C32  1  0.54822369  0.48966726  0.33555158  1  0  -0.02246  0  3.774618  0  0  0.005699  0  3.999593  0  0  -0.003038  0  4.025882  0  0  -0.018292  0.010818  0  3.982825  0
C  C33  1  0.45176885  0.01033155  0.83555465  1  0  -0.022564  0  3.774938  0  0  0.005719  0  3.999732  0  0  -0.003017  0  4.026022  0  0  -0.018308  0.010841  0  3.982962  0
C  C34  1  0.45177733  0.51032752  0.66444788  1  0  -0.022329  0  3.774524  0  0  0.005694  0  3.999737  0  0  -0.003042  0  4.02603  0  0  -0.018352  0.010805  0  3.982977  0
C  C35  1  0.54823614  0.98967326  0.16444697  1  0  -0.022337  0  3.774578  0  0  0.005627  0  3.999815  0  0  -0.003112  0  4.02611  0  0  -0.018358  0.010744  0  3.983053  0
C  C36  1  0.84480620  0.64441696  0.24787717  1  0  -0.039871  0  3.738274  0  0  -0.057541  0  3.988043  0  0  -0.056528  0  4.007958  0  0  -0.082665  -0.057766  0  3.974171  0
C  C37  1  0.15518469  0.85557776  0.74788141  1  0  -0.039937  0  3.738464  0  0  -0.057603  0  3.988247  0  0  -0.056593  0  4.008165  0  0  -0.082698  -0.057824  0  3.974372  0
C  C38  1  0.15520072  0.35557965  0.75212358  1  0  -0.039806  0  3.738325  0  0  -0.057471  0  3.988085  0  0  -0.056462  0  4.008008  0  0  -0.082677  -0.057686  0  3.9742  0
C  C39  1  0.84481183  0.14442522  0.25212064  1  0  -0.039736  0  3.738347  0  0  -0.057413  0  3.988103  0  0  -0.056402  0  4.008019  0  0  -0.082643  -0.057625  0  3.974211  0
C  C40  1  0.55780299  0.44709721  0.27858523  1  0  -0.075209  0  3.71966  0  0  -0.097179  0  3.959689  0  0  -0.096578  0  3.981191  0  0  -0.083207  -0.097225  0  3.944711  0
C  C41  1  0.44218348  0.05290018  0.77858565  1  0  -0.07508  0  3.719511  0  0  -0.097021  0  3.959498  0  0  -0.09642  0  3.980999  0  0  -0.083136  -0.097071  0  3.94453  0
C  C42  1  0.44220171  0.55290031  0.72141337  1  0  -0.075247  0  3.719725  0  0  -0.097149  0  3.959805  0  0  -0.096547  0  3.98131  0  0  -0.083211  -0.097197  0  3.944833  0
C  C43  1  0.55781562  0.94710281  0.22141296  1  0  -0.075118  0  3.719696  0  0  -0.096994  0  3.959769  0  0  -0.096391  0  3.981274  0  0  -0.083127  -0.097046  0  3.9448  0
C  C44  1  0.83747580  0.68741032  0.30433904  1  0  -0.069878  0  3.753669  0  0  -0.079731  0  4.001139  0  0  -0.08394  0  4.023205  0  0  -0.089229  -0.076957  0  3.985955  0
C  C45  1  0.16251081  0.81258584  0.80434076  1  0  -0.06996  0  3.753998  0  0  -0.079856  0  4.001485  0  0  -0.084062  0  4.023549  0  0  -0.089297  -0.077083  0  3.986301  0
C  C46  1  0.16253334  0.31258538  0.69566172  1  0  -0.069967  0  3.753874  0  0  -0.079803  0  4.001305  0  0  -0.08401  0  4.023369  0  0  -0.089211  -0.077027  0  3.986121  0
C  C47  1  0.83747314  0.18741805  0.19566000  1  0  -0.0701  0  3.753963  0  0  -0.079951  0  4.001413  0  0  -0.084155  0  4.023474  0  0  -0.08927  -0.077176  0  3.986225  0
C  C48  1  0.68527802  0.61125542  0.34787231  1  0  -0.086541  0  3.724561  0  0  -0.110675  0  3.971463  0  0  -0.11043  0  3.993269  0  0  -0.091138  -0.110537  0  3.956689  0
C  C49  1  0.31471089  0.88874590  0.84787477  1  0  -0.086452  0  3.724589  0  0  -0.110625  0  3.971456  0  0  -0.110381  0  3.993261  0  0  -0.091082  -0.110489  0  3.956684  0
C  C50  1  0.31473557  0.38873846  0.65212802  1  0  -0.086591  0  3.724593  0  0  -0.110662  0  3.971505  0  0  -0.110417  0  3.993312  0  0  -0.091087  -0.110524  0  3.956731  0
C  C51  1  0.68527672  0.11126072  0.15212641  1  0  -0.086379  0  3.724529  0  0  -0.110433  0  3.971443  0  0  -0.110185  0  3.993244  0  0  -0.091035  -0.110297  0  3.956668  0
C  C52  1  0.70114505  0.52454004  0.23501061  1  0  -0.068074  0  3.747054  0  0  -0.077159  0  3.992623  0  0  -0.081208  0  4.013847  0  0  -0.088486  -0.07448  0  3.977992  0
C  C53  1  0.29884428  0.97545750  0.73501165  1  0  -0.068177  0  3.747118  0  0  -0.077284  0  3.992711  0  0  -0.081332  0  4.013934  0  0  -0.088521  -0.074602  0  3.978079  0
C  C54  1  0.29885224  0.47545839  0.76498800  1  0  -0.068093  0  3.747012  0  0  -0.077171  0  3.992568  0  0  -0.08122  0  4.01379  0  0  -0.088443  -0.074491  0  3.977941  0
C  C55  1  0.70116071  0.02454731  0.26498868  1  0  -0.068261  0  3.747204  0  0  -0.077348  0  3.992781  0  0  -0.081398  0  4.014004  0  0  -0.088559  -0.074664  0  3.978148  0
C  C56  1  0.40522778  0.40675294  0.38230216  1  0  0.364626  0  3.752634  0  0  0.338164  0  4.033429  0  0  0.363516  0  4.041111  0  0  0.154684  0.321448  0  4.027398  0
C  C57  1  0.59476563  0.09324737  0.88230209  1  0  0.364676  0  3.752701  0  0  0.338165  0  4.033516  0  0  0.363516  0  4.0412  0  0  0.154668  0.321447  0  4.027488  0
C  C58  1  0.59477691  0.59324457  0.61769687  1  0  0.364665  0  3.752264  0  0  0.33813  0  4.03329  0  0  0.363478  0  4.04098  0  0  0.154698  0.321431  0  4.02723  0
C  C59  1  0.40523641  0.90675653  0.11769651  1  0  0.364607  0  3.75257  0  0  0.338146  0  4.033474  0  0  0.363496  0  4.041161  0  0  0.154681  0.321431  0  4.027445  0
S  S60  1  0.43380030  0.25615267  0.37622739  1  0  -0.348841  0  2.150729  0  0  -0.316986  0  2.500171  0  0  -0.340927  0  2.499161  0  0  -0.13173  -0.300815  0  2.500281  0
S  S61  1  0.56619971  0.24385135  0.87622708  1  0  -0.348866  0  2.150701  0  0  -0.316995  0  2.500141  0  0  -0.340936  0  2.49913  0  0  -0.131735  -0.300828  0  2.500254  0
S  S62  1  0.56619922  0.74384485  0.62377208  1  0  -0.348917  0  2.150677  0  0  -0.317  0  2.500136  0  0  -0.34094  0  2.499127  0  0  -0.131755  -0.30084  0  2.50024  0
S  S63  1  0.43380859  0.75615529  0.12377282  1  0  -0.348878  0  2.150696  0  0  -0.316997  0  2.500148  0  0  -0.340938  0  2.499139  0  0  -0.131745  -0.300827  0  2.500267  0
N  N64  1  0.26907403  0.45479577  0.42787824  1  0  -0.571824  0  3.196719  0  0  -0.527491  0  3.424036  0  0  -0.548459  0  3.422972  0  0  -0.54777  -0.513301  0  3.42455  0
N  N65  1  0.73091990  0.04520515  0.92787826  1  0  -0.571844  0  3.196537  0  0  -0.527454  0  3.42392  0  0  -0.548419  0  3.422854  0  0  -0.54774  -0.51326  0  3.424427  0
N  N66  1  0.73093067  0.54520175  0.57212079  1  0  -0.571978  0  3.196322  0  0  -0.527623  0  3.423732  0  0  -0.548587  0  3.422667  0  0  -0.547894  -0.513437  0  3.424235  0
N  N67  1  0.26907626  0.95479692  0.07212164  1  0  -0.571848  0  3.196722  0  0  -0.527459  0  3.424104  0  0  -0.548422  0  3.423042  0  0  -0.547764  -0.513267  0  3.42461  0
Cl  Cl68  1  0.85434933  0.27780145  0.52432490  1  0  -0.541607  0  1.070554  0  0  -0.479223  0  1.34268  0  0  -0.496482  0  1.323255  0  0  -0.270093  -0.46638  0  1.355984  0
Cl  Cl69  1  0.14565113  0.22219587  0.02432395  1  0  -0.541598  0  1.070577  0  0  -0.479206  0  1.342678  0  0  -0.496476  0  1.323282  0  0  -0.270098  -0.466366  0  1.35598  0
Cl  Cl70  1  0.14565055  0.72219698  0.47567413  1  0  -0.541603  0  1.070547  0  0  -0.479221  0  1.342661  0  0  -0.496478  0  1.323234  0  0  -0.270086  -0.466379  0  1.355965  0
Cl  Cl71  1  0.85434286  0.77780073  0.97567508  1  0  -0.541593  0  1.070572  0  0  -0.479211  0  1.342713  0  0  -0.496476  0  1.323299  0  0  -0.270089  -0.466368  0  1.356018  0
Cl  Cl72  1  0.25305305  0.00635729  0.56636080  1  0  -0.503071  0  1.14406  0  0  -0.430531  0  1.423897  0  0  -0.45168  0  1.404997  0  0  -0.271432  -0.415596  0  1.436966  0
Cl  Cl73  1  0.74694496  0.49363974  0.06636205  1  0  -0.503073  0  1.144084  0  0  -0.430533  0  1.423929  0  0  -0.451678  0  1.405024  0  0  -0.271436  -0.415597  0  1.436996  0
Cl  Cl74  1  0.74694647  0.99364023  0.43363823  1  0  -0.503067  0  1.144073  0  0  -0.430527  0  1.423912  0  0  -0.451676  0  1.405011  0  0  -0.271434  -0.415592  0  1.43698  0
Cl  Cl75  1  0.25305823  0.50636051  0.93363871  1  0  -0.503053  0  1.144087  0  0  -0.430514  0  1.423946  0  0  -0.451658  0  1.405035  0  0  -0.271424  -0.415578  0  1.437015  0
