# generated using pymatgen
data_Zn6H41C78NO26
_symmetry_space_group_name_H-M   'P 1'
_cell_length_a   18.58820042
_cell_length_b   18.69805972
_cell_length_c   18.77966994
_cell_angle_alpha   109.24198459
_cell_angle_beta   109.65609673
_cell_angle_gamma   109.17764665
_symmetry_Int_Tables_number   1
_chemical_formula_structural   Zn6H41C78NO26
_chemical_formula_sum   'Zn6 H41 C78 N1 O26'
_cell_volume   5045.35076625
_cell_formula_units_Z   1
loop_
 _symmetry_equiv_pos_site_id
 _symmetry_equiv_pos_as_xyz
  1  'x, y, z'
loop_
 _atom_site_type_symbol
 _atom_site_label
 _atom_site_symmetry_multiplicity
 _atom_site_fract_x
 _atom_site_fract_y
 _atom_site_fract_z
 _atom_site_occupancy
 _atom_site_pbe_bader_charge
 _atom_site_pbe_bader_spin_density
 _atom_site_pbe_cm5_charge
 _atom_site_pbe_ddec_charge
 _atom_site_pbe_ddec_spin_density
 _atom_site_pbe_ddec_sum_bond_order
 _atom_site_pbe_magmom
Zn  Zn0  1  0.93749991  0.94444164  0.50123698  1  1.314231  0  0.731173  0.96376  0  2.148447  0
Zn  Zn1  1  0.06396840  0.06490183  0.49843927  1  1.308149  0  0.728466  0.961032  0  2.09709  0
Zn  Zn2  1  0.05948488  0.50037868  0.06035372  1  1.301837  0  0.723225  0.951566  0  2.116612  0
Zn  Zn3  1  0.93544677  0.50559653  0.93904634  1  1.310056  0  0.725102  0.951281  0  2.15983  0
Zn  Zn4  1  0.49443656  0.93253466  0.93239409  1  1.309838  0  0.722301  0.952329  0  2.161777  0
Zn  Zn5  1  0.50888545  0.06218680  0.06472882  1  1.30956  0  0.723724  0.953866  0  2.145563  0
H  H6  1  0.01522720  0.64068855  0.44753273  1  0.066634  0  0.106534  0.104309  0  0.984577  0
H  H7  1  0.94650899  0.92374614  0.28179110  1  0.087405  0  0.096239  0.094906  0  1.07557  0
H  H8  1  0.91482575  0.93678773  0.15112882  1  0.052706  0  0.10465  0.103517  0  0.987959  0
H  H9  1  0.90621811  0.82697749  0.02275299  1  0.047736  0  0.103761  0.099251  0  0.987731  0
H  H10  1  0.92491141  0.70454073  0.02661169  1  0.103907  0  0.101443  0.112325  0  1.036619  0
H  H11  1  0.97323709  0.53828000  0.18736685  1  0.08689  0  0.096195  0.102378  0  1.052985  0
H  H12  1  0.99961585  0.52616975  0.31830914  1  0.06991  0  0.103775  0.100081  0  0.991763  0
H  H13  1  0.99605137  0.76292458  0.44075187  1  0.077728  0  0.102368  0.110884  0  1.01249  0
H  H14  1  0.28458370  0.02919521  0.62848485  1  0.10626  0  0.111161  0.116732  0  0.981211  0
H  H15  1  0.07474792  0.02865410  0.72550574  1  0.073007  0  0.098487  0.107899  0  1.028765  0
H  H16  1  0.05087190  0.00397342  0.83812007  1  0.066939  0  0.101175  0.09631  0  0.991569  0
H  H17  1  0.14727724  0.96576712  0.93010684  1  0.074515  0  0.102542  0.099574  0  0.995651  0
H  H18  1  0.27264224  0.96305983  0.91490139  1  0.05487  0  0.100946  0.110286  0  1.02218  0
H  H19  1  0.38714604  0.00183802  0.72800523  1  0.08366  0  0.107802  0.11111  0  0.995468  0
H  H20  1  0.94451952  0.11235972  0.73734014  1  0.083984  0  0.113895  0.120015  0  0.980362  0
H  H21  1  0.97521230  0.20337535  0.53115581  1  0.163238  0  0.115082  0.13447  0  1.026481  0
H  H22  1  0.98171368  0.44932692  0.62033866  1  0.109048  0  0.118097  0.128872  0  0.988372  0
H  H23  1  0.97100187  0.44189455  0.74656104  1  0.104681  0  0.109861  0.122418  0  1.006009  0
H  H24  1  0.95294846  0.23719679  0.84982675  1  0.089183  0  0.113594  0.118953  0  0.976748  0
H  H25  1  0.90029499  0.12881651  0.31876919  1  0.109618  0  0.10699  0.12163  0  1.017356  0
H  H26  1  0.80627866  0.84234544  0.29240396  1  0.101969  0  0.096398  0.103245  0  1.059322  0
H  H27  1  0.68198042  0.69736864  0.18244697  1  0.06715  0  0.105568  0.102915  0  0.983278  0
H  H28  1  0.56051392  0.67634857  0.05277852  1  0.069359  0  0.102385  0.097313  0  0.992162  0
H  H29  1  0.56772791  0.80314386  0.03466473  1  0.083228  0  0.099908  0.108993  0  1.025807  0
H  H30  1  0.77317517  0.10905597  0.19612187  1  0.073838  0  0.108924  0.114454  0  0.984687  0
H  H31  1  0.89730290  0.37868545  0.16106027  1  0.086828  0  0.109247  0.111942  0  0.999934  0
H  H32  1  0.81502887  0.27294670  0.85924171  1  0.085415  0  0.097038  0.103214  0  1.038715  0
H  H33  1  0.68449830  0.15352460  0.72044698  1  0.0754  0  0.103938  0.10154  0  0.987461  0
H  H34  1  0.55196633  0.05799778  0.71854593  1  0.043831  0  0.102449  0.097595  0  0.992224  0
H  H35  1  0.55578730  0.07687776  0.85576454  1  0.118594  0  0.099099  0.10757  0  1.039168  0
H  H36  1  0.76867990  0.27694384  0.15948617  1  0.081914  0  0.111574  0.117046  0  0.982849  0
H  H37  1  0.11508193  0.74133986  0.11212129  1  0.077015  0  0.097637  0.104728  0  1.02772  0
H  H38  1  0.12245325  0.88337084  0.17512793  1  0.080806  0  0.100263  0.099969  0  1.008261  0
H  H39  1  0.22335529  0.00890515  0.17272994  1  0.075195  0  0.102259  0.098403  0  0.990988  0
H  H40  1  0.31793923  0.99200073  0.11034846  1  0.114124  0  0.100675  0.113743  0  1.035926  0
H  H41  1  0.35819161  0.75181633  0.97268836  1  0.104171  0  0.105406  0.115695  0  1.008488  0
H  H42  1  0.17739893  0.56297756  0.82288394  1  0.036814  0  0.083843  0.112187  0  1.010439  0
H  H43  1  0.29238605  0.61421905  0.86314706  1  0.019103  0  0.086358  0.111561  0  1.011147  0
H  H44  1  0.23501945  0.50541490  0.83983806  1  0.045374  0  0.088649  0.116645  0  0.998833  0
H  H45  1  0.31757429  0.60745592  0.00076990  1  0.053798  0  0.098158  0.095983  0  0.960488  0
H  H46  1  0.20401128  0.55151779  0.96012542  1  0.036118  0  0.092177  0.093297  0  0.996065  0
C  C47  1  0.13833683  0.02674158  0.61878436  1  1.534756  0  0.227246  0.61794  0  4.117587  0
C  C48  1  0.97283941  0.86180010  0.38206264  1  1.548243  0  0.227519  0.615894  0  4.12411  0
C  C49  1  0.90707146  0.01491567  0.37118501  1  1.517825  0  0.219933  0.597588  0  4.143106  0
C  C50  1  0.96978360  0.10320767  0.60508009  1  1.554128  0  0.224757  0.609878  0  4.132147  0
C  C51  1  0.93976338  0.87419572  0.22581055  1  -0.068654  0  -0.09522  -0.127318  0  3.988598  0
C  C52  1  0.92350371  0.88236417  0.15292020  1  0.019783  0  -0.090619  -0.078193  0  4.027921  0
C  C53  1  0.91840146  0.82020364  0.08055542  1  -0.002849  0  -0.088527  -0.077414  0  4.046307  0
C  C54  1  0.92912583  0.75156724  0.08269026  1  -0.081994  0  -0.095538  -0.138156  0  3.982253  0
C  C55  1  0.94404060  0.73928576  0.15660797  1  -0.002394  0  0.002728  0.066543  0  3.954759  0
C  C56  1  0.94986885  0.80320852  0.23072585  1  -0.018623  0  -0.000984  0.055873  0  3.962517  0
C  C57  1  0.95632336  0.66970789  0.16157705  1  -0.015145  0  -0.007914  -0.124131  0  3.871312  0
C  C58  1  0.96972353  0.65944659  0.23589416  1  -0.021618  0  0.002858  0.070205  0  3.944507  0
C  C59  1  0.97379857  0.72275000  0.30904219  1  0.030362  0  0.000345  0.059717  0  3.97347  0
C  C60  1  0.96432397  0.79331100  0.30498167  1  -0.035797  0  -0.001217  -0.103411  0  3.875018  0
C  C61  1  0.97794513  0.58792033  0.24189921  1  -0.046819  0  -0.096656  -0.132766  0  3.976091  0
C  C62  1  0.99311861  0.58126996  0.31560889  1  -0.040559  0  -0.090405  -0.079173  0  4.038238  0
C  C63  1  0.00134861  0.64584939  0.38876005  1  -0.068616  0  -0.090948  -0.081121  0  4.043178  0
C  C64  1  0.99123304  0.71420505  0.38514911  1  -0.009458  0  -0.092943  -0.131183  0  3.979347  0
C  C65  1  0.11848041  0.01436093  0.76642012  1  -0.053096  0  -0.095038  -0.132203  0  3.983671  0
C  C66  1  0.10483290  0.99999998  0.82936908  1  -0.039897  0  -0.093403  -0.082994  0  4.050918  0
C  C67  1  0.15966266  0.97937209  0.88190605  1  -0.049802  0  -0.092132  -0.083145  0  4.04485  0
C  C68  1  0.22955897  0.97712929  0.87294961  1  0.009476  0  -0.091154  -0.126046  0  3.973148  0
C  C69  1  0.24695599  0.99365939  0.81014178  1  -0.002042  0  0.001585  0.0611  0  3.939268  0
C  C70  1  0.18808098  0.00950126  0.75312183  1  0.012656  0  0.001985  0.064084  0  3.935189  0
C  C71  1  0.20342735  0.02157785  0.68688552  1  0.020062  0  -0.009623  -0.072517  0  3.926358  0
C  C72  1  0.27462472  0.01998754  0.67948430  1  -0.054526  0  -0.078847  -0.089127  0  3.989133  0
C  C73  1  0.33196469  0.00407754  0.73515406  1  -0.048532  0  -0.083413  -0.101616  0  3.996391  0
C  C74  1  0.31941490  0.99210896  0.79982468  1  -0.032479  0  -0.003927  -0.05606  0  3.922474  0
C  C75  1  0.97379214  0.25400669  0.57909399  1  -0.01569  0  -0.069273  -0.148399  0  3.901865  0
C  C76  1  0.97832551  0.32545932  0.57041820  1  0.163037  0  0.073458  0.067734  0  3.956435  0
C  C77  1  0.97795827  0.39443261  0.63041746  1  0.007499  0  -0.080008  -0.124717  0  4.001978  0
C  C78  1  0.97242438  0.38982433  0.70009503  1  -0.009115  0  -0.081292  -0.111128  0  3.960524  0
C  C79  1  0.96673810  0.31724084  0.71213330  1  0.010521  0  0.00991  0.067588  0  3.930308  0
C  C80  1  0.96806149  0.24775926  0.65043780  1  0.034408  0  0.007555  0.068879  0  3.924816  0
C  C81  1  0.96109269  0.17405120  0.66191396  1  -0.039249  0  0.000527  -0.053177  0  3.899268  0
C  C82  1  0.95172987  0.16968152  0.73067164  1  0.015162  0  -0.075471  -0.090657  0  3.979281  0
C  C83  1  0.95535497  0.23959759  0.79340414  1  0.035773  0  -0.072245  -0.080997  0  3.972181  0
C  C84  1  0.96279634  0.31225272  0.78510243  1  -0.054989  0  -0.002974  -0.062561  0  3.916649  0
C  C85  1  0.75520570  0.83514273  0.23644635  1  -0.012602  0  -0.094808  -0.129856  0  3.978182  0
C  C86  1  0.68452871  0.75326348  0.17460147  1  -0.057675  0  -0.09003  -0.076056  0  4.029169  0
C  C87  1  0.61609053  0.74145536  0.10152100  1  -0.058862  0  -0.092388  -0.082206  0  4.054663  0
C  C88  1  0.61978663  0.81204042  0.09142409  1  -0.059876  0  -0.094268  -0.136275  0  3.989256  0
C  C89  1  0.69250299  0.89721772  0.15325603  1  0.022973  0  0.000363  0.056607  0  3.953214  0
C  C90  1  0.76225119  0.90966254  0.22814727  1  -0.013611  0  0.003307  0.065963  0  3.923862  0
C  C91  1  0.83665423  0.99570645  0.28831989  1  -0.027489  0  -0.011651  -0.077079  0  3.930928  0
C  C92  1  0.84231775  0.06458205  0.27324024  1  -0.024879  0  -0.080543  -0.09134  0  3.977412  0
C  C93  1  0.77126105  0.05314983  0.20352825  1  -0.043002  0  -0.08537  -0.098978  0  3.995964  0
C  C94  1  0.69735367  0.97173695  0.14526434  1  0.008443  0  -0.003595  -0.055724  0  3.926427  0
C  C95  1  0.90907597  0.38395382  0.02519570  1  1.512224  0  0.22103  0.602885  0  4.139382  0
C  C96  1  0.96241633  0.61000208  0.09091913  1  1.52634  0  0.223504  0.609662  0  4.117188  0
C  C97  1  0.13665893  0.62398455  0.02672592  1  1.547817  0  0.229232  0.623665  0  4.138526  0
C  C98  1  0.96925491  0.38498977  0.85650491  1  1.545524  0  0.224751  0.606483  0  4.139437  0
C  C99  1  0.62275771  0.13645312  0.02383077  1  1.554914  0  0.221452  0.60631  0  4.130043  0
C  C100  1  0.38624313  0.98380948  0.86303391  1  1.535159  0  0.223997  0.609861  0  4.133691  0
C  C101  1  0.38821493  0.90927742  0.02929643  1  1.515207  0  0.224094  0.608523  0  4.111435  0
C  C102  1  0.62063887  0.96722504  0.07954359  1  1.550023  0  0.226763  0.617794  0  4.119204  0
C  C103  1  0.75895092  0.23024229  0.85934524  1  -0.087995  0  -0.095426  -0.132229  0  3.985373  0
C  C104  1  0.68537364  0.16363723  0.78141295  1  -0.011541  0  -0.09228  -0.082799  0  4.046138  0
C  C105  1  0.61094633  0.10936770  0.78043862  1  -0.040571  0  -0.091741  -0.081644  0  4.047401  0
C  C106  1  0.61271873  0.12036563  0.85735347  1  -0.091451  0  -0.092687  -0.128463  0  3.975021  0
C  C107  1  0.68848865  0.18693430  0.93911969  1  0.019843  0  0.003354  0.063796  0  3.932668  0
C  C108  1  0.76226432  0.24526271  0.93997363  1  0.007811  0  0.002307  0.065317  0  3.936676  0
C  C109  1  0.83714846  0.31508544  0.02210654  1  -0.022186  0  -0.008114  -0.066276  0  3.933865  0
C  C110  1  0.83964423  0.32509585  0.09942646  1  0.007486  0  -0.080339  -0.093247  0  3.990225  0
C  C111  1  0.76717334  0.26827052  0.09859500  1  -0.054458  0  -0.078809  -0.092785  0  3.987817  0
C  C112  1  0.69349285  0.20015501  0.02068942  1  0.012911  0  -0.006578  -0.062354  0  3.92624  0
C  C113  1  0.15902209  0.79572860  0.11075625  1  0.023792  0  -0.093329  -0.130211  0  3.972432  0
C  C114  1  0.16336221  0.87534602  0.14640929  1  -0.15518  0  -0.093583  -0.080775  0  4.040512  0
C  C115  1  0.22035097  0.94605187  0.14502920  1  -0.053394  0  -0.09343  -0.083722  0  4.050232  0
C  C116  1  0.27313857  0.93681811  0.10973304  1  -0.063246  0  -0.096464  -0.139464  0  3.986154  0
C  C117  1  0.27143026  0.85607968  0.07354238  1  0.024118  0  0.000634  0.064023  0  3.949317  0
C  C118  1  0.21144670  0.78332999  0.07274179  1  -0.008457  0  -0.001784  0.059247  0  3.961096  0
C  C119  1  0.20595391  0.70037311  0.03446417  1  -0.034848  0  -0.00453  -0.112923  0  3.890822  0
C  C120  1  0.25878283  0.68797419  0.99962310  1  0.039182  0  -0.003869  0.09749  0  3.952308  0
C  C121  1  0.31700513  0.76002118  0.00087190  1  -0.072435  0  -0.07919  -0.135057  0  3.947118  0
C  C122  1  0.32416936  0.84160538  0.03557354  1  0.013294  0  -0.015621  -0.083961  0  3.946489  0
C  C123  1  0.25500403  0.60125975  0.95924438  1  -0.023679  0  -0.158603  -0.141871  0  3.968308  0
C  C124  1  0.23912512  0.56940660  0.86604685  1  -0.086184  0  -0.242403  -0.349963  0  3.969667  0
N  N125  1  0.98364960  0.32993276  0.49518488  1  0.367015  0  0.057445  0.516896  0  4.204374  0
O  O126  1  0.05770610  0.97614331  0.59014406  1  -1.176094  0  -0.3124  -0.576855  0  2.390771  0
O  O127  1  0.16599403  0.07861414  0.59112168  1  -1.129293  0  -0.314936  -0.526168  0  2.213767  0
O  O128  1  0.91843470  0.83874682  0.40904503  1  -1.127298  0  -0.310059  -0.529997  0  2.230879  0
O  O129  1  0.03291830  0.93923239  0.41514543  1  -1.173659  0  -0.307339  -0.563695  0  2.32802  0
O  O130  1  0.88315454  0.97647819  0.41041117  1  -1.172209  0  -0.311916  -0.569835  0  2.382976  0
O  O131  1  0.98777799  0.06935968  0.39955554  1  -1.131062  0  -0.312717  -0.52461  0  2.222239  0
O  O132  1  0.92104025  0.02462810  0.58539050  1  -1.132692  0  -0.315818  -0.531653  0  2.22099  0
O  O133  1  0.02696792  0.12619863  0.58262276  1  -1.172855  0  -0.307518  -0.565042  0  2.338418  0
O  O134  1  0.98996955  0.41337280  0.08063359  1  -1.12936  0  -0.317426  -0.527672  0  2.206539  0
O  O135  1  0.88600733  0.41223115  0.97366635  1  -1.170766  0  -0.306055  -0.56721  0  2.375477  0
O  O136  1  0.02434361  0.59260859  0.11351522  1  -1.174289  0  -0.309132  -0.576023  0  2.361322  0
O  O137  1  0.90701211  0.58035508  0.01053290  1  -1.13248  0  -0.310556  -0.518668  0  2.263533  0
O  O138  1  0.16105103  0.59217733  0.07550673  1  -1.121967  0  -0.309537  -0.518284  0  2.234773  0
O  O139  1  0.05784947  0.59565598  0.97111195  1  -1.16584  0  -0.310303  -0.569375  0  2.313506  0
O  O140  1  0.02350251  0.40928663  0.93370222  1  -1.165118  0  -0.307388  -0.564562  0  2.292783  0
O  O141  1  0.91858942  0.41647889  0.83481805  1  -1.124686  0  -0.311294  -0.526119  0  2.258641  0
O  O142  1  0.59025574  0.05643900  0.97109981  1  -1.178499  0  -0.308394  -0.571299  0  2.375949  0
O  O143  1  0.60044974  0.16517291  0.08064893  1  -1.128166  0  -0.316811  -0.52554  0  2.211136  0
O  O144  1  0.40992265  0.92849240  0.83282506  1  -1.124687  0  -0.317596  -0.529078  0  2.216325  0
O  O145  1  0.41679400  0.03356001  0.94322414  1  -1.163296  0  -0.307209  -0.569749  0  2.346047  0
O  O146  1  0.40771942  0.88181981  0.97069079  1  -1.185113  0  -0.31751  -0.580179  0  2.349191  0
O  O147  1  0.42132740  0.99091016  0.08268359  1  -1.129649  0  -0.309757  -0.522524  0  2.275588  0
O  O148  1  0.58436794  0.91203028  0.99819848  1  -1.133581  0  -0.313877  -0.528585  0  2.241971  0
O  O149  1  0.59663616  0.02040392  0.11034099  1  -1.170208  0  -0.309415  -0.566095  0  2.319634  0
O  O150  1  0.98904333  0.27130225  0.44556534  1  -0.461601  0  -0.138801  -0.344208  0  1.920791  0
O  O151  1  0.98248633  0.39242283  0.48601640  1  -0.453375  0  -0.148211  -0.348847  0  1.861819  0
