# generated using pymatgen
data_CuH24C22(NO2)2
_symmetry_space_group_name_H-M   'P 1'
_cell_length_a   10.85618831
_cell_length_b   10.83375284
_cell_length_c   10.89758716
_cell_angle_alpha   110.05458939
_cell_angle_beta   109.67301798
_cell_angle_gamma   95.42334832
_symmetry_Int_Tables_number   1
_chemical_formula_structural   CuH24C22(NO2)2
_chemical_formula_sum   'Cu2 H48 C44 N4 O8'
_cell_volume   1101.30823766
_cell_formula_units_Z   2
loop_
 _symmetry_equiv_pos_site_id
 _symmetry_equiv_pos_as_xyz
  1  'x, y, z'
loop_
 _atom_site_type_symbol
 _atom_site_label
 _atom_site_symmetry_multiplicity
 _atom_site_fract_x
 _atom_site_fract_y
 _atom_site_fract_z
 _atom_site_occupancy
 _atom_site_hle17_ddec_charge
 _atom_site_hle17_ddec_spin_density
 _atom_site_hle17_ddec_sum_bond_order
 _atom_site_hle17_magmom
 _atom_site_hse06_10hf_ddec_charge
 _atom_site_hse06_10hf_ddec_spin_density
 _atom_site_hse06_10hf_ddec_sum_bond_order
 _atom_site_hse06_10hf_magmom
 _atom_site_hse06_ddec_charge
 _atom_site_hse06_ddec_spin_density
 _atom_site_hse06_ddec_sum_bond_order
 _atom_site_hse06_magmom
 _atom_site_pbe_cm5_charge
 _atom_site_pbe_ddec_charge
 _atom_site_pbe_ddec_spin_density
 _atom_site_pbe_ddec_sum_bond_order
 _atom_site_pbe_magmom
Cu  Cu0  1  0.70352786  0.69993590  0.54492626  1  0.830153  0.671912  1.803814  0.491  0.799718  0.763607  2.205373  0.605  0.893925  0.828972  2.128049  0.689  0.736694  0.742433  0.719303  2.260634  0.553
Cu  Cu1  1  0.29647073  0.30006398  0.45507483  1  0.830297  0.6719  1.803645  0.491  0.799757  0.763619  2.205376  0.605  0.894093  0.828986  2.127956  0.689  0.736722  0.742484  0.719301  2.260643  0.553
H  H2  1  0.56760982  0.39072661  0.41049029  1  0.108487  0.000663  0.934274  0.002  0.114239  0.00067  0.997916  0.002  0.11724  0.000432  0.993976  0.001  0.128676  0.111682  0.000875  1.001071  0.002
H  H3  1  0.43239658  0.60926918  0.58950929  1  0.108546  0.000663  0.934268  0.002  0.114259  0.000669  0.997918  0.002  0.11726  0.000432  0.993975  0.001  0.128661  0.111697  0.000874  1.00107  0.002
H  H4  1  0.65728974  0.18730152  0.40362763  1  0.114123  0.000384  0.952274  0.0  0.126945  0.000404  1.005906  0.0  0.129951  0.000314  1.005534  0.0  0.11474  0.12473  0.000461  1.006316  0.0
H  H5  1  0.34272012  0.81269630  0.59636923  1  0.114183  0.000383  0.952217  0.0  0.126975  0.000404  1.005875  0.0  0.129981  0.000315  1.005506  0.0  0.114737  0.124756  0.000462  1.006283  0.0
H  H6  1  0.90542066  0.21423425  0.53325424  1  0.100476  0.000163  0.922535  0.0  0.116218  -4e-06  0.973386  0.0  0.118773  -3.3e-05  0.971786  0.0  0.11463  0.114389  2e-05  0.974454  0.0
H  H7  1  0.09458745  0.78576454  0.46674970  1  0.100381  0.000167  0.922656  0.0  0.116143  -4e-06  0.973498  0.0  0.118697  -3.3e-05  0.971899  0.0  0.114572  0.114311  2e-05  0.97457  0.0
H  H8  1  0.14111853  0.37929741  0.68881453  1  0.127309  0.000262  0.95268  0.0  0.136616  0.000207  1.014724  0.0  0.139977  0.000124  1.012668  0.0  0.112843  0.133798  0.000274  1.016883  0.0
H  H9  1  0.85888787  0.62070646  0.31119242  1  0.127375  0.000258  0.952582  0.0  0.136658  0.000208  1.014653  0.0  0.140017  0.000123  1.0126  0.0  0.112885  0.133846  0.000274  1.016811  0.0
H  H10  1  0.27596291  0.61033583  0.81670593  1  0.109734  0.000229  0.927745  0.0  0.123645  0.000187  0.98192  0.0  0.126533  0.000124  0.981264  0.0  0.112921  0.121441  0.000283  0.982526  0.0
H  H11  1  0.72404499  0.38967008  0.18329673  1  0.109775  0.000226  0.927844  0.0  0.123667  0.000187  0.982025  0.0  0.126554  0.000123  0.981373  0.0  0.112984  0.121476  0.000282  0.982618  0.0
H  H12  1  0.28796211  0.86785160  0.89235638  1  0.110526  0.000171  0.910535  0.0  0.127  -2e-05  0.958653  0.0  0.130145  -3.6e-05  0.956121  0.0  0.121811  0.124496  8e-06  0.960851  0.0
H  H13  1  0.71204020  0.13215135  0.10763786  1  0.110571  0.000171  0.91046  0.0  0.127028  -2e-05  0.958586  0.0  0.130175  -3.7e-05  0.95605  0.0  0.121819  0.124523  8e-06  0.960784  0.0
H  H14  1  0.16385117  0.04849351  0.87529703  1  0.118309  0.000402  0.931446  0.0  0.134174  0.000449  0.977742  0.0  0.137495  0.000345  0.977201  0.0  0.119517  0.131604  0.000566  0.978628  0.001
H  H15  1  0.83614745  0.95151044  0.12470272  1  0.118363  0.000402  0.931452  0.0  0.134214  0.00045  0.977762  0.0  0.137536  0.000345  0.977221  0.0  0.119518  0.131646  0.000566  0.978645  0.001
H  H16  1  0.91334350  0.98069311  0.72752488  1  0.090563  0.000758  0.950735  0.002  0.099445  0.00078  1.012881  0.002  0.102048  0.000559  1.01041  0.001  0.123728  0.097376  0.000971  1.014736  0.002
H  H17  1  0.08665139  0.01930373  0.27247849  1  0.090546  0.000755  0.950772  0.002  0.099415  0.000781  1.01293  0.002  0.102018  0.000559  1.010457  0.001  0.123707  0.097349  0.000971  1.014773  0.002
H  H18  1  0.45046481  0.45062003  0.06093147  1  0.099672  0.000355  0.929631  0.0  0.116087  0.000375  0.986954  0.0  0.117348  0.000224  0.986812  0.0  0.099748  0.115179  0.000541  0.98705  0.001
H  H19  1  0.54954084  0.54937675  0.93907278  1  0.099656  0.000354  0.929623  0.0  0.116025  0.000375  0.986985  0.0  0.117283  0.000224  0.986845  0.0  0.099753  0.115115  0.000541  0.987084  0.001
H  H20  1  0.39349429  0.59938225  0.09314651  1  0.092385  6.8e-05  0.926533  0.0  0.110195  0.000174  0.984624  0.0  0.111268  6.3e-05  0.984728  0.0  0.098283  0.10959  0.000323  0.98431  0.0
H  H21  1  0.60651067  0.40061560  0.90684962  1  0.092352  7e-05  0.926527  0.0  0.110128  0.000174  0.98465  0.0  0.111202  6.3e-05  0.984749  0.0  0.098222  0.109517  0.000323  0.984335  0.0
H  H22  1  0.26832118  0.52522951  0.22522462  1  0.057491  0.000211  0.953969  0.0  0.073963  0.000208  1.021465  0.0  0.074529  0.000145  1.022455  0.0  0.081577  0.073752  0.000263  1.020441  0.0
H  H23  1  0.73167913  0.47476937  0.77477396  1  0.057417  0.000209  0.953991  0.0  0.073895  0.000208  1.021491  0.0  0.074458  0.000145  1.022491  0.0  0.081562  0.073682  0.000263  1.020468  0.0
H  H24  1  0.31920192  0.37185393  0.18285255  1  0.072926  -4.5e-05  0.929602  0.0  0.089404  -6.2e-05  0.993537  0.0  0.089694  -8.8e-05  0.993432  0.0  0.087022  0.089069  -2.3e-05  0.993554  0.0
H  H25  1  0.68079572  0.62814195  0.81714041  1  0.072892  -4.4e-05  0.929588  0.0  0.089337  -6.3e-05  0.993583  0.0  0.089627  -8.8e-05  0.993477  0.0  0.087014  0.088998  -2.4e-05  0.993598  0.0
H  H26  1  0.20415378  0.32458750  0.92037494  1  0.060052  5.2e-05  0.929084  0.0  0.082039  5e-05  0.984428  0.0  0.082708  2.9e-05  0.984575  0.0  0.085038  0.081405  8.1e-05  0.984512  0.0
H  H27  1  0.79584018  0.67540940  0.07962079  1  0.060075  5.3e-05  0.92912  0.0  0.082056  5.1e-05  0.984439  0.0  0.082728  2.9e-05  0.984586  0.0  0.08505  0.081419  8.2e-05  0.984529  0.0
H  H28  1  0.15323767  0.47697768  0.96681497  1  0.053098  6e-06  0.956943  0.0  0.073436  5e-06  1.02022  0.0  0.073389  4e-06  1.022451  0.0  0.081628  0.073423  1.5e-05  1.018692  0.0
H  H29  1  0.84676095  0.52302224  0.03318063  1  0.053159  5e-06  0.956926  0.0  0.073475  5e-06  1.020192  0.0  0.073428  3e-06  1.022425  0.0  0.081633  0.073461  1.5e-05  1.018663  0.0
H  H30  1  0.06778820  0.23685709  0.03268750  1  0.053969  -1.9e-05  0.93259  0.0  0.074789  -2.7e-05  0.991231  0.0  0.074468  -2.2e-05  0.993183  0.0  0.081293  0.075053  -3.4e-05  0.989691  0.0
H  H31  1  0.93220820  0.76314587  0.96731207  1  0.053958  -2.2e-05  0.932545  0.0  0.074785  -2.8e-05  0.991195  0.0  0.074457  -2.3e-05  0.993148  0.0  0.081294  0.075043  -3.4e-05  0.989655  0.0
H  H32  1  0.02239446  0.39257533  0.08591599  1  0.050936  3e-06  0.964141  0.0  0.068678  2e-06  1.032117  0.0  0.068668  6e-06  1.034092  0.0  0.079753  0.068702  -7e-06  1.030839  0.0
H  H33  1  0.97760512  0.60742861  0.91408501  1  0.050911  8e-06  0.964071  0.0  0.068654  2e-06  1.032069  0.0  0.068646  7e-06  1.034041  0.0  0.07975  0.068678  -7e-06  1.030788  0.0
H  H34  1  0.95583598  0.21005610  0.77507187  1  0.043302  1e-05  0.944109  0.0  0.063266  2.2e-05  1.007519  0.0  0.063199  1.4e-05  1.008056  0.0  0.079883  0.063349  3.8e-05  1.006951  0.0
H  H35  1  0.04415845  0.78994280  0.22492930  1  0.04324  9e-06  0.944074  0.0  0.063217  2.3e-05  1.007465  0.0  0.063147  1.4e-05  1.008003  0.0  0.07985  0.063299  3.8e-05  1.006894  0.0
H  H36  1  0.90621812  0.36166360  0.83497567  1  0.059505  -2.9e-05  0.952111  0.0  0.081304  -2.5e-05  1.012325  0.0  0.081514  -2.1e-05  1.014022  0.0  0.085368  0.081145  -2.7e-05  1.011215  0.0
H  H37  1  0.09377560  0.63833635  0.16502012  1  0.059492  -2.8e-05  0.952083  0.0  0.081261  -2.5e-05  1.012344  0.0  0.081471  -2.1e-05  1.014041  0.0  0.085332  0.081098  -2.7e-05  1.011243  0.0
H  H38  1  0.82305163  0.10560484  0.87726882  1  0.048604  -8.6e-05  0.948672  0.0  0.067797  -5.6e-05  1.012418  0.0  0.067502  -4.8e-05  1.014051  0.0  0.080645  0.068028  -6.3e-05  1.011172  0.0
H  H39  1  0.17694036  0.89440014  0.12273455  1  0.04863  -8.6e-05  0.948639  0.0  0.06781  -5.7e-05  1.012357  0.0  0.067515  -4.8e-05  1.013988  0.0  0.080623  0.068043  -6.3e-05  1.011104  0.0
H  H40  1  0.77688068  0.25766675  0.94480361  1  0.04902  1.3e-05  0.957068  0.0  0.068507  1.2e-05  1.022377  0.0  0.068491  -1e-06  1.023815  0.0  0.080316  0.068552  2.7e-05  1.021317  0.0
H  H41  1  0.22310745  0.74233832  0.05519113  1  0.049102  1.2e-05  0.957035  0.0  0.068545  1.2e-05  1.022338  0.0  0.068507  -1e-06  1.0238  0.0  0.080333  0.0686  2.7e-05  1.021273  0.0
H  H42  1  0.70916165  0.11316756  0.62660025  1  0.06072  0.000375  0.954272  0.0  0.077924  0.00032  1.01973  0.0  0.079148  0.00021  1.019429  0.0  0.084175  0.077147  0.000396  1.019694  0.0
H  H43  1  0.29084033  0.88682215  0.37339939  1  0.060761  0.000377  0.954248  0.0  0.077914  0.00032  1.019741  0.0  0.079136  0.00021  1.019437  0.0  0.084171  0.077143  0.000395  1.019703  0.0
H  H44  1  0.63831104  0.23997588  0.70864875  1  0.072124  -0.000211  0.953242  0.0  0.090658  -0.000116  1.013683  0.0  0.091496  -0.000103  1.014734  0.0  0.088567  0.09001  -0.000119  1.012883  0.0
H  H45  1  0.36168764  0.76002006  0.29133449  1  0.072155  -0.000215  0.953244  0.0  0.090651  -0.000117  1.013709  0.0  0.091482  -0.000103  1.014768  0.0  0.088618  0.090005  -0.000119  1.012911  0.0
H  H46  1  0.47616788  0.02646046  0.60809664  1  0.109277  -0.00042  0.934767  0.0  0.125358  -3.5e-05  0.993557  0.0  0.12806  -8.2e-05  0.992317  0.0  0.100599  0.123393  -2.4e-05  0.994558  0.0
H  H47  1  0.52382730  0.97354149  0.39190217  1  0.109304  -0.000419  0.934649  0.0  0.125365  -3.5e-05  0.993459  0.0  0.128071  -8.2e-05  0.992216  0.0  0.100593  0.123403  -2.4e-05  0.994461  0.0
H  H48  1  0.54379316  0.06821456  0.79377896  1  0.089595  0.000981  0.924658  0.001  0.103997  0.000862  0.982349  0.001  0.105078  0.00057  0.982153  0.001  0.090349  0.103321  0.001145  0.982453  0.001
H  H49  1  0.45620300  0.93178739  0.20621927  1  0.089617  0.000978  0.924595  0.001  0.104015  0.000862  0.98229  0.001  0.105097  0.00057  0.982093  0.001  0.090359  0.103339  0.001145  0.982392  0.001
C  C50  1  0.67444952  0.40091589  0.46686831  1  0.181412  -0.009129  3.617097  -0.006  0.151265  -0.002852  3.871251  -0.002  0.166307  -0.004276  3.882452  -0.003  0.075143  0.141552  -0.001598  3.864208  -0.001
C  C51  1  0.32555564  0.59908292  0.53313648  1  0.181313  -0.009194  3.617176  -0.006  0.151283  -0.002853  3.871209  -0.002  0.166331  -0.004277  3.882415  -0.003  0.075129  0.141575  -0.001598  3.864153  -0.001
C  C52  1  0.72672696  0.28638096  0.46417587  1  -0.101114  0.006432  3.691928  0.007  -0.114531  0.003475  3.942372  0.004  -0.121637  0.003065  3.960194  0.004  -0.071418  -0.110139  0.003749  3.930391  0.004
C  C53  1  0.27327650  0.71361484  0.53582454  1  -0.101266  0.006489  3.692228  0.007  -0.114687  0.003474  3.942663  0.004  -0.121797  0.003065  3.960487  0.004  -0.071472  -0.110291  0.003749  3.930669  0.004
C  C54  1  0.86292397  0.30188079  0.53536665  1  -0.043563  -0.008716  3.690765  -0.005  -0.071323  -0.00368  3.945412  -0.002  -0.066838  -0.00424  3.961597  -0.002  -0.056845  -0.074114  -0.003063  3.933891  -0.002
C  C55  1  0.13708485  0.69812101  0.46464225  1  -0.043283  -0.008818  3.69077  -0.005  -0.071117  -0.003681  3.94532  -0.002  -0.066624  -0.004239  3.961495  -0.002  -0.056703  -0.073906  -0.003062  3.933786  -0.002
C  C56  1  0.94859184  0.43326687  0.61146482  1  0.023208  0.0032  3.797083  0.004  0.038094  0.001857  4.033015  0.002  0.035366  0.001542  4.056234  0.002  -0.000376  0.039995  0.002067  4.017012  0.002
C  C57  1  0.05140769  0.56672894  0.38853793  1  0.022994  0.003242  3.797297  0.004  0.038102  0.001858  4.032921  0.002  0.035371  0.001542  4.056133  0.002  -0.000376  0.040001  0.002068  4.016921  0.002
C  C58  1  0.09111796  0.46195506  0.68835373  1  -0.087873  0.00111  3.698202  0.001  -0.115397  0.000598  3.961753  0.001  -0.117413  0.000526  3.98294  0.001  -0.074704  -0.114073  0.000665  3.947835  0.001
C  C59  1  0.90889210  0.53805181  0.31165642  1  -0.087906  0.001064  3.698228  0.001  -0.115493  0.000596  3.961754  0.001  -0.117507  0.000525  3.982943  0.001  -0.074797  -0.114165  0.000665  3.947843  0.001
C  C60  1  0.16749342  0.59215812  0.75988899  1  -0.095892  0.000331  3.717523  0.0  -0.120751  0.000362  3.978185  0.0  -0.124181  0.000265  4.00009  0.0  -0.077927  -0.118666  0.000468  3.963536  0.001
C  C61  1  0.83250616  0.40784177  0.24010969  1  -0.095889  0.000396  3.717325  0.0  -0.120743  0.000364  3.977974  0.0  -0.124176  0.000267  3.999878  0.0  -0.077905  -0.118672  0.000468  3.963345  0.001
C  C62  1  0.10809910  0.70466797  0.75974384  1  0.021687  0.003507  3.805825  0.004  0.037605  0.001954  4.039477  0.002  0.035123  0.001719  4.063531  0.002  0.002159  0.039193  0.002137  4.023166  0.002
C  C63  1  0.89190683  0.29533390  0.24025767  1  0.021821  0.003485  3.805831  0.004  0.037767  0.001954  4.039336  0.002  0.035284  0.001717  4.06339  0.002  0.002168  0.039352  0.002136  4.023043  0.002
C  C64  1  0.17958656  0.84186309  0.83066526  1  -0.032296  -0.009872  3.671695  -0.006  -0.05808  -0.004491  3.921407  -0.002  -0.052926  -0.005027  3.936115  -0.003  -0.050786  -0.061924  -0.003981  3.912026  -0.002
C  C65  1  0.82041817  0.15814185  0.16933415  1  -0.03236  -0.009845  3.671811  -0.006  -0.05814  -0.004489  3.921492  -0.002  -0.052988  -0.005025  3.936201  -0.003  -0.050825  -0.061986  -0.003979  3.912112  -0.002
C  C66  1  0.11114649  0.94200371  0.82091592  1  -0.119745  0.006381  3.722504  0.007  -0.132742  0.003423  3.970093  0.004  -0.140025  0.003122  3.988617  0.004  -0.076369  -0.128343  0.003684  3.958349  0.004
C  C67  1  0.88884968  0.05799824  0.17908231  1  -0.119809  0.006366  3.722511  0.007  -0.132812  0.003421  3.970108  0.004  -0.140094  0.003122  3.988628  0.004  -0.076344  -0.128405  0.003684  3.958352  0.004
C  C68  1  0.97144208  0.90575355  0.73967700  1  0.144242  -0.009666  3.679449  -0.007  0.116088  -0.003263  3.932416  -0.002  0.127756  -0.004603  3.947789  -0.003  0.061432  0.108473  -0.002229  3.922644  -0.002
C  C69  1  0.02855918  0.09424529  0.26032556  1  0.144269  -0.009654  3.67944  -0.007  0.116128  -0.003259  3.93237  -0.002  0.1278  -0.004605  3.947746  -0.003  0.061472  0.108513  -0.002229  3.922593  -0.002
C  C70  1  0.96757388  0.67820384  0.68244358  1  0.127339  -0.002749  3.771392  -0.002  0.120689  -0.000418  4.012916  0.0  0.125379  -0.001359  4.036161  -0.001  0.116379  0.117675  0.000336  3.997159  0.001
C  C71  1  0.03242638  0.32179095  0.31755816  1  0.12719  -0.00271  3.771516  -0.002  0.120647  -0.000419  4.01285  0.0  0.125338  -0.001358  4.036103  -0.001  0.116387  0.117629  0.000337  3.997104  0.001
C  C72  1  0.88741113  0.54235617  0.60883122  1  0.122398  -0.001848  3.782519  -0.001  0.116677  0.00015  4.022468  0.0  0.121669  -0.000808  4.04632  0.0  0.114648  0.113288  0.001035  4.006587  0.001
C  C73  1  0.11259573  0.45764565  0.39117794  1  0.122574  -0.0019  3.782632  -0.001  0.116745  0.000153  4.022548  0.0  0.121739  -0.000809  4.046407  0.0  0.114704  0.113359  0.001036  4.006667  0.001
C  C74  1  0.54091848  0.59476329  0.27583084  1  0.666464  -0.009465  3.861037  -0.009  0.630965  -0.002886  4.165679  -0.004  0.666646  -0.003442  4.162648  -0.004  0.192081  0.607001  -0.002275  4.166616  -0.004
C  C75  1  0.45907789  0.40523559  0.72417098  1  0.666431  -0.009472  3.86108  -0.009  0.630945  -0.002882  4.165659  -0.004  0.666624  -0.003444  4.162643  -0.004  0.192067  0.606976  -0.002274  4.166597  -0.004
C  C76  1  0.41857001  0.52255316  0.13670865  1  -0.251975  0.010029  3.690084  0.011  -0.288878  0.005793  3.939082  0.006  -0.294339  0.003895  3.947806  0.005  -0.163635  -0.284983  0.007077  3.932596  0.007
C  C77  1  0.58143005  0.47744471  0.86328949  1  -0.251862  0.010033  3.690027  0.011  -0.288702  0.005792  3.938987  0.006  -0.294155  0.003896  3.9477  0.005  -0.163563  -0.284807  0.007078  3.932498  0.007
C  C78  1  0.29501219  0.45229888  0.14504876  1  -0.086104  1.6e-05  3.699243  0.0  -0.126586  0.000473  3.959861  0.0  -0.125785  0.000283  3.973542  0.0  -0.172844  -0.127061  0.000649  3.950182  0.0
C  C79  1  0.70498594  0.54769902  0.85494689  1  -0.085917  1.7e-05  3.699225  0.0  -0.126413  0.000474  3.959827  0.0  -0.12562  0.000284  3.973512  0.0  -0.172827  -0.126886  0.000649  3.950137  0.0
C  C80  1  0.17565603  0.39431890  0.00156877  1  -0.11064  -5.1e-05  3.703825  0.0  -0.148674  4.3e-05  3.962778  0.0  -0.15004  1.5e-05  3.977967  0.0  -0.170755  -0.147626  3.6e-05  3.952379  0.0
C  C81  1  0.82433989  0.60568204  0.99842811  1  -0.110904  -5.5e-05  3.704022  0.0  -0.148859  4.1e-05  3.962912  0.0  -0.150228  1.6e-05  3.978104  0.0  -0.170826  -0.14781  3.6e-05  3.952512  0.0
C  C82  1  0.04832364  0.32285324  0.00258051  1  -0.106655  -4e-06  3.708118  0.0  -0.146541  -2.4e-05  3.972428  0.0  -0.147569  -2.8e-05  3.988237  0.0  -0.171779  -0.145811  -2.3e-05  3.961462  0.0
C  C83  1  0.95167179  0.67714972  0.99741874  1  -0.106517  -5e-06  3.707975  0.0  -0.146486  -2.2e-05  3.972369  0.0  -0.147495  -2.8e-05  3.988146  0.0  -0.171768  -0.145754  -2.3e-05  3.961395  0.0
C  C84  1  0.92810954  0.27400989  0.86042845  1  -0.108289  -9.1e-05  3.710693  0.0  -0.147745  -3.1e-05  3.972941  0.0  -0.148551  -3.3e-05  3.988411  0.0  -0.170704  -0.146975  -3e-05  3.962089  0.0
C  C85  1  0.07188540  0.72599104  0.13957084  1  -0.108144  -9.2e-05  3.710645  0.0  -0.147595  -3.2e-05  3.972837  0.0  -0.148399  -3.1e-05  3.988304  0.0  -0.170647  -0.146824  -3e-05  3.961989  0.0
C  C86  1  0.80144294  0.19569830  0.85625572  1  -0.109618  5.9e-05  3.70649  0.0  -0.148616  2.2e-05  3.967719  0.0  -0.149834  -2e-05  3.983889  0.0  -0.17222  -0.147661  1.9e-05  3.956467  0.0
C  C87  1  0.19854981  0.80430569  0.14374297  1  -0.109807  5.7e-05  3.706646  0.0  -0.148686  2.3e-05  3.967683  0.0  -0.149893  -2e-05  3.983846  0.0  -0.172186  -0.147734  1.9e-05  3.95643  0.0
C  C88  1  0.67882522  0.15263185  0.71662618  1  -0.092852  2.3e-05  3.690991  0.0  -0.132108  0.000423  3.947642  0.0  -0.132459  0.000234  3.961575  0.0  -0.17169  -0.131791  0.000493  3.937815  0.0
C  C89  1  0.32117095  0.84736606  0.28336790  1  -0.092874  2.8e-05  3.691222  0.0  -0.132076  0.000424  3.947781  0.0  -0.132407  0.000234  3.961687  0.0  -0.171703  -0.131772  0.000493  3.937974  0.0
C  C90  1  0.56879448  0.04127913  0.69957114  1  -0.259332  0.009697  3.674331  0.01  -0.295851  0.005483  3.921843  0.006  -0.301883  0.003726  3.930696  0.004  -0.168446  -0.291574  0.006748  3.915441  0.007
C  C91  1  0.43120094  0.95871978  0.30042579  1  -0.25945  0.009694  3.674406  0.01  -0.295969  0.005482  3.921873  0.006  -0.302009  0.003726  3.930718  0.004  -0.168495  -0.291694  0.006748  3.915476  0.007
C  C92  1  0.61033563  0.90698481  0.67297086  1  0.662116  -0.007684  3.867641  -0.008  0.626427  -0.00171  4.177048  -0.003  0.661558  -0.002336  4.173819  -0.003  0.188073  0.602742  -0.001116  4.178265  -0.003
C  C93  1  0.38966271  0.09301406  0.32702979  1  0.66234  -0.007677  3.86764  -0.008  0.626743  -0.001709  4.176858  -0.003  0.661876  -0.002334  4.173637  -0.003  0.188214  0.603059  -0.001117  4.178077  -0.003
N  N94  1  0.75337476  0.52542380  0.53732235  1  -0.335054  0.058355  3.34419  0.074  -0.289847  0.045856  3.642772  0.062  -0.319488  0.038775  3.66005  0.056  -0.343083  -0.272312  0.050035  3.63364  0.064
N  N95  1  0.24662478  0.47457201  0.46267949  1  -0.335093  0.058395  3.344355  0.074  -0.289958  0.045857  3.64303  0.062  -0.319635  0.038779  3.660333  0.056  -0.343148  -0.272429  0.05004  3.633904  0.064
N  N96  1  0.90189870  0.77731812  0.67263173  1  -0.326664  0.056159  3.322719  0.072  -0.283992  0.045882  3.621245  0.062  -0.311042  0.038902  3.636711  0.057  -0.338388  -0.267963  0.050082  3.613234  0.065
N  N97  1  0.09810133  0.22267971  0.32737189  1  -0.326728  0.05615  3.322974  0.072  -0.284045  0.045878  3.621428  0.062  -0.311132  0.0389  3.636918  0.057  -0.338463  -0.268018  0.050079  3.613431  0.065
O  O98  1  0.52353125  0.60627663  0.39127464  1  -0.580803  0.120977  2.004552  0.163  -0.5568  0.073334  2.285072  0.109  -0.605543  0.054661  2.28294  0.088  -0.32604  -0.524646  0.084898  2.286789  0.119
O  O99  1  0.47646149  0.39373140  0.60872819  1  -0.580945  0.120988  2.004489  0.163  -0.556855  0.073336  2.284965  0.109  -0.605624  0.054662  2.282842  0.088  -0.326087  -0.524699  0.084905  2.286681  0.119
O  O100  1  0.65157843  0.64045135  0.27591486  1  -0.641934  -0.00086  1.890117  0.002  -0.614901  -0.001466  2.120884  0.0  -0.642091  -0.002769  2.110759  -0.001  -0.34743  -0.595705  -0.000165  2.127175  0.002
O  O101  1  0.34842352  0.35954239  0.72409075  1  -0.641843  -0.000856  1.890142  0.002  -0.614837  -0.001468  2.1209  0.0  -0.642042  -0.002768  2.110795  -0.001  -0.347371  -0.59564  -0.000165  2.127189  0.002
O  O102  1  0.66510587  0.87722368  0.58011605  1  -0.596019  0.108284  2.02034  0.146  -0.571193  0.064866  2.301295  0.096  -0.617298  0.048782  2.294872  0.078  -0.34239  -0.540539  0.074914  2.305888  0.105
O  O103  1  0.33489470  0.12277621  0.41988113  1  -0.596082  0.108267  2.020549  0.146  -0.57127  0.064849  2.301457  0.096  -0.617401  0.048775  2.295039  0.078  -0.342418  -0.540631  0.0749  2.306076  0.105
O  O104  1  0.59156322  0.83307516  0.73474705  1  -0.644828  -0.000608  1.861562  0.002  -0.618658  -0.001165  2.085396  0.0  -0.643507  -0.002277  2.074833  -0.001  -0.351885  -0.601079  9.6e-05  2.091706  0.002
O  O105  1  0.40843591  0.16692679  0.26524759  1  -0.644983  -0.000601  1.861308  0.002  -0.618859  -0.001159  2.085107  0.0  -0.643721  -0.002281  2.074553  -0.001  -0.351985  -0.601273  9.7e-05  2.091418  0.002
