# generated using pymatgen
data_K2Zn2H16C11N2(ClO2)4
_symmetry_space_group_name_H-M   'P 1'
_cell_length_a   7.31375057
_cell_length_b   7.31376775
_cell_length_c   10.31592679
_cell_angle_alpha   100.42481653
_cell_angle_beta   100.42469836
_cell_angle_gamma   92.80130225
_symmetry_Int_Tables_number   1
_chemical_formula_structural   K2Zn2H16C11N2(ClO2)4
_chemical_formula_sum   'K2 Zn2 H16 C11 N2 Cl4 O8'
_cell_volume   531.83998045
_cell_formula_units_Z   1
loop_
 _symmetry_equiv_pos_site_id
 _symmetry_equiv_pos_as_xyz
  1  'x, y, z'
loop_
 _atom_site_type_symbol
 _atom_site_label
 _atom_site_symmetry_multiplicity
 _atom_site_fract_x
 _atom_site_fract_y
 _atom_site_fract_z
 _atom_site_occupancy
 _atom_site_hle17_bader_spin_density
 _atom_site_hle17_ddec_charge
 _atom_site_hle17_ddec_spin_density
 _atom_site_hle17_ddec_sum_bond_order
 _atom_site_hle17_magmom
 _atom_site_hse06_10hf_bader_spin_density
 _atom_site_hse06_10hf_ddec_charge
 _atom_site_hse06_10hf_ddec_spin_density
 _atom_site_hse06_10hf_ddec_sum_bond_order
 _atom_site_hse06_10hf_magmom
 _atom_site_hse06_bader_spin_density
 _atom_site_hse06_ddec_charge
 _atom_site_hse06_ddec_spin_density
 _atom_site_hse06_ddec_sum_bond_order
 _atom_site_hse06_magmom
 _atom_site_pbe_bader_spin_density
 _atom_site_pbe_cm5_charge
 _atom_site_pbe_ddec_charge
 _atom_site_pbe_ddec_spin_density
 _atom_site_pbe_ddec_sum_bond_order
 _atom_site_pbe_magmom
K  K0  1  0.13566246  0.86433634  0.50000050  1  0  0.927327  0  0.404488  0  0  0.883284  0  0.57835  0  0  0.893787  0  0.560606  0  0  0.628521  0.875364  0  0.591168  0
K  K1  1  0.57463570  0.42536355  0.50000017  1  0  0.921406  0  0.47404  0  0  0.869576  0  0.672237  0  0  0.881484  0  0.65212  0  0  0.683961  0.860461  0  0.686903  0
Zn  Zn2  1  0.07726233  0.42519972  0.71236585  1  0  1.014985  0  1.928004  0  0  0.85367  0  2.419424  0  0  0.901132  0  2.358573  0  0  0.577736  0.820089  0  2.461454  0
Zn  Zn3  1  0.57480013  0.92273682  0.28763402  1  0  1.014984  0  1.928008  0  0  0.853662  0  2.419431  0  0  0.901118  0  2.358576  0  0  0.577724  0.820076  0  2.461467  0
H  H4  1  0.47810367  0.95814191  0.92316154  1  0  0.129666  0  0.912752  0  0  0.141451  0  0.972137  0  0  0.143938  0  0.970825  0  0  0.118734  0.139525  0  0.973526  0
H  H5  1  0.04185641  0.52189463  0.07683814  1  0  0.129645  0  0.912768  0  0  0.141432  0  0.972142  0  0  0.143926  0  0.970835  0  0  0.118727  0.139503  0  0.973535  0
H  H6  1  0.58853852  0.75744083  0.95989056  1  0  0.131845  0  0.913249  0  0  0.141446  0  0.975379  0  0  0.14413  0  0.973921  0  0  0.120455  0.139459  0  0.976624  0
H  H7  1  0.24255896  0.41145970  0.04010903  1  0  0.131845  0  0.913243  0  0  0.141441  0  0.975369  0  0  0.144131  0  0.973917  0  0  0.120453  0.139452  0  0.976616  0
H  H8  1  0.72680371  0.13925373  0.75340729  1  0  0.11642  0  0.983825  0  0  0.128643  0  1.046325  0  0  0.131059  0  1.045561  0  0  0.108468  0.12686  0  1.047039  0
H  H9  1  0.86074293  0.27319902  0.24659279  1  0  0.116431  0  0.983773  0  0  0.128641  0  1.04628  0  0  0.131056  0  1.045519  0  0  0.108469  0.12686  0  1.046996  0
H  H10  1  0.49418556  0.04236716  0.71480725  1  0  0.115921  0  0.967648  0  0  0.125097  0  1.034522  0  0  0.128145  0  1.032652  0  0  0.111447  0.122826  0  1.036065  0
H  H11  1  0.95763308  0.50581464  0.28519405  1  0  0.115918  0  0.967656  0  0  0.125094  0  1.03452  0  0  0.128141  0  1.03265  0  0  0.111451  0.122821  0  1.036067  0
H  H12  1  0.97679710  0.92866870  0.83966702  1  0  0.09047  0  0.944673  0  0  0.101565  0  1.010583  0  0  0.103216  0  1.010097  0  0  0.106107  0.100239  0  1.011176  0
H  H13  1  0.07133271  0.02320391  0.16033295  1  0  0.090497  0  0.944689  0  0  0.101564  0  1.010605  0  0  0.103215  0  1.010119  0  0  0.106111  0.100242  0  1.011196  0
H  H14  1  0.89546763  0.81302105  0.95847114  1  0  0.088568  0  0.93585  0  0  0.099907  0  1.000964  0  0  0.101332  0  1.000453  0  0  0.104048  0.098374  0  1.002229  0
H  H15  1  0.18698082  0.10453480  0.04152905  1  0  0.088583  0  0.935841  0  0  0.099882  0  1.000978  0  0  0.101307  0  1.000466  0  0  0.104053  0.098353  0  1.002242  0
H  H16  1  0.77030129  0.11982312  0.05485175  1  0  0.081945  0  0.980485  0  0  0.096369  0  1.045807  0  0  0.097394  0  1.046262  0  0  0.0833  0.095479  0  1.045721  0
H  H17  1  0.88017644  0.22969813  0.94514725  1  0  0.081959  0  0.980513  0  0  0.096373  0  1.045845  0  0  0.097398  0  1.046299  0  0  0.083301  0.095483  0  1.045763  0
H  H18  1  0.70891759  0.75071462  0.74901938  1  0  0.25864  0  0.902524  0  0  0.239486  0  0.972173  0  0  0.247673  0  0.965386  0  0  0.300823  0.233544  0  0.977172  0
H  H19  1  0.24928481  0.29108528  0.25098066  1  0  0.258678  0  0.902489  0  0  0.239548  0  0.972086  0  0  0.247737  0  0.965295  0  0  0.300849  0.233598  0  0.977107  0
C  C20  1  0.53212948  0.82912179  0.87857788  1  0  -0.164409  0  3.497131  0  0  -0.218749  0  3.738328  0  0  -0.220591  0  3.744044  0  0  -0.05881  -0.217622  0  3.734728  0
C  C21  1  0.17087722  0.46786974  0.12142185  1  0  -0.164376  0  3.497105  0  0  -0.218705  0  3.738302  0  0  -0.220588  0  3.744069  0  0  -0.058792  -0.217572  0  3.734696  0
C  C22  1  0.37742746  0.70225228  0.77818217  1  0  0.682877  0  3.892678  0  0  0.634917  0  4.195358  0  0  0.668556  0  4.187941  0  0  0.205256  0.612028  0  4.199718  0
C  C23  1  0.29774672  0.62257315  0.22181679  1  0  0.682913  0  3.892577  0  0  0.634952  0  4.195239  0  0  0.668602  0  4.187825  0  0  0.205283  0.612069  0  4.199589  0
C  C24  1  0.63838452  0.00782922  0.71599174  1  0  -0.180985  0  3.518107  0  0  -0.23476  0  3.750868  0  0  -0.237367  0  3.756728  0  0  -0.068966  -0.232846  0  3.747003  0
C  C25  1  0.99216948  0.36161689  0.28400936  1  0  -0.180929  0  3.517949  0  0  -0.234727  0  3.750782  0  0  -0.237323  0  3.756624  0  0  -0.068934  -0.232814  0  3.746924  0
C  C26  1  0.66810245  0.92611375  0.57541527  1  0  0.694593  0  3.887262  0  0  0.646689  0  4.193397  0  0  0.681331  0  4.183214  0  0  0.211626  0.623083  0  4.199545  0
C  C27  1  0.07388499  0.33189968  0.42458574  1  0  0.694593  0  3.887293  0  0  0.64668  0  4.193433  0  0  0.681321  0  4.183252  0  0  0.211624  0.623074  0  4.199581  0
C  C28  1  0.87266466  0.92802521  0.90400365  1  0  -0.005111  0  3.530206  0  0  -0.060537  0  3.781573  0  0  -0.057912  0  3.792667  0  0  -0.065843  -0.062076  0  3.774234  0
C  C29  1  0.07197556  0.12733684  0.09599640  1  0  -0.005215  0  3.530336  0  0  -0.060537  0  3.781593  0  0  -0.057907  0  3.792679  0  0  -0.065857  -0.062082  0  3.77426  0
C  C30  1  0.88605402  0.11394733  0.00000030  1  0  -0.154586  0  3.666293  0  0  -0.194852  0  3.913787  0  0  -0.197326  0  3.927893  0  0  -0.176187  -0.192944  0  3.904  0
N  N31  1  0.68762801  0.87550025  0.80988841  1  0  -0.043881  0  3.370148  0  0  0.038437  0  3.572792  0  0  0.027034  0  3.591134  0  0  -0.345793  0.046279  0  3.560319  0
N  N32  1  0.12449878  0.31237386  0.19011254  1  0  -0.043943  0  3.370173  0  0  0.038321  0  3.572856  0  0  0.026927  0  3.591203  0  0  -0.345868  0.046162  0  3.560382  0
Cl  Cl33  1  0.80548153  0.46751993  0.79206434  1  0  -0.583964  0  0.99504  0  0  -0.525012  0  1.273542  0  0  -0.541153  0  1.247905  0  0  -0.28388  -0.513182  0  1.291641  0
Cl  Cl34  1  0.53247946  0.19451743  0.20793679  1  0  -0.583959  0  0.995029  0  0  -0.524997  0  1.273521  0  0  -0.541137  0  1.247883  0  0  -0.283874  -0.513165  0  1.291625  0
Cl  Cl35  1  0.19807520  0.16468842  0.76960655  1  0  -0.610836  0  0.933527  0  0  -0.551479  0  1.211747  0  0  -0.567427  0  1.185261  0  0  -0.306621  -0.539966  0  1.230835  0
Cl  Cl36  1  0.83531416  0.80192528  0.23039449  1  0  -0.610844  0  0.933525  0  0  -0.551475  0  1.211741  0  0  -0.567421  0  1.185253  0  0  -0.30662  -0.539958  0  1.230828  0
O  O37  1  0.24604607  0.63895804  0.82900794  1  0  -0.61726  0  2.032909  0  0  -0.546749  0  2.296167  0  0  -0.576062  0  2.282315  0  0  -0.318486  -0.526115  0  2.304889  0
O  O38  1  0.36104183  0.75395332  0.17099298  1  0  -0.617283  0  2.032955  0  0  -0.546755  0  2.296191  0  0  -0.576065  0  2.282333  0  0  -0.318479  -0.52612  0  2.304908  0
O  O39  1  0.38839490  0.66795507  0.65614269  1  0  -0.690142  0  1.977699  0  0  -0.642976  0  2.221502  0  0  -0.666367  0  2.212344  0  0  -0.425277  -0.626758  0  2.227494  0
O  O40  1  0.33204447  0.61160360  0.34385797  1  0  -0.690166  0  1.977575  0  0  -0.643002  0  2.221374  0  0  -0.666391  0  2.212212  0  0  -0.4253  -0.626785  0  2.227368  0
O  O41  1  0.58652220  0.01121965  0.48430750  1  0  -0.681123  0  2.063514  0  0  -0.610146  0  2.342054  0  0  -0.638844  0  2.324402  0  0  -0.351384  -0.58983  0  2.353617  0
O  O42  1  0.98877886  0.41347802  0.51569250  1  0  -0.681125  0  2.063571  0  0  -0.61014  0  2.342116  0  0  -0.63884  0  2.324466  0  0  -0.351385  -0.589821  0  2.353675  0
O  O43  1  0.76702288  0.79244658  0.55924665  1  0  -0.675278  0  1.964551  0  0  -0.636263  0  2.205152  0  0  -0.658175  0  2.194134  0  0  -0.391085  -0.620824  0  2.21233  0
O  O44  1  0.20755284  0.23297788  0.44075310  1  0  -0.675295  0  1.964548  0  0  -0.636265  0  2.205128  0  0  -0.658191  0  2.194135  0  0  -0.391084  -0.620821  0  2.212303  0
