# generated using pymatgen
data_HgH8C9S(NO)2
_symmetry_space_group_name_H-M   'P 1'
_cell_length_a   8.42208595
_cell_length_b   8.61789449
_cell_length_c   8.86026307
_cell_angle_alpha   112.71169640
_cell_angle_beta   107.12611911
_cell_angle_gamma   98.86620881
_symmetry_Int_Tables_number   1
_chemical_formula_structural   HgH8C9S(NO)2
_chemical_formula_sum   'Hg2 H16 C18 S2 N4 O4'
_cell_volume   540.11844723
_cell_formula_units_Z   2
loop_
 _symmetry_equiv_pos_site_id
 _symmetry_equiv_pos_as_xyz
  1  'x, y, z'
loop_
 _atom_site_type_symbol
 _atom_site_label
 _atom_site_symmetry_multiplicity
 _atom_site_fract_x
 _atom_site_fract_y
 _atom_site_fract_z
 _atom_site_occupancy
 _atom_site_pbe_bader_spin_density
 _atom_site_pbe_cm5_charge
 _atom_site_pbe_ddec_charge
 _atom_site_pbe_ddec_spin_density
 _atom_site_pbe_ddec_sum_bond_order
 _atom_site_pbe_magmom
Hg  Hg0  1  0.67490178  0.20735469  0.25460575  1  0  0.609291  0.611521  0  2.415387  0
Hg  Hg1  1  0.32511046  0.79266435  0.74540896  1  0  0.609295  0.611468  0  2.415365  0
H  H2  1  0.42465070  0.85229467  0.17332829  1  0  0.112222  0.093396  0  1.040522  0
H  H3  1  0.57536595  0.14771533  0.82667158  1  0  0.1122  0.093353  0  1.04051  0
H  H4  1  0.17689248  0.74541116  0.24732547  1  0  0.107824  0.120501  0  1.018299  0
H  H5  1  0.82311879  0.25458576  0.75266107  1  0  0.107778  0.120356  0  1.018244  0
H  H6  1  0.26542613  0.29237379  0.60469658  1  0  0.112177  0.133075  0  1.004557  0
H  H7  1  0.73456729  0.70761632  0.39529733  1  0  0.112168  0.132994  0  1.004636  0
H  H8  1  0.50585191  0.37322733  0.52095252  1  0  0.117807  0.100363  0  1.025057  0
H  H9  1  0.49414516  0.62677462  0.47904926  1  0  0.117801  0.100327  0  1.025118  0
H  H10  1  0.14954868  0.27824077  0.87989519  1  0  0.086773  0.142507  0  1.037449  0
H  H11  1  0.85043743  0.72173580  0.12011181  1  0  0.086801  0.142529  0  1.037328  0
H  H12  1  0.31200849  0.47877021  0.95012257  1  0  0.095505  0.155038  0  1.013202  0
H  H13  1  0.68796186  0.52120941  0.04986009  1  0  0.095485  0.154982  0  1.013201  0
H  H14  1  0.21750021  0.45698304  0.09860243  1  0  0.09089  0.148363  0  1.022868  0
H  H15  1  0.78249049  0.54300562  0.90139811  1  0  0.090858  0.148375  0  1.022856  0
H  H16  1  0.00412271  0.80702459  0.42497751  1  0  0.101526  0.100459  0  1.034615  0
H  H17  1  0.99588419  0.19296171  0.57500710  1  0  0.101493  0.100452  0  1.034586  0
C  C18  1  0.38158480  0.94288032  0.26641406  1  0  0.042779  0.078494  0  3.946122  0
C  C19  1  0.61842657  0.05712437  0.73358460  1  0  0.042739  0.078396  0  3.946126  0
C  C20  1  0.24410438  0.88603461  0.30735935  1  0  -0.08123  -0.172154  0  3.937544  0
C  C21  1  0.75589911  0.11396094  0.69262803  1  0  -0.081221  -0.171923  0  3.937198  0
C  C22  1  0.19286403  0.00942227  0.42661228  1  0  0.007643  0.141946  0  4.024492  0
C  C23  1  0.80713671  0.99056793  0.57337679  1  0  0.007573  0.141831  0  4.024579  0
C  C24  1  0.29014233  0.18837850  0.50483660  1  0  -0.076255  -0.156804  0  3.90008  0
C  C25  1  0.70985850  0.81161162  0.49515698  1  0  -0.076242  -0.156797  0  3.900228  0
C  C26  1  0.42690941  0.23608348  0.45928094  1  0  0.044412  0.083735  0  3.915129  0
C  C27  1  0.57309013  0.76391454  0.54071767  1  0  0.044423  0.083803  0  3.91505  0
C  C28  1  0.04443655  0.94809714  0.46334869  1  0  -0.079173  -0.120941  0  3.973545  0
C  C29  1  0.95556508  0.05189170  0.53664233  1  0  -0.079121  -0.120919  0  3.97343  0
C  C30  1  0.40237275  0.31344565  0.06328517  1  0  0.18944  0.670738  0  4.153636  0
C  C31  1  0.59762680  0.68655629  0.93671725  1  0  0.1896  0.670903  0  4.153339  0
C  C32  1  0.26002909  0.38549241  0.99312583  1  0  -0.251428  -0.510901  0  3.859851  0
C  C33  1  0.73995345  0.61448963  0.00687224  1  0  -0.251424  -0.510935  0  3.859594  0
C  C34  1  0.05184884  0.40241495  0.31066571  1  0  0.147791  0.23494  0  4.224052  0
C  C35  1  0.94815021  0.59762112  0.68936358  1  0  0.147642  0.234644  0  4.223951  0
S  S36  1  0.92722960  0.19572241  0.17624603  1  0  -0.067406  -0.138701  0  2.650064  0
S  S37  1  0.07277998  0.80430465  0.82376663  1  0  -0.067437  -0.138672  0  2.650327  0
N  N38  1  0.47057527  0.11534897  0.34070951  1  0  -0.306811  -0.158345  0  3.549258  0
N  N39  1  0.52943328  0.88465828  0.65929508  1  0  -0.306744  -0.158219  0  3.54919  0
N  N40  1  0.14691524  0.54768337  0.40281130  1  0  -0.340289  -0.417121  0  2.98925  0
N  N41  1  0.85307675  0.45233834  0.59720146  1  0  -0.340126  -0.416883  0  2.988861  0
O  O42  1  0.52229272  0.41621291  0.21712483  1  0  -0.322902  -0.55195  0  2.188805  0
O  O43  1  0.47770025  0.58379164  0.78288029  1  0  -0.322972  -0.55207  0  2.188679  0
O  O44  1  0.39919334  0.15755615  0.96912123  1  0  -0.340536  -0.588056  0  2.208595  0
O  O45  1  0.60082011  0.84245114  0.03088125  1  0  -0.340623  -0.588097  0  2.208604  0
