# generated using pymatgen
data_NdH18C18N2O11
_symmetry_space_group_name_H-M   'P 1'
_cell_length_a   10.56304100
_cell_length_b   11.34817576
_cell_length_c   11.55151061
_cell_angle_alpha   100.61153826
_cell_angle_beta   104.99613534
_cell_angle_gamma   102.84533228
_symmetry_Int_Tables_number   1
_chemical_formula_structural   NdH18C18N2O11
_chemical_formula_sum   'Nd2 H36 C36 N4 O22'
_cell_volume   1260.39291148
_cell_formula_units_Z   2
loop_
 _symmetry_equiv_pos_site_id
 _symmetry_equiv_pos_as_xyz
  1  'x, y, z'
loop_
 _atom_site_type_symbol
 _atom_site_label
 _atom_site_symmetry_multiplicity
 _atom_site_fract_x
 _atom_site_fract_y
 _atom_site_fract_z
 _atom_site_occupancy
 _atom_site_pbe_bader_charge
 _atom_site_pbe_bader_spin_density
 _atom_site_pbe_cm5_charge
 _atom_site_pbe_ddec_charge
 _atom_site_pbe_ddec_spin_density
 _atom_site_pbe_ddec_sum_bond_order
 _atom_site_pbe_magmom
Nd  Nd0  1  0.40996678  0.95752489  0.31027725  1  2.25946  0  1.505886  2.100675  0  2.153922  0
Nd  Nd1  1  0.59003449  0.04250083  0.68975491  1  2.25964  0  1.50578  2.100739  0  2.153197  0
H  H2  1  0.56410066  0.36287062  0.71707628  1  0.65875  0  0.303928  0.351598  0  0.974952  0
H  H3  1  0.25142176  0.11578239  0.74887477  1  0.64303  0  0.302902  0.347897  0  0.987037  0
H  H4  1  0.36838906  0.11375122  0.96730667  1  0.106684  0  0.116265  0.134177  0  1.006053  0
H  H5  1  0.34725166  0.26744753  0.00558081  1  0.082712  0  0.1076  0.124653  0  0.980831  0
H  H6  1  0.45786229  0.23727401  0.91626392  1  0.085103  0  0.116697  0.132475  0  0.985639  0
H  H7  1  0.71284291  0.37836777  0.22395030  1  0.056223  0  0.107937  0.116794  0  0.989145  0
H  H8  1  0.67637411  0.38007754  0.06391213  1  0.087549  0  0.097753  0.11693  0  1.044221  0
H  H9  1  0.57892610  0.43997691  0.15487812  1  0.093144  0  0.106176  0.130611  0  0.992967  0
H  H10  1  0.46406636  0.33540261  0.31120957  1  0.106009  0  0.110389  0.124038  0  1.022118  0
H  H11  1  0.09667631  0.88604017  0.35507700  1  0.147169  0  0.116496  0.142502  0  1.037607  0
H  H12  1  0.84649943  0.12517547  0.19908571  1  0.051282  0  0.103569  0.115946  0  0.99348  0
H  H13  1  0.88068584  0.16001567  0.06333211  1  0.073153  0  0.103757  0.121899  0  1.023665  0
H  H14  1  0.85280655  0.00410542  0.08021861  1  0.081681  0  0.114742  0.128601  0  1.00829  0
H  H15  1  0.18659165  0.29611588  0.20596800  1  0.075805  0  0.107928  0.129119  0  0.995347  0
H  H16  1  0.05768658  0.30838996  0.27790818  1  0.061608  0  0.111035  0.124694  0  0.975946  0
H  H17  1  0.19624494  0.25079873  0.34686990  1  0.096981  0  0.112365  0.131848  0  0.989675  0
H  H18  1  0.64103424  0.19810004  0.25520915  1  0.085977  0  0.126069  0.040239  0  0.994817  0
H  H19  1  0.02936056  0.93894478  0.13402546  1  0.122552  0  0.129866  0.059272  0  1.011957  0
H  H20  1  0.43582318  0.63711197  0.28289219  1  0.658913  0  0.303978  0.351597  0  0.974869  0
H  H21  1  0.74858597  0.88419422  0.25114913  1  0.64322  0  0.302726  0.347625  0  0.987375  0
H  H22  1  0.63162399  0.88624407  0.03272459  1  0.106689  0  0.116301  0.134241  0  1.005936  0
H  H23  1  0.65274576  0.73254380  0.99443455  1  0.083215  0  0.107651  0.124722  0  0.980814  0
H  H24  1  0.54210079  0.76269910  0.08372216  1  0.085195  0  0.116714  0.132537  0  0.985676  0
H  H25  1  0.28716351  0.62163402  0.77606318  1  0.056547  0  0.107887  0.116748  0  0.989163  0
H  H26  1  0.32365704  0.61996936  0.93611670  1  0.086677  0  0.097823  0.116964  0  1.044197  0
H  H27  1  0.42107593  0.56002379  0.84514271  1  0.09062  0  0.106151  0.130656  0  0.993025  0
H  H28  1  0.53585775  0.66457152  0.68877040  1  0.105624  0  0.110372  0.124014  0  1.022278  0
H  H29  1  0.90335133  0.11396594  0.64492267  1  0.147675  0  0.116419  0.142346  0  1.037538  0
H  H30  1  0.15349388  0.87478009  0.80085191  1  0.051019  0  0.103778  0.116188  0  0.993407  0
H  H31  1  0.11931214  0.83994643  0.93661569  1  0.072518  0  0.103733  0.121914  0  1.023699  0
H  H32  1  0.14722559  0.99587033  0.91974891  1  0.082229  0  0.114757  0.12863  0  1.00826  0
H  H33  1  0.81339677  0.70391077  0.79402735  1  0.075762  0  0.107951  0.129111  0  0.99529  0
H  H34  1  0.94224213  0.69158084  0.72203597  1  0.0613  0  0.110966  0.124719  0  0.975821  0
H  H35  1  0.80370336  0.74922150  0.65311681  1  0.096657  0  0.112493  0.131957  0  0.989275  0
H  H36  1  0.35902503  0.80189119  0.74476109  1  0.086292  0  0.126155  0.04035  0  0.994723  0
H  H37  1  0.97064294  0.06104877  0.86596240  1  0.121776  0  0.129905  0.059314  0  1.011899  0
C  C38  1  0.54905767  0.16335309  0.17267086  1  1.38928  0  0.187138  0.324051  0  4.115359  0
C  C39  1  0.41943667  0.21399301  0.99126639  1  0.227456  0  -0.126122  -0.264431  0  3.852246  0
C  C40  1  0.63151321  0.36806714  0.13831301  1  0.238088  0  -0.130556  -0.279592  0  3.902528  0
C  C41  1  0.52348788  0.25392334  0.51455093  1  1.546701  0  0.233712  0.657993  0  4.129451  0
C  C42  1  0.51273454  0.38129814  0.50916493  1  -0.020798  0  -0.033436  -0.16137  0  3.988641  0
C  C43  1  0.48067312  0.40859920  0.39355056  1  -0.034935  0  -0.100528  -0.200608  0  3.980078  0
C  C44  1  0.53227485  0.47421685  0.61797161  1  0.531119  0  0.07413  0.279135  0  4.087343  0
C  C45  1  0.14252616  0.50505506  0.03460408  1  0.146914  0  -0.062977  -0.202443  0  3.572631  0
C  C46  1  0.94876938  0.61729053  0.01433403  1  0.940975  0  0.193021  0.42516  0  3.988773  0
C  C47  1  0.11020882  0.60843691  0.06171465  1  -0.227509  0  0.011885  -0.059348  0  3.821486  0
C  C48  1  0.20641914  0.73327297  0.14292410  1  1.676024  0  0.20134  0.587976  0  4.315071  0
C  C49  1  0.28555790  0.01346476  0.57538757  1  1.519726  0  0.2227  0.640924  0  4.14689  0
C  C50  1  0.13842196  0.00466646  0.53746020  1  0.007567  0  -0.029458  -0.152697  0  3.994824  0
C  C51  1  0.08313521  0.06759990  0.62172123  1  0.577231  0  0.075014  0.279162  0  4.080102  0
C  C52  1  0.05456959  0.93699571  0.41779425  1  -0.102084  0  -0.09714  -0.202092  0  3.950801  0
C  C53  1  0.10061271  0.03204667  0.18473016  1  1.395018  0  0.18778  0.325855  0  4.084611  0
C  C54  1  0.89778473  0.10300832  0.12972582  1  0.272489  0  -0.129368  -0.283644  0  3.911764  0
C  C55  1  0.12601346  0.25262920  0.25925450  1  0.255238  0  -0.12837  -0.267251  0  3.877416  0
C  C56  1  0.45096537  0.83665756  0.82732937  1  1.389271  0  0.187177  0.323998  0  4.114826  0
C  C57  1  0.58056195  0.78600211  0.00874391  1  0.22674  0  -0.126208  -0.264752  0  3.852306  0
C  C58  1  0.36850304  0.63194791  0.86169844  1  0.240821  0  -0.130617  -0.279884  0  3.902741  0
C  C59  1  0.47649751  0.74606601  0.48544460  1  1.546938  0  0.233537  0.657838  0  4.129763  0
C  C60  1  0.48729531  0.61869871  0.49083447  1  -0.020717  0  -0.033325  -0.16123  0  3.988553  0
C  C61  1  0.51933081  0.59138964  0.60644606  1  -0.033997  0  -0.100474  -0.200538  0  3.980117  0
C  C62  1  0.46776522  0.52578854  0.38203625  1  0.530837  0  0.074237  0.279198  0  4.087569  0
C  C63  1  0.85746978  0.49497243  0.96542447  1  0.146134  0  -0.063078  -0.202587  0  3.572039  0
C  C64  1  0.05123479  0.38272990  0.98567018  1  0.94069  0  0.192955  0.424921  0  3.989244  0
C  C65  1  0.88978026  0.39158963  0.93829730  1  -0.226901  0  0.01203  -0.05904  0  3.820855  0
C  C66  1  0.79356441  0.26675894  0.85709871  1  1.67644  0  0.200985  0.587458  0  4.314807  0
C  C67  1  0.71446091  0.98652975  0.42463980  1  1.519717  0  0.222534  0.640698  0  4.14715  0
C  C68  1  0.86159679  0.99532353  0.46255160  1  0.007919  0  -0.029567  -0.152797  0  3.994913  0
C  C69  1  0.91688449  0.93240031  0.37829442  1  0.577464  0  0.075156  0.279424  0  4.080092  0
C  C70  1  0.94545440  0.06300187  0.58221420  1  -0.102343  0  -0.096965  -0.201758  0  3.950787  0
C  C71  1  0.89940067  0.96794627  0.81524620  1  1.39557  0  0.187681  0.325769  0  4.08438  0
C  C72  1  0.10223428  0.89696908  0.87023178  1  0.272238  0  -0.12947  -0.283754  0  3.911671  0
C  C73  1  0.87395476  0.74737393  0.74071587  1  0.255592  0  -0.128551  -0.267446  0  3.876782  0
N  N74  1  0.53482114  0.24433089  0.10345792  1  -1.205949  0  -0.272005  0.044143  0  3.709729  0
N  N75  1  0.04323027  0.12559959  0.19026893  1  -1.222778  0  -0.273963  0.035851  0  3.704952  0
N  N76  1  0.46521084  0.75567261  0.89653111  1  -1.205653  0  -0.271893  0.044662  0  3.709241  0
N  N77  1  0.95677876  0.87438942  0.80972035  1  -1.221843  0  -0.274002  0.035666  0  3.704955  0
O  O78  1  0.22593026  0.04765028  0.23392862  1  -1.198886  0  -0.381713  -0.572597  0  2.381632  0
O  O79  1  0.46668663  0.05707207  0.14997207  1  -1.179202  0  -0.373514  -0.547849  0  2.329866  0
O  O80  1  0.50771916  0.17623480  0.41432335  1  -1.207735  0  -0.396079  -0.666646  0  2.347016  0
O  O81  1  0.54720801  0.22943295  0.62156531  1  -1.180335  0  -0.372499  -0.652599  0  2.303914  0
O  O82  1  0.56301573  0.45283831  0.73254467  1  -1.183551  0  -0.362107  -0.466226  0  2.295282  0
O  O83  1  0.30280537  0.78556915  0.10658949  1  -1.16171  0  -0.346361  -0.590406  0  2.157354  0
O  O84  1  0.34525633  0.98502988  0.49583893  1  -1.218329  0  -0.415227  -0.715993  0  2.411853  0
O  O85  1  0.35415661  0.05177088  0.69174707  1  -1.184657  0  -0.365071  -0.639559  0  2.257557  0
O  O86  1  0.16022720  0.13236925  0.73946099  1  -1.16931  0  -0.362082  -0.458887  0  2.294852  0
O  O87  1  0.18553392  0.77514362  0.24298147  1  -1.155859  0  -0.33892  -0.580064  0  2.203085  0
O  O88  1  0.93617759  0.72182382  0.02298313  1  -1.045854  0  -0.190705  -0.310146  0  2.178808  0
O  O89  1  0.77408862  0.95234585  0.76601334  1  -1.198814  0  -0.38161  -0.572492  0  2.381321  0
O  O90  1  0.53330226  0.94296176  0.85005849  1  -1.179315  0  -0.373678  -0.548048  0  2.329728  0
O  O91  1  0.49224729  0.82372425  0.58568438  1  -1.207823  0  -0.395803  -0.666528  0  2.346877  0
O  O92  1  0.45277434  0.77058697  0.37843940  1  -1.180428  0  -0.372498  -0.652603  0  2.303848  0
O  O93  1  0.43694726  0.54715602  0.26746348  1  -1.18338  0  -0.362261  -0.466299  0  2.295594  0
O  O94  1  0.69719850  0.21444912  0.89345062  1  -1.16161  0  -0.346163  -0.590195  0  2.157099  0
O  O95  1  0.65479341  0.01495767  0.50421656  1  -1.218434  0  -0.415067  -0.715725  0  2.411431  0
O  O96  1  0.64585306  0.94824296  0.30828156  1  -1.184705  0  -0.365015  -0.639533  0  2.257765  0
O  O97  1  0.83978258  0.86761111  0.26056497  1  -1.169848  0  -0.36197  -0.458726  0  2.295083  0
O  O98  1  0.81443592  0.22488804  0.75703352  1  -1.156102  0  -0.338823  -0.579887  0  2.202672  0
O  O99  1  0.06383045  0.27821177  0.97699800  1  -1.045249  0  -0.190672  -0.30995  0  2.17927  0
