# generated using pymatgen
data_AlH9C27(ClO)6
_symmetry_space_group_name_H-M   'P 1'
_cell_length_a   4.01375540
_cell_length_b   16.11614024
_cell_length_c   16.11621523
_cell_angle_alpha   120.15536496
_cell_angle_beta   89.65785099
_cell_angle_gamma   89.65815961
_symmetry_Int_Tables_number   1
_chemical_formula_structural   AlH9C27(ClO)6
_chemical_formula_sum   'Al1 H9 C27 Cl6 O6'
_cell_volume   901.34798458
_cell_formula_units_Z   1
loop_
 _symmetry_equiv_pos_site_id
 _symmetry_equiv_pos_as_xyz
  1  'x, y, z'
loop_
 _atom_site_type_symbol
 _atom_site_label
 _atom_site_symmetry_multiplicity
 _atom_site_fract_x
 _atom_site_fract_y
 _atom_site_fract_z
 _atom_site_occupancy
 _atom_site_pbe_bader_charge
 _atom_site_pbe_bader_spin_density
 _atom_site_pbe_cm5_charge
 _atom_site_pbe_ddec_charge
 _atom_site_pbe_ddec_spin_density
 _atom_site_pbe_ddec_sum_bond_order
 _atom_site_pbe_magmom
Al  Al0  1  0.99998381  0.50001841  0.49988951  1  2.508287  0  0.423276  1.621439  0  2.539251  0
H  H1  1  0.50010546  0.92186722  0.07800632  1  0.017457  0  0.101693  0.102912  0  1.024632  0
H  H2  1  0.46673249  0.65546038  0.07790858  1  0.029574  0  0.102079  0.104507  0  1.018134  0
H  H3  1  0.53318020  0.92202901  0.34444095  1  0.028526  0  0.102277  0.105059  0  1.018554  0
H  H4  1  0.74094156  0.05511886  0.15669286  1  0.085146  0  0.104285  0.119927  0  1.006399  0
H  H5  1  0.26697851  0.05595506  0.39909843  1  0.075658  0  0.103782  0.11913  0  1.006138  0
H  H6  1  0.25915483  0.84318685  0.94478881  1  0.09195  0  0.104154  0.119733  0  1.006295  0
H  H7  1  0.73285768  0.60074561  0.94393891  1  0.080287  0  0.103926  0.119278  0  1.006396  0
H  H8  1  0.74448853  0.60206583  0.15728982  1  0.098911  0  0.103258  0.118856  0  1.008672  0
H  H9  1  0.25548390  0.84264514  0.39785355  1  0.098577  0  0.103312  0.118677  0  1.008551  0
C  C10  1  0.49680606  0.57306965  0.64733040  1  1.623879  0  0.274722  0.679342  0  4.075559  0
C  C11  1  0.49997786  0.57358548  0.42635695  1  1.597551  0  0.274956  0.682718  0  4.038954  0
C  C12  1  0.50316166  0.35258102  0.42682125  1  1.624257  0  0.274479  0.678174  0  4.076697  0
C  C13  1  0.49495670  0.78231045  0.06533387  1  0.069598  0  -0.004896  0.081874  0  4.008864  0
C  C14  1  0.50008894  0.88289598  0.11699914  1  -0.107283  0  -0.085021  -0.168701  0  3.913614  0
C  C15  1  0.50514390  0.93456698  0.21756799  1  0.067997  0  -0.004377  0.082463  0  4.008097  0
C  C16  1  0.51088282  0.88323165  0.26658279  1  0.08281  0  -0.086588  -0.172658  0  3.919531  0
C  C17  1  0.49999131  0.78271796  0.21719088  1  -0.050624  0  -0.006548  0.078209  0  4.012337  0
C  C18  1  0.48913115  0.73332886  0.11669810  1  0.078609  0  -0.086741  -0.172233  0  3.920274  0
C  C19  1  0.62505918  0.19199241  0.27853355  1  0.058903  0  0.019535  0.14723  0  4.050918  0
C  C20  1  0.63136373  0.09205330  0.22842884  1  0.042169  0  -0.100163  -0.213382  0  3.971706  0
C  C21  1  0.50591703  0.04083088  0.27076247  1  -0.09718  0  -0.005077  0.100833  0  4.004178  0
C  C22  1  0.37787394  0.09264775  0.36471230  1  0.023454  0  -0.099789  -0.21152  0  3.966422  0
C  C23  1  0.38207980  0.19263640  0.41510437  1  0.08498  0  0.020159  0.146863  0  4.048973  0
C  C24  1  0.50369052  0.24455181  0.37309265  1  0.04923  0  -0.017304  -0.153878  0  3.913701  0
C  C25  1  0.36866668  0.77143748  0.90785154  1  0.038254  0  -0.100097  -0.213534  0  3.972022  0
C  C26  1  0.37491858  0.72134443  0.80791691  1  0.059151  0  0.019765  0.1479  0  4.050776  0
C  C27  1  0.49624458  0.62677408  0.75534698  1  0.05033  0  -0.017718  -0.154943  0  3.914244  0
C  C28  1  0.61781622  0.58475756  0.80726165  1  0.08181  0  0.020241  0.147243  0  4.048903  0
C  C29  1  0.62202257  0.63513815  0.90725103  1  0.019711  0  -0.100033  -0.211946  0  3.967163  0
C  C30  1  0.49408148  0.72910675  0.95907195  1  -0.09826  0  -0.004786  0.10133  0  4.003788  0
C  C31  1  0.63252340  0.63671869  0.22870113  1  0.014334  0  -0.101699  -0.218257  0  3.973645  0
C  C32  1  0.63220954  0.58669710  0.27841536  1  0.060344  0  0.025553  0.160286  0  4.016217  0
C  C33  1  0.49999459  0.62717556  0.37275561  1  0.09025  0  -0.018187  -0.169429  0  3.871782  0
C  C34  1  0.36775971  0.72152573  0.41323415  1  0.060362  0  0.025604  0.160426  0  4.016464  0
C  C35  1  0.36748240  0.77121911  0.36319838  1  0.014943  0  -0.101577  -0.217959  0  3.974639  0
C  C36  1  0.49997429  0.72980389  0.27013385  1  -0.089886  0  0.000561  0.114974  0  4.004552  0
Cl  Cl37  1  0.22978008  0.25315864  0.53144809  1  -0.184577  0  0.0054  -0.052373  0  1.559536  0
Cl  Cl38  1  0.77502802  0.25189360  0.22265163  1  -0.184719  0  0.005197  -0.053173  0  1.573104  0
Cl  Cl39  1  0.22500233  0.77722636  0.74801102  1  -0.185523  0  0.005132  -0.053304  0  1.573321  0
Cl  Cl40  1  0.77011822  0.46841095  0.74673973  1  -0.184819  0  0.005487  -0.052327  0  1.559309  0
Cl  Cl41  1  0.79269931  0.47131424  0.21581859  1  -0.174125  0  0.002349  -0.056144  0  1.588788  0
Cl  Cl42  1  0.20729777  0.78413033  0.52861801  1  -0.173751  0  0.00232  -0.056153  0  1.588588  0
O  O43  1  0.26639792  0.39392813  0.40935160  1  -1.245023  0  -0.230302  -0.588428  0  2.400578  0
O  O44  1  0.26125703  0.51487325  0.60598345  1  -1.239632  0  -0.230232  -0.590322  0  2.411256  0
O  O45  1  0.26173007  0.58980760  0.48511565  1  -1.254018  0  -0.235727  -0.599789  0  2.445623  0
O  O46  1  0.73865604  0.39390387  0.48500424  1  -1.238103  0  -0.230332  -0.590029  0  2.412669  0
O  O47  1  0.73825383  0.51480209  0.41012023  1  -1.253951  0  -0.235923  -0.600036  0  2.444724  0
O  O48  1  0.73354931  0.59054237  0.60598386  1  -1.245825  0  -0.230384  -0.588862  0  2.400891  0
