# generated using pymatgen
data_YbH10(C3O4)2
_symmetry_space_group_name_H-M   'P 1'
_cell_length_a   6.56217734
_cell_length_b   9.44376604
_cell_length_c   10.24753744
_cell_angle_alpha   81.57276688
_cell_angle_beta   89.46758209
_cell_angle_gamma   69.55269548
_symmetry_Int_Tables_number   1
_chemical_formula_structural   YbH10(C3O4)2
_chemical_formula_sum   'Yb2 H20 C12 O16'
_cell_volume   588.01778694
_cell_formula_units_Z   2
loop_
 _symmetry_equiv_pos_site_id
 _symmetry_equiv_pos_as_xyz
  1  'x, y, z'
loop_
 _atom_site_type_symbol
 _atom_site_label
 _atom_site_symmetry_multiplicity
 _atom_site_fract_x
 _atom_site_fract_y
 _atom_site_fract_z
 _atom_site_occupancy
 _atom_site_pbe_bader_spin_density
 _atom_site_pbe_cm5_charge
 _atom_site_pbe_ddec_charge
 _atom_site_pbe_ddec_spin_density
 _atom_site_pbe_ddec_sum_bond_order
 _atom_site_pbe_magmom
Yb  Yb0  1  0.38127823  0.11545307  0.32403087  1  0  1.567405  2.023968  0  2.088934  0
Yb  Yb1  1  0.61872013  0.88454732  0.67596834  1  0  1.567367  2.023942  0  2.088903  0
H  H2  1  0.48529695  0.21525796  0.05456678  1  0  0.332637  0.421976  0  0.875103  0
H  H3  1  0.51469933  0.78474356  0.94543244  1  0  0.332651  0.422026  0  0.875022  0
H  H4  1  0.51948060  0.32201958  0.15083153  1  0  0.343864  0.43487  0  0.844431  0
H  H5  1  0.48052264  0.67797704  0.84916964  1  0  0.343921  0.434933  0  0.844388  0
H  H6  1  0.83046664  0.94522706  0.38717882  1  0  0.298679  0.402812  0  0.939498  0
H  H7  1  0.16953186  0.05476994  0.61282037  1  0  0.298682  0.40283  0  0.939462  0
H  H8  1  0.85426102  0.06294095  0.26603757  1  0  0.300918  0.404502  0  0.926017  0
H  H9  1  0.14573862  0.93705983  0.73396560  1  0  0.300905  0.404472  0  0.926049  0
H  H10  1  0.91145384  0.43212189  0.58249821  1  0  0.112678  0.146311  0  0.982772  0
H  H11  1  0.08854620  0.56787813  0.41750298  1  0  0.112671  0.146297  0  0.982756  0
H  H12  1  0.73060718  0.48032470  0.44450614  1  0  0.105116  0.12154  0  0.990309  0
H  H13  1  0.26939792  0.51967435  0.55549405  1  0  0.10512  0.121561  0  0.990293  0
H  H14  1  0.81756207  0.19535898  0.65765952  1  0  0.10964  0.122554  0  0.997424  0
H  H15  1  0.18243381  0.80464331  0.34234168  1  0  0.109649  0.12255  0  0.997441  0
H  H16  1  0.59104654  0.36570338  0.64963100  1  0  0.11337  0.13455  0  0.960412  0
H  H17  1  0.40895103  0.63429869  0.35036526  1  0  0.113364  0.134562  0  0.960403  0
H  H18  1  0.17415727  0.83933868  0.03215313  1  0  0.10808  0.120393  0  0.961202  0
H  H19  1  0.82583227  0.16066720  0.96784711  1  0  0.108053  0.12037  0  0.961169  0
H  H20  1  0.20767343  0.99437403  0.92552823  1  0  0.113198  0.136753  0  1.002534  0
H  H21  1  0.79232123  0.00562768  0.07447000  1  0  0.113202  0.136775  0  1.002564  0
C  C22  1  0.01573136  0.28842046  0.43492355  1  0  0.197678  0.637502  0  4.128192  0
C  C23  1  0.98427125  0.71158049  0.56507864  1  0  0.197587  0.637397  0  4.128276  0
C  C24  1  0.83757309  0.38302519  0.51315431  1  0  -0.162115  -0.276354  0  3.914716  0
C  C25  1  0.16243008  0.61697463  0.48684787  1  0  -0.162103  -0.276337  0  3.914657  0
C  C26  1  0.71057154  0.29282691  0.58897281  1  0  -0.154935  -0.270203  0  3.909819  0
C  C27  1  0.28943093  0.70717440  0.41102740  1  0  -0.154929  -0.270223  0  3.909862  0
C  C28  1  0.58867297  0.23384231  0.49921196  1  0  0.21695  0.680523  0  4.096922  0
C  C29  1  0.41133038  0.76615729  0.50078527  1  0  0.21696  0.680588  0  4.096829  0
C  C30  1  0.21009551  0.01473547  0.12671407  1  0  0.192739  0.627989  0  4.168747  0
C  C31  1  0.78990140  0.98526475  0.87328613  1  0  0.192755  0.628054  0  4.168709  0
C  C32  1  0.12268050  0.96502387  0.01270294  1  0  -0.162154  -0.272764  0  3.919469  0
C  C33  1  0.87731384  0.03497843  0.98729826  1  0  -0.162159  -0.272826  0  3.919449  0
O  O34  1  0.09575237  0.35038090  0.33976787  1  0  -0.379666  -0.617806  0  2.173959  0
O  O35  1  0.90425626  0.64961703  0.66023825  1  0  -0.37959  -0.617729  0  2.174021  0
O  O36  1  0.09397941  0.14144784  0.46773050  1  0  -0.391004  -0.644694  0  2.302123  0
O  O37  1  0.90602153  0.85855348  0.53226971  1  0  -0.390985  -0.644668  0  2.302083  0
O  O38  1  0.54112168  0.29521464  0.38013242  1  0  -0.363396  -0.610447  0  2.186597  0
O  O39  1  0.45888647  0.70478138  0.61986578  1  0  -0.363412  -0.610479  0  2.186487  0
O  O40  1  0.52913358  0.11964802  0.54472702  1  0  -0.455115  -0.759423  0  2.383548  0
O  O41  1  0.47086407  0.88035387  0.45527023  1  0  -0.45513  -0.759467  0  2.383558  0
O  O42  1  0.41523810  0.96784141  0.14991058  1  0  -0.393362  -0.643391  0  2.176134  0
O  O43  1  0.58475559  0.03215918  0.85008764  1  0  -0.393363  -0.64344  0  2.176232  0
O  O44  1  0.08222496  0.10475052  0.19916280  1  0  -0.378912  -0.641933  0  2.226565  0
O  O45  1  0.91777605  0.89525062  0.80083840  1  0  -0.378892  -0.641912  0  2.226492  0
O  O46  1  0.42320548  0.27002920  0.12752103  1  0  -0.610556  -0.803073  0  2.007033  0
O  O47  1  0.57679191  0.72997006  0.87247817  1  0  -0.610613  -0.803178  0  2.006977  0
O  O48  1  0.75609373  0.00856597  0.30153895  1  0  -0.661729  -0.876144  0  2.095536  0
O  O49  1  0.24390664  0.99143346  0.69845927  1  0  -0.661721  -0.876112  0  2.095551  0
