# generated using pymatgen
data_CoH18C16S2(N2O)2
_symmetry_space_group_name_H-M   'P 1'
_cell_length_a   7.04088083
_cell_length_b   7.81730287
_cell_length_c   8.77865352
_cell_angle_alpha   66.88929369
_cell_angle_beta   89.41523396
_cell_angle_gamma   76.22061878
_symmetry_Int_Tables_number   1
_chemical_formula_structural   CoH18C16S2(N2O)2
_chemical_formula_sum   'Co1 H18 C16 S2 N4 O2'
_cell_volume   429.73686765
_cell_formula_units_Z   1
loop_
 _symmetry_equiv_pos_site_id
 _symmetry_equiv_pos_as_xyz
  1  'x, y, z'
loop_
 _atom_site_type_symbol
 _atom_site_label
 _atom_site_symmetry_multiplicity
 _atom_site_fract_x
 _atom_site_fract_y
 _atom_site_fract_z
 _atom_site_occupancy
 _atom_site_pbe_cm5_charge
 _atom_site_pbe_ddec_charge
 _atom_site_pbe_ddec_spin_density
 _atom_site_pbe_ddec_sum_bond_order
 _atom_site_pbe_magmom
Co  Co0  1  0.49999947  0.50000811  0.49999479  1  0.731129  0.715516  1.044756  3.042131  0.97
H  H1  1  0.35148668  0.08740639  0.20215640  1  0.1069  0.119069  -0.000107  1.015542  0.0
H  H2  1  0.64851044  0.91259543  0.79784064  1  0.106887  0.119046  -0.000107  1.015491  0.0
H  H3  1  0.18456980  0.37092428  0.95110897  1  0.097396  0.094955  -0.000145  1.049595  0.0
H  H4  1  0.81543621  0.62907619  0.04888853  1  0.097416  0.094979  -0.000145  1.04957  0.0
H  H5  1  0.18392946  0.70366479  0.93617251  1  0.095285  0.101534  -0.000214  1.055151  0.0
H  H6  1  0.81607660  0.29633560  0.06382046  1  0.095334  0.10161  -0.000214  1.055088  0.0
H  H7  1  0.34227895  0.72743784  0.17225343  1  0.115448  0.087223  -0.00022  1.031811  0.0
H  H8  1  0.65772345  0.27256549  0.82774306  1  0.115462  0.087274  -0.00022  1.03171  0.0
H  H9  1  0.62998957  0.10861871  0.54854968  1  0.106517  0.10924  -0.000149  1.081663  0.0
H  H10  1  0.37000149  0.89138450  0.45144690  1  0.106539  0.109312  -0.000149  1.081725  0.0
H  H11  1  0.09258315  0.77358386  0.33771736  1  0.26598  0.286014  0.000309  1.05739  0.001
H  H12  1  0.90741731  0.22641082  0.66228339  1  0.265998  0.28603  0.000309  1.057388  0.001
H  H13  1  0.99710878  0.59181853  0.61161777  1  0.089724  0.094628  -0.00019  1.006716  0.0
H  H14  1  0.00288801  0.40817910  0.38838763  1  0.089724  0.094626  -0.00019  1.006738  0.0
H  H15  1  0.93874270  0.84883838  0.53684286  1  0.089381  0.089054  0.000845  1.029325  0.001
H  H16  1  0.06125863  0.15116355  0.46315755  1  0.089376  0.089047  0.000845  1.029351  0.001
H  H17  1  0.15060907  0.70512049  0.67975570  1  0.095853  0.099387  6e-06  1.014567  0.0
H  H18  1  0.84939409  0.29487998  0.32024295  1  0.095865  0.099387  6e-06  1.014561  0.0
C  C19  1  0.28433427  0.22379163  0.73335970  1  0.154175  0.259984  -0.010626  4.285407  -0.007
C  C20  1  0.71568611  0.77621340  0.26664065  1  0.15418  0.260014  -0.010636  4.285057  -0.007
C  C21  1  0.42481521  0.25383742  0.32820945  1  0.121935  0.243372  -0.004993  3.946778  -0.003
C  C22  1  0.57517353  0.74615858  0.67179087  1  0.121965  0.243249  -0.004993  3.946747  -0.003
C  C23  1  0.34071374  0.23186402  0.19443076  1  -0.077805  -0.155272  -0.000446  3.906854  0.0
C  C24  1  0.65928348  0.76813211  0.80557176  1  -0.077828  -0.155212  -0.000447  3.906696  0.0
C  C25  1  0.25027603  0.39059473  0.05289346  1  -0.071607  -0.023096  -0.004659  3.971311  -0.003
C  C26  1  0.74972623  0.60939852  0.94710780  1  -0.071583  -0.023099  -0.004658  3.971443  -0.003
C  C27  1  0.24938917  0.57255429  0.04423062  1  -0.090985  -0.135067  -0.000303  4.004951  0.0
C  C28  1  0.75061578  0.42744478  0.95576966  1  -0.091014  -0.135136  -0.000303  4.004976  0.0
C  C29  1  0.33773152  0.58739466  0.17726522  1  0.040343  0.075048  -0.004201  3.954561  -0.002
C  C30  1  0.66226388  0.41260289  0.82273680  1  0.040321  0.075041  -0.004201  3.954472  -0.002
C  C31  1  0.52011496  0.08665274  0.47651363  1  -0.086872  -0.15368  -0.001966  3.971182  -0.001
C  C32  1  0.47987387  0.91335340  0.52348532  1  -0.086955  -0.153824  -0.001967  3.971302  -0.001
C  C33  1  0.05894007  0.71747041  0.57404930  1  -0.15817  -0.122771  0.000979  3.908419  0.001
C  C34  1  0.94106101  0.28252719  0.42595267  1  -0.158169  -0.122738  0.000978  3.908421  0.001
S  S35  1  0.15842392  0.08266020  0.85229426  1  -0.137135  -0.313985  -0.002937  2.404624  0.0
S  S36  1  0.84158445  0.91734188  0.14770949  1  -0.137114  -0.313919  -0.002942  2.404913  0.0
N  N37  1  0.37661476  0.32658900  0.64739747  1  -0.412156  -0.452865  -0.003419  3.547478  -0.002
N  N38  1  0.62338088  0.67341293  0.35260524  1  -0.412198  -0.45299  -0.003415  3.547215  -0.002
N  N39  1  0.42175739  0.43407918  0.31813255  1  -0.316303  -0.225465  -0.011255  3.521693  -0.008
N  N40  1  0.57823738  0.56591548  0.68187051  1  -0.316321  -0.225459  -0.011256  3.521867  -0.008
O  O41  1  0.18132674  0.72739115  0.44085072  1  -0.393446  -0.435015  0.02132  2.499476  0.035
O  O42  1  0.81867189  0.27260499  0.55915179  1  -0.393471  -0.435048  0.02132  2.499397  0.035
