# generated using pymatgen
data_KGdH4C5O9
_symmetry_space_group_name_H-M   'P 1'
_cell_length_a   7.24150389
_cell_length_b   8.93101597
_cell_length_c   16.38738522
_cell_angle_alpha   89.99980525
_cell_angle_beta   89.99976184
_cell_angle_gamma   89.99994296
_symmetry_Int_Tables_number   1
_chemical_formula_structural   KGdH4C5O9
_chemical_formula_sum   'K4 Gd4 H16 C20 O36'
_cell_volume   1059.83753627
_cell_formula_units_Z   4
loop_
 _symmetry_equiv_pos_site_id
 _symmetry_equiv_pos_as_xyz
  1  'x, y, z'
loop_
 _atom_site_type_symbol
 _atom_site_label
 _atom_site_symmetry_multiplicity
 _atom_site_fract_x
 _atom_site_fract_y
 _atom_site_fract_z
 _atom_site_occupancy
 _atom_site_hle17_bader_spin_density
 _atom_site_hle17_ddec_charge
 _atom_site_hle17_ddec_spin_density
 _atom_site_hle17_ddec_sum_bond_order
 _atom_site_hle17_magmom
 _atom_site_hse06_10hf_bader_spin_density
 _atom_site_hse06_10hf_ddec_charge
 _atom_site_hse06_10hf_ddec_spin_density
 _atom_site_hse06_10hf_ddec_sum_bond_order
 _atom_site_hse06_10hf_magmom
 _atom_site_hse06_bader_spin_density
 _atom_site_hse06_ddec_charge
 _atom_site_hse06_ddec_spin_density
 _atom_site_hse06_ddec_sum_bond_order
 _atom_site_hse06_magmom
 _atom_site_pbe_bader_spin_density
 _atom_site_pbe_cm5_charge
 _atom_site_pbe_ddec_charge
 _atom_site_pbe_ddec_spin_density
 _atom_site_pbe_ddec_sum_bond_order
 _atom_site_pbe_magmom
K  K0  1  0.00000030  0.03281863  0.22589812  1  0  0.944578  0  0.482567  0  0  0.898497  0  0.658864  0  0  0.91473  0  0.633954  0  0  0.853193  0.885996  0  0.677188  0
K  K1  1  0.99999937  0.96718390  0.77410460  1  0  0.944566  0  0.482602  0  0  0.898482  0  0.658906  0  0  0.914726  0  0.633978  0  0  0.853171  0.885987  0  0.677215  0
K  K2  1  0.00000044  0.46717863  0.72589512  1  0  0.944606  0  0.482542  0  0  0.898538  0  0.658818  0  0  0.914763  0  0.63392  0  0  0.853226  0.886037  0  0.67714  0
K  K3  1  0.00000115  0.53281535  0.27410120  1  0  0.944588  0  0.482532  0  0  0.898508  0  0.658832  0  0  0.91474  0  0.63392  0  0  0.853205  0.886019  0  0.677149  0
Gd  Gd4  1  0.49999995  0.98634074  0.11944721  1  0  2.16063  0  1.841222  0  0  2.063672  0  2.205082  0  0  2.122702  0  2.146699  0  0  1.461307  2.019047  0  2.249967  0
Gd  Gd5  1  0.50000110  0.01365732  0.88055428  1  0  2.160579  0  1.841439  0  0  2.063598  0  2.20531  0  0  2.122544  0  2.147083  0  0  1.461222  2.018962  0  2.2502  0
Gd  Gd6  1  0.49999926  0.51365724  0.61944627  1  0  2.160639  0  1.841078  0  0  2.063676  0  2.204918  0  0  2.122631  0  2.146673  0  0  1.461297  2.01906  0  2.249791  0
Gd  Gd7  1  0.50000040  0.48634306  0.38055278  1  0  2.160541  0  1.841431  0  0  2.063622  0  2.205232  0  0  2.122636  0  2.146877  0  0  1.461356  2.019015  0  2.250112  0
H  H8  1  0.10527865  0.24000393  0.38590261  1  0  0.422317  0  0.859771  0  0  0.39567  0  0.922278  0  0  0.4043  0  0.909523  0  0  0.304417  0.389539  0  0.931353  0
H  H9  1  0.10528417  0.75999893  0.61409656  1  0  0.422311  0  0.859727  0  0  0.395653  0  0.922299  0  0  0.404286  0  0.909538  0  0  0.304386  0.38952  0  0.931376  0
H  H10  1  0.89471314  0.26000873  0.88590232  1  0  0.422347  0  0.859733  0  0  0.395701  0  0.922234  0  0  0.40433  0  0.90948  0  0  0.304417  0.389568  0  0.931312  0
H  H11  1  0.89472338  0.74000916  0.11409906  1  0  0.422316  0  0.859708  0  0  0.395666  0  0.922265  0  0  0.404295  0  0.909512  0  0  0.304387  0.389534  0  0.931342  0
H  H12  1  0.89472792  0.75998741  0.61409583  1  0  0.422296  0  0.859758  0  0  0.395651  0  0.922294  0  0  0.404281  0  0.909538  0  0  0.304403  0.389518  0  0.931371  0
H  H13  1  0.89472103  0.24000249  0.38590311  1  0  0.422296  0  0.859787  0  0  0.39565  0  0.922301  0  0  0.404279  0  0.909546  0  0  0.304411  0.389518  0  0.931377  0
H  H14  1  0.10528101  0.74000612  0.11409857  1  0  0.422314  0  0.859718  0  0  0.395665  0  0.922271  0  0  0.404295  0  0.909515  0  0  0.30438  0.389533  0  0.931346  0
H  H15  1  0.10527215  0.25999674  0.88590243  1  0  0.422376  0  0.859761  0  0  0.395726  0  0.922214  0  0  0.404356  0  0.90946  0  0  0.304425  0.389593  0  0.931292  0
H  H16  1  0.62090634  0.57261815  0.93302877  1  0  0.121591  0  0.90145  0  0  0.140408  0  0.950707  0  0  0.14266  0  0.950043  0  0  0.118536  0.13876  0  0.951341  0
H  H17  1  0.62090498  0.42738653  0.06697372  1  0  0.121616  0  0.901453  0  0  0.140392  0  0.950703  0  0  0.142624  0  0.950058  0  0  0.118527  0.138744  0  0.951345  0
H  H18  1  0.37909268  0.92738571  0.43302700  1  0  0.121566  0  0.901406  0  0  0.140386  0  0.950715  0  0  0.142635  0  0.950056  0  0  0.118528  0.138739  0  0.951354  0
H  H19  1  0.37910086  0.07261916  0.56696923  1  0  0.121743  0  0.901464  0  0  0.140521  0  0.950671  0  0  0.142762  0  0.950014  0  0  0.118599  0.138874  0  0.951304  0
H  H20  1  0.37909609  0.42738439  0.06697272  1  0  0.121661  0  0.901417  0  0  0.140438  0  0.950663  0  0  0.14267  0  0.950018  0  0  0.118551  0.13879  0  0.951304  0
H  H21  1  0.37909469  0.57261601  0.93302900  1  0  0.121606  0  0.901442  0  0  0.140424  0  0.950698  0  0  0.142675  0  0.950033  0  0  0.118545  0.138775  0  0.951332  0
H  H22  1  0.62089870  0.07261682  0.56696840  1  0  0.121753  0  0.901463  0  0  0.140531  0  0.950669  0  0  0.142773  0  0.950011  0  0  0.118607  0.138884  0  0.951302  0
H  H23  1  0.62090709  0.92738226  0.43302799  1  0  0.121534  0  0.901459  0  0  0.140388  0  0.950726  0  0  0.142639  0  0.950064  0  0  0.118535  0.13874  0  0.951365  0
C  C24  1  0.10883313  0.99999929  0.00000385  1  0  0.60703  0  3.824053  0  0  0.569673  0  4.110136  0  0  0.60049  0  4.100282  0  0  0.240851  0.548519  0  4.116612  0
C  C25  1  0.89116306  0.50000055  0.49999917  1  0  0.607047  0  3.824206  0  0  0.569717  0  4.110176  0  0  0.60054  0  4.100298  0  0  0.240867  0.54856  0  4.116658  0
C  C26  1  0.89116648  0.99999785  0.00000375  1  0  0.607121  0  3.823971  0  0  0.569807  0  4.109994  0  0  0.600638  0  4.100118  0  0  0.240881  0.548639  0  4.116485  0
C  C27  1  0.10883661  0.49999975  0.49999928  1  0  0.606926  0  3.824363  0  0  0.569724  0  4.110157  0  0  0.600564  0  4.100257  0  0  0.240866  0.548564  0  4.11664  0
C  C28  1  0.39340686  0.77568118  0.27150837  1  0  0.588573  0  3.912814  0  0  0.545894  0  4.217086  0  0  0.576251  0  4.206902  0  0  0.2241  0.525218  0  4.223269  0
C  C29  1  0.39340090  0.22432256  0.72849210  1  0  0.588859  0  3.912595  0  0  0.546162  0  4.216874  0  0  0.576522  0  4.20668  0  0  0.224249  0.525479  0  4.223056  0
C  C30  1  0.60659368  0.72430465  0.77150013  1  0  0.588727  0  3.912701  0  0  0.54602  0  4.216991  0  0  0.576378  0  4.206801  0  0  0.224118  0.525339  0  4.22317  0
C  C31  1  0.60659513  0.27568996  0.22849507  1  0  0.588659  0  3.912809  0  0  0.546004  0  4.217048  0  0  0.576363  0  4.206864  0  0  0.224144  0.525327  0  4.223232  0
C  C32  1  0.60659557  0.22432023  0.72849068  1  0  0.588769  0  3.91263  0  0  0.546105  0  4.21687  0  0  0.576463  0  4.206677  0  0  0.224154  0.525425  0  4.223051  0
C  C33  1  0.60659738  0.77568110  0.27150635  1  0  0.588823  0  3.912634  0  0  0.546127  0  4.216923  0  0  0.576486  0  4.206736  0  0  0.224216  0.525449  0  4.223109  0
C  C34  1  0.39340599  0.27569005  0.22849526  1  0  0.588725  0  3.912665  0  0  0.545993  0  4.217002  0  0  0.576352  0  4.206817  0  0  0.224133  0.525315  0  4.223185  0
C  C35  1  0.39340316  0.72430585  0.77150338  1  0  0.588697  0  3.912611  0  0  0.546032  0  4.216852  0  0  0.576389  0  4.206664  0  0  0.224195  0.52535  0  4.22303  0
C  C36  1  0.49999781  0.71270364  0.02267669  1  0  0.752898  0  3.7924  0  0  0.711362  0  4.09059  0  0  0.745859  0  4.081192  0  0  0.226334  0.687833  0  4.096075  0
C  C37  1  0.50000462  0.28729554  0.97732847  1  0  0.752821  0  3.792673  0  0  0.711322  0  4.090744  0  0  0.745825  0  4.081326  0  0  0.226284  0.687774  0  4.096252  0
C  C38  1  0.49999541  0.78729606  0.52267402  1  0  0.752818  0  3.792588  0  0  0.711375  0  4.090698  0  0  0.745875  0  4.081293  0  0  0.226329  0.687835  0  4.096194  0
C  C39  1  0.50000012  0.21270424  0.47732199  1  0  0.752937  0  3.79254  0  0  0.711274  0  4.090862  0  0  0.745768  0  4.08146  0  0  0.226282  0.687748  0  4.096351  0
C  C40  1  0.50000032  0.57018386  0.97368760  1  0  -0.232531  0  3.662316  0  0  -0.273776  0  3.914187  0  0  -0.278513  0  3.920795  0  0  -0.150393  -0.27053  0  3.909645  0
C  C41  1  0.50000211  0.42980636  0.02631390  1  0  -0.232508  0  3.662531  0  0  -0.273551  0  3.914197  0  0  -0.278265  0  3.92082  0  0  -0.150254  -0.270297  0  3.909666  0
C  C42  1  0.49999831  0.92981751  0.47368560  1  0  -0.232278  0  3.662205  0  0  -0.273686  0  3.914218  0  0  -0.27843  0  3.920841  0  0  -0.150362  -0.270433  0  3.909685  0
C  C43  1  0.49999997  0.07019510  0.52630858  1  0  -0.232832  0  3.662729  0  0  -0.273748  0  3.914414  0  0  -0.278466  0  3.921025  0  0  -0.150347  -0.270501  0  3.909867  0
O  O44  1  0.18693678  0.96445102  0.06647690  1  0  -0.689375  0  2.111239  0  0  -0.648961  0  2.354676  0  0  -0.673869  0  2.345821  0  0  -0.381023  -0.631178  0  2.36046  0
O  O45  1  0.18694156  0.03554841  0.93352029  1  0  -0.689452  0  2.110996  0  0  -0.649031  0  2.354433  0  0  -0.673921  0  2.345562  0  0  -0.381081  -0.631241  0  2.360219  0
O  O46  1  0.81306154  0.53554616  0.56647839  1  0  -0.689426  0  2.111139  0  0  -0.649022  0  2.354549  0  0  -0.67393  0  2.345711  0  0  -0.381043  -0.631233  0  2.36035  0
O  O47  1  0.81305807  0.46445388  0.43352192  1  0  -0.689368  0  2.111163  0  0  -0.64899  0  2.354606  0  0  -0.673897  0  2.345742  0  0  -0.381051  -0.631202  0  2.360398  0
O  O48  1  0.81305874  0.03554591  0.93351972  1  0  -0.689494  0  2.110962  0  0  -0.649069  0  2.354353  0  0  -0.673971  0  2.345488  0  0  -0.381081  -0.63128  0  2.360152  0
O  O49  1  0.81306225  0.96445077  0.06647693  1  0  -0.689415  0  2.111223  0  0  -0.649006  0  2.35463  0  0  -0.673913  0  2.345758  0  0  -0.381032  -0.63122  0  2.360422  0
O  O50  1  0.18694227  0.46445413  0.43352127  1  0  -0.689345  0  2.111267  0  0  -0.648974  0  2.354607  0  0  -0.673878  0  2.345719  0  0  -0.381029  -0.631186  0  2.360401  0
O  O51  1  0.18693884  0.53554418  0.56647836  1  0  -0.689393  0  2.111192  0  0  -0.64903  0  2.354563  0  0  -0.673947  0  2.345723  0  0  -0.381058  -0.631241  0  2.360367  0
O  O52  1  0.31447589  0.87134460  0.22650606  1  0  -0.702649  0  2.106716  0  0  -0.662912  0  2.352677  0  0  -0.687626  0  2.34283  0  0  -0.43017  -0.645335  0  2.359117  0
O  O53  1  0.31446963  0.12865248  0.77349883  1  0  -0.702796  0  2.106469  0  0  -0.663058  0  2.352447  0  0  -0.687767  0  2.342601  0  0  -0.430223  -0.645483  0  2.358884  0
O  O54  1  0.68552369  0.62865718  0.72650334  1  0  -0.702609  0  2.107178  0  0  -0.662866  0  2.353164  0  0  -0.687566  0  2.343319  0  0  -0.430091  -0.6453  0  2.359603  0
O  O55  1  0.68552460  0.37133960  0.27349720  1  0  -0.702652  0  2.106871  0  0  -0.662926  0  2.352834  0  0  -0.687636  0  2.342986  0  0  -0.43015  -0.645357  0  2.359277  0
O  O56  1  0.68552515  0.12865009  0.77349788  1  0  -0.702789  0  2.106475  0  0  -0.66306  0  2.352443  0  0  -0.687768  0  2.342597  0  0  -0.430226  -0.645486  0  2.35888  0
O  O57  1  0.68552727  0.87134557  0.22650450  1  0  -0.702763  0  2.106669  0  0  -0.663025  0  2.352646  0  0  -0.687739  0  2.342795  0  0  -0.430219  -0.645447  0  2.359088  0
O  O58  1  0.31447598  0.37133975  0.27349754  1  0  -0.702672  0  2.106803  0  0  -0.662927  0  2.352805  0  0  -0.687637  0  2.342957  0  0  -0.430171  -0.645358  0  2.359248  0
O  O59  1  0.31447645  0.62865733  0.72650429  1  0  -0.702592  0  2.10708  0  0  -0.662857  0  2.353043  0  0  -0.687557  0  2.343199  0  0  -0.430105  -0.645291  0  2.359481  0
O  O60  1  0.31462611  0.67999879  0.31653463  1  0  -0.682442  0  2.077683  0  0  -0.644619  0  2.320558  0  0  -0.668833  0  2.311103  0  0  -0.42218  -0.627422  0  2.326755  0
O  O61  1  0.31462322  0.31999606  0.68346599  1  0  -0.682509  0  2.077878  0  0  -0.644677  0  2.320775  0  0  -0.668877  0  2.311319  0  0  -0.422218  -0.627484  0  2.326971  0
O  O62  1  0.68537677  0.81999348  0.81653644  1  0  -0.682546  0  2.077107  0  0  -0.644709  0  2.319988  0  0  -0.668921  0  2.310538  0  0  -0.422232  -0.627511  0  2.326178  0
O  O63  1  0.68537600  0.18000219  0.18346410  1  0  -0.682464  0  2.077489  0  0  -0.644641  0  2.320345  0  0  -0.668859  0  2.310888  0  0  -0.422184  -0.627438  0  2.326536  0
O  O64  1  0.68537356  0.31999814  0.68346809  1  0  -0.682477  0  2.077879  0  0  -0.644661  0  2.320766  0  0  -0.668861  0  2.311311  0  0  -0.422184  -0.627469  0  2.326963  0
O  O65  1  0.68537783  0.68000200  0.31653490  1  0  -0.682474  0  2.07762  0  0  -0.644649  0  2.320513  0  0  -0.668862  0  2.311057  0  0  -0.422175  -0.627451  0  2.32671  0
O  O66  1  0.31462428  0.18000234  0.18346383  1  0  -0.682502  0  2.077455  0  0  -0.64466  0  2.320352  0  0  -0.668877  0  2.310895  0  0  -0.422187  -0.627456  0  2.326544  0
O  O67  1  0.31462367  0.82000035  0.81653739  1  0  -0.682573  0  2.077131  0  0  -0.644743  0  2.319987  0  0  -0.668955  0  2.310538  0  0  -0.422285  -0.627547  0  2.326176  0
O  O68  1  0.49999606  0.71085030  0.09983177  1  0  -0.66666  0  1.936562  0  0  -0.621856  0  2.158993  0  0  -0.64741  0  2.151101  0  0  -0.351256  -0.603939  0  2.164006  0
O  O69  1  0.50001465  0.28914887  0.90016912  1  0  -0.666664  0  1.936517  0  0  -0.621879  0  2.1589  0  0  -0.647425  0  2.151009  0  0  -0.351247  -0.60395  0  2.163909  0
O  O70  1  0.49998538  0.78915339  0.59983093  1  0  -0.666636  0  1.936659  0  0  -0.621854  0  2.159049  0  0  -0.647398  0  2.151158  0  0  -0.351203  -0.603925  0  2.164054  0
O  O71  1  0.50000048  0.21085474  0.40016386  1  0  -0.666665  0  1.936352  0  0  -0.621843  0  2.15884  0  0  -0.647397  0  2.15096  0  0  -0.351259  -0.603922  0  2.16385  0
O  O72  1  0.49999872  0.83928871  0.98496005  1  0  -0.828887  0  2.191931  0  0  -0.785545  0  2.451718  0  0  -0.815333  0  2.44298  0  0  -0.451431  -0.763952  0  2.45707  0
O  O73  1  0.50000094  0.16071943  0.01504450  1  0  -0.828786  0  2.19207  0  0  -0.785479  0  2.451837  0  0  -0.815266  0  2.443076  0  0  -0.451368  -0.763891  0  2.457203  0
O  O74  1  0.49999981  0.66071147  0.48496037  1  0  -0.828854  0  2.192007  0  0  -0.785522  0  2.451733  0  0  -0.815308  0  2.442981  0  0  -0.451419  -0.763935  0  2.457098  0
O  O75  1  0.49999986  0.33927986  0.51503563  1  0  -0.828875  0  2.192006  0  0  -0.78554  0  2.451904  0  0  -0.815324  0  2.443164  0  0  -0.451417  -0.763952  0  2.457263  0
O  O76  1  0.00000089  0.17467885  0.37471429  1  0  -0.853183  0  1.701961  0  0  -0.813146  0  1.834811  0  0  -0.828444  0  1.807767  0  0  -0.656087  -0.80229  0  1.853985  0
O  O77  1  0.00000069  0.82531849  0.62528569  1  0  -0.853174  0  1.701849  0  0  -0.81314  0  1.834748  0  0  -0.828439  0  1.807702  0  0  -0.656044  -0.802286  0  1.853923  0
O  O78  1  0.99999791  0.32532492  0.87471307  1  0  -0.853294  0  1.701946  0  0  -0.813255  0  1.834746  0  0  -0.828554  0  1.807702  0  0  -0.65612  -0.802403  0  1.853923  0
O  O79  1  0.00000038  0.67468545  0.12529087  1  0  -0.853199  0  1.701825  0  0  -0.813161  0  1.834749  0  0  -0.828458  0  1.807705  0  0  -0.656029  -0.802305  0  1.853922  0
