# generated using pymatgen
data_ZnH17C21(NO2)3
_symmetry_space_group_name_H-M   'P 1'
_cell_length_a   8.58553167
_cell_length_b   10.44292419
_cell_length_c   11.00428902
_cell_angle_alpha   89.99997661
_cell_angle_beta   89.99988825
_cell_angle_gamma   102.91620767
_symmetry_Int_Tables_number   1
_chemical_formula_structural   ZnH17C21(NO2)3
_chemical_formula_sum   'Zn2 H34 C42 N6 O12'
_cell_volume   961.65962799
_cell_formula_units_Z   2
loop_
 _symmetry_equiv_pos_site_id
 _symmetry_equiv_pos_as_xyz
  1  'x, y, z'
loop_
 _atom_site_type_symbol
 _atom_site_label
 _atom_site_symmetry_multiplicity
 _atom_site_fract_x
 _atom_site_fract_y
 _atom_site_fract_z
 _atom_site_occupancy
 _atom_site_hle17_bader_spin_density
 _atom_site_hle17_ddec_charge
 _atom_site_hle17_ddec_spin_density
 _atom_site_hle17_ddec_sum_bond_order
 _atom_site_hle17_magmom
 _atom_site_hse06_10hf_bader_spin_density
 _atom_site_hse06_10hf_ddec_charge
 _atom_site_hse06_10hf_ddec_spin_density
 _atom_site_hse06_10hf_ddec_sum_bond_order
 _atom_site_hse06_10hf_magmom
 _atom_site_hse06_bader_spin_density
 _atom_site_hse06_ddec_charge
 _atom_site_hse06_ddec_spin_density
 _atom_site_hse06_ddec_sum_bond_order
 _atom_site_hse06_magmom
 _atom_site_pbe_bader_spin_density
 _atom_site_pbe_cm5_charge
 _atom_site_pbe_ddec_charge
 _atom_site_pbe_ddec_spin_density
 _atom_site_pbe_ddec_sum_bond_order
 _atom_site_pbe_magmom
Zn  Zn0  1  0.74999981  0.24999997  0.08373127  1  0  0.957014  0  1.864955  0  0  0.761257  0  2.329471  0  0  0.812823  0  2.276582  0  0  0.671535  0.725353  0  2.365426  0
Zn  Zn1  1  0.25000069  0.74999971  0.91626786  1  0  0.957012  0  1.864954  0  0  0.76128  0  2.329468  0  0  0.812838  0  2.276579  0  0  0.671531  0.72537  0  2.365421  0
H  H2  1  0.02401235  0.47755763  0.10140853  1  0  0.10299  0  0.938422  0  0  0.110325  0  1.002529  0  0  0.113376  0  0.999016  0  0  0.12722  0.108013  0  1.005146  0
H  H3  1  0.47598745  0.02244137  0.10140827  1  0  0.103007  0  0.938441  0  0  0.110347  0  1.002535  0  0  0.113396  0  0.999023  0  0  0.127237  0.108035  0  1.005161  0
H  H4  1  0.97598582  0.52244206  0.89859151  1  0  0.10301  0  0.938435  0  0  0.110352  0  1.002532  0  0  0.113402  0  0.999019  0  0  0.127251  0.108045  0  1.005151  0
H  H5  1  0.52401305  0.97755831  0.89859177  1  0  0.103005  0  0.938435  0  0  0.110346  0  1.00253  0  0  0.113395  0  0.999019  0  0  0.127248  0.108033  0  1.005155  0
H  H6  1  0.13298758  0.66391044  0.23832139  1  0  0.12402  0  0.945429  0  0  0.133346  0  1.002275  0  0  0.136659  0  1.001742  0  0  0.116162  0.13093  0  1.002856  0
H  H7  1  0.36701305  0.83608864  0.23832118  1  0  0.124072  0  0.945355  0  0  0.133348  0  1.002265  0  0  0.136693  0  1.001685  0  0  0.116161  0.130932  0  1.00285  0
H  H8  1  0.86701408  0.33608924  0.76167956  1  0  0.124089  0  0.94535  0  0  0.133362  0  1.002257  0  0  0.136707  0  1.001675  0  0  0.11616  0.130943  0  1.002841  0
H  H9  1  0.63298690  0.16390908  0.76167795  1  0  0.124065  0  0.945468  0  0  0.13334  0  1.002361  0  0  0.136684  0  1.001787  0  0  0.116155  0.130921  0  1.002947  0
H  H10  1  0.98766702  0.68901170  0.43181619  1  0  0.115153  0  0.960489  0  0  0.119821  0  1.02878  0  0  0.123709  0  1.024783  0  0  0.111336  0.117128  0  1.031307  0
H  H11  1  0.51233285  0.81098813  0.43181563  1  0  0.115197  0  0.960578  0  0  0.119871  0  1.028855  0  0  0.12376  0  1.024858  0  0  0.111361  0.117174  0  1.031377  0
H  H12  1  0.01233375  0.31098897  0.56818384  1  0  0.115162  0  0.960533  0  0  0.119839  0  1.028815  0  0  0.123727  0  1.024818  0  0  0.111354  0.117142  0  1.031341  0
H  H13  1  0.48766881  0.18901155  0.56818350  1  0  0.115172  0  0.960585  0  0  0.119842  0  1.028872  0  0  0.123731  0  1.024875  0  0  0.111348  0.117141  0  1.031399  0
H  H14  1  0.63674538  0.34037580  0.32940010  1  0  0.087127  0  0.931842  0  0  0.092529  0  1.000014  0  0  0.095478  0  0.99772  0  0  0.120259  0.090324  0  1.001748  0
H  H15  1  0.86325357  0.15962391  0.32939996  1  0  0.087137  0  0.931835  0  0  0.092523  0  1.000009  0  0  0.09548  0  0.997703  0  0  0.120255  0.090317  0  1.001745  0
H  H16  1  0.36325396  0.65962389  0.67059994  1  0  0.087118  0  0.93183  0  0  0.09251  0  1.000008  0  0  0.095469  0  0.9977  0  0  0.120252  0.090306  0  1.001745  0
H  H17  1  0.13674693  0.84037577  0.67059917  1  0  0.087126  0  0.931836  0  0  0.092522  0  1.000016  0  0  0.09548  0  0.997706  0  0  0.120266  0.090315  0  1.001761  0
H  H18  1  0.71100940  0.53848261  0.75898523  1  0  0.122844  0  0.981136  0  0  0.126578  0  1.049742  0  0  0.131126  0  1.046849  0  0  0.109532  0.123247  0  1.052007  0
H  H19  1  0.78898958  0.96151691  0.75898509  1  0  0.122872  0  0.981158  0  0  0.126604  0  1.049756  0  0  0.131152  0  1.046862  0  0  0.109546  0.123272  0  1.052017  0
H  H20  1  0.28898904  0.46151806  0.24101481  1  0  0.122895  0  0.98115  0  0  0.126597  0  1.049766  0  0  0.13114  0  1.046879  0  0  0.109557  0.123268  0  1.052025  0
H  H21  1  0.21100886  0.03848376  0.24101495  1  0  0.122861  0  0.981124  0  0  0.126591  0  1.049728  0  0  0.13114  0  1.046834  0  0  0.109544  0.123261  0  1.051994  0
H  H22  1  0.74999991  0.74999970  0.87441924  1  0  0.115554  0  0.942456  0  0  0.123706  0  1.002346  0  0  0.127453  0  0.999117  0  0  0.113042  0.120862  0  1.004813  0
H  H23  1  0.24999826  0.24999998  0.12558079  1  0  0.115565  0  0.94247  0  0  0.123718  0  1.002362  0  0  0.127463  0  0.999137  0  0  0.113048  0.120872  0  1.004826  0
H  H24  1  0.04022582  0.00991724  0.84958870  1  0  0.127907  0  0.964761  0  0  0.146942  0  1.026522  0  0  0.148482  0  1.027308  0  0  0.092734  0.145828  0  1.026053  0
H  H25  1  0.45977365  0.49008302  0.84959011  1  0  0.127906  0  0.964754  0  0  0.14694  0  1.026519  0  0  0.14848  0  1.027305  0  0  0.092742  0.145826  0  1.026045  0
H  H26  1  0.95977379  0.99008343  0.15041043  1  0  0.127916  0  0.964758  0  0  0.146951  0  1.026514  0  0  0.148491  0  1.0273  0  0  0.092748  0.145839  0  1.026043  0
H  H27  1  0.54022712  0.50991765  0.15041084  1  0  0.127898  0  0.964794  0  0  0.146937  0  1.026555  0  0  0.148484  0  1.027333  0  0  0.09273  0.145824  0  1.026082  0
H  H28  1  0.18237836  0.12982518  0.93284156  1  0  0.140961  0  0.943453  0  0  0.159788  0  1.002677  0  0  0.162394  0  1.001853  0  0  0.096839  0.1579  0  1.003347  0
H  H29  1  0.31762320  0.37017500  0.93284323  1  0  0.140965  0  0.943483  0  0  0.159796  0  1.002698  0  0  0.162402  0  1.001874  0  0  0.09685  0.157909  0  1.003359  0
H  H30  1  0.81762357  0.87017548  0.06715757  1  0  0.140991  0  0.943511  0  0  0.15977  0  1.002777  0  0  0.162376  0  1.001953  0  0  0.096829  0.157882  0  1.003443  0
H  H31  1  0.68237729  0.62982469  0.06715681  1  0  0.140964  0  0.943486  0  0  0.159796  0  1.002703  0  0  0.162402  0  1.001879  0  0  0.09684  0.157908  0  1.003366  0
H  H32  1  0.09974607  0.17258144  0.79386490  1  0  0.135574  0  0.944097  0  0  0.154684  0  1.00666  0  0  0.156786  0  1.006724  0  0  0.096724  0.153183  0  1.006695  0
H  H33  1  0.40025588  0.32741887  0.79386737  1  0  0.135585  0  0.944124  0  0  0.154692  0  1.006682  0  0  0.156795  0  1.006744  0  0  0.096724  0.153186  0  1.006722  0
H  H34  1  0.90025470  0.82741923  0.20613423  1  0  0.13559  0  0.944129  0  0  0.154697  0  1.006677  0  0  0.156801  0  1.006738  0  0  0.096731  0.153195  0  1.006711  0
H  H35  1  0.59974606  0.67258179  0.20613449  1  0  0.135562  0  0.944122  0  0  0.154672  0  1.006686  0  0  0.156773  0  1.00675  0  0  0.096703  0.153168  0  1.006724  0
C  C36  1  0.96115663  0.49204707  0.18434456  1  0  0.161997  0  3.622811  0  0  0.125893  0  3.873783  0  0  0.135067  0  3.890121  0  0  0.066628  0.12004  0  3.862703  0
C  C37  1  0.53884244  0.00795180  0.18434407  1  0  0.161963  0  3.622824  0  0  0.125872  0  3.873784  0  0  0.135047  0  3.890129  0  0  0.06663  0.120014  0  3.862717  0
C  C38  1  0.03884181  0.50795360  0.81565548  1  0  0.161954  0  3.622917  0  0  0.125845  0  3.873886  0  0  0.135019  0  3.890231  0  0  0.066576  0.119984  0  3.862814  0
C  C39  1  0.46115779  0.99204690  0.81565506  1  0  0.161994  0  3.622909  0  0  0.125897  0  3.873861  0  0  0.135073  0  3.890205  0  0  0.066599  0.120041  0  3.862788  0
C  C40  1  0.02187031  0.59592198  0.26251024  1  0  -0.10223  0  3.688301  0  0  -0.113075  0  3.939431  0  0  -0.121997  0  3.961346  0  0  -0.072938  -0.107421  0  3.924775  0
C  C41  1  0.47812910  0.90407708  0.26250983  1  0  -0.102273  0  3.688306  0  0  -0.113082  0  3.939437  0  0  -0.122025  0  3.961342  0  0  -0.072962  -0.10743  0  3.924786  0
C  C42  1  0.97812903  0.40407770  0.73748980  1  0  -0.102288  0  3.688322  0  0  -0.113087  0  3.939447  0  0  -0.122029  0  3.961354  0  0  -0.072927  -0.107429  0  3.92479  0
C  C43  1  0.52187256  0.09592260  0.73748930  1  0  -0.10229  0  3.68843  0  0  -0.113084  0  3.939538  0  0  -0.122027  0  3.961439  0  0  -0.07295  -0.107432  0  3.924881  0
C  C44  1  0.94089071  0.60829571  0.36979043  1  0  -0.012441  0  3.662957  0  0  -0.043326  0  3.91472  0  0  -0.037788  0  3.93152  0  0  -0.052807  -0.046546  0  3.903161  0
C  C45  1  0.55910790  0.89170319  0.36978976  1  0  -0.012516  0  3.663129  0  0  -0.043399  0  3.914882  0  0  -0.037863  0  3.931691  0  0  -0.052834  -0.046605  0  3.903311  0
C  C46  1  0.05910746  0.39170397  0.63020961  1  0  -0.012469  0  3.663047  0  0  -0.043362  0  3.914791  0  0  -0.037826  0  3.9316  0  0  -0.052837  -0.046569  0  3.903215  0
C  C47  1  0.44089376  0.10829649  0.63021028  1  0  -0.01245  0  3.663053  0  0  -0.043332  0  3.914792  0  0  -0.037797  0  3.931602  0  0  -0.052803  -0.04654  0  3.903208  0
C  C48  1  0.80025403  0.51460065  0.39628114  1  0  -0.078677  0  3.752372  0  0  -0.059098  0  3.989115  0  0  -0.0706  0  4.014  0  0  -0.010459  -0.052005  0  3.972687  0
C  C49  1  0.69974451  0.98539823  0.39628112  1  0  -0.078568  0  3.752327  0  0  -0.059015  0  3.989073  0  0  -0.070518  0  4.013958  0  0  -0.010446  -0.051935  0  3.972654  0
C  C50  1  0.19974558  0.48540002  0.60371890  1  0  -0.078676  0  3.752366  0  0  -0.059099  0  3.989107  0  0  -0.070603  0  4.013993  0  0  -0.010465  -0.052007  0  3.972679  0
C  C51  1  0.30025483  0.01460145  0.60371801  1  0  -0.078694  0  3.752286  0  0  -0.059137  0  3.98907  0  0  -0.070642  0  4.013955  0  0  -0.010499  -0.052036  0  3.972624  0
C  C52  1  0.74660523  0.41389839  0.31231121  1  0  0.124088  0  3.665144  0  0  0.083568  0  3.914715  0  0  0.092374  0  3.931691  0  0  0.062445  0.078049  0  3.90305  0
C  C53  1  0.75339376  0.08610134  0.31231127  1  0  0.124013  0  3.665124  0  0  0.083552  0  3.914661  0  0  0.092356  0  3.931643  0  0  0.062467  0.07804  0  3.902994  0
C  C54  1  0.25339321  0.58610228  0.68768883  1  0  0.124084  0  3.665147  0  0  0.08359  0  3.914698  0  0  0.092393  0  3.931681  0  0  0.06246  0.078073  0  3.903034  0
C  C55  1  0.24660673  0.91389834  0.68768786  1  0  0.124101  0  3.665061  0  0  0.083604  0  3.914639  0  0  0.092408  0  3.931622  0  0  0.062465  0.078084  0  3.902976  0
C  C56  1  0.71188955  0.51260792  0.51300115  1  0  0.375596  0  3.716533  0  0  0.354096  0  3.978557  0  0  0.375338  0  3.982559  0  0  0.170848  0.33998  0  3.975426  0
C  C57  1  0.78811010  0.98739183  0.51300100  1  0  0.375549  0  3.716571  0  0  0.354045  0  3.978614  0  0  0.375291  0  3.98261  0  0  0.170821  0.33993  0  3.975482  0
C  C58  1  0.28811005  0.48739275  0.48699889  1  0  0.37559  0  3.716582  0  0  0.354077  0  3.978618  0  0  0.375321  0  3.982613  0  0  0.170835  0.339956  0  3.975491  0
C  C59  1  0.21188924  0.01260785  0.48699904  1  0  0.37561  0  3.716511  0  0  0.3541  0  3.978561  0  0  0.375348  0  3.982549  0  0  0.170831  0.339976  0  3.975435  0
C  C60  1  0.73179299  0.63767626  0.58397616  1  0  0.114674  0  3.769585  0  0  0.116528  0  4.020127  0  0  0.11687  0  4.040506  0  0  0.107539  0.11615  0  4.006535  0
C  C61  1  0.76820503  0.86232244  0.58397609  1  0  0.114727  0  3.769474  0  0  0.11657  0  4.020024  0  0  0.116912  0  4.040402  0  0  0.107554  0.116196  0  4.006419  0
C  C62  1  0.26820518  0.36232343  0.41602388  1  0  0.114745  0  3.769531  0  0  0.11661  0  4.020037  0  0  0.116953  0  4.040412  0  0  0.107547  0.116232  0  4.006438  0
C  C63  1  0.23179341  0.13767823  0.41602395  1  0  0.114729  0  3.769482  0  0  0.116576  0  4.020029  0  0  0.116917  0  4.040408  0  0  0.10758  0.116207  0  4.006422  0
C  C64  1  0.72810363  0.63235397  0.71135650  1  0  -0.111275  0  3.659547  0  0  -0.13328  0  3.906497  0  0  -0.137627  0  3.926867  0  0  -0.070259  -0.131183  0  3.893709  0
C  C65  1  0.77189548  0.86764559  0.71135642  1  0  -0.111346  0  3.659563  0  0  -0.13333  0  3.906497  0  0  -0.137676  0  3.926865  0  0  -0.070267  -0.131226  0  3.893694  0
C  C66  1  0.27189392  0.36764769  0.28864354  1  0  -0.111436  0  3.659614  0  0  -0.133395  0  3.906558  0  0  -0.137739  0  3.926927  0  0  -0.070307  -0.131296  0  3.893758  0
C  C67  1  0.22810386  0.13235409  0.28864362  1  0  -0.111341  0  3.659525  0  0  -0.133324  0  3.906467  0  0  -0.137668  0  3.926834  0  0  -0.070278  -0.13123  0  3.893674  0
C  C68  1  0.74999888  0.74999975  0.77567593  1  0  0.013835  0  3.671432  0  0  -0.002814  0  3.922835  0  0  -0.001363  0  3.94028  0  0  -0.060211  -0.003511  0  3.911554  0
C  C69  1  0.24999812  0.24999994  0.22432502  1  0  0.013896  0  3.671411  0  0  -0.00277  0  3.922817  0  0  -0.001321  0  3.940258  0  0  -0.060195  -0.003464  0  3.91153  0
C  C70  1  0.93725171  0.15103252  0.94317241  1  0  0.726213  0  3.861637  0  0  0.688249  0  4.15128  0  0  0.721436  0  4.145381  0  0  0.196785  0.665643  0  4.154469  0
C  C71  1  0.56274959  0.34896857  0.94317266  1  0  0.726143  0  3.861643  0  0  0.688169  0  4.151296  0  0  0.721359  0  4.145391  0  0  0.196768  0.665574  0  4.154472  0
C  C72  1  0.06274905  0.84896815  0.05682763  1  0  0.726162  0  3.861566  0  0  0.688196  0  4.151213  0  0  0.721382  0  4.145313  0  0  0.196801  0.665591  0  4.154399  0
C  C73  1  0.43725118  0.65103209  0.05682829  1  0  0.726241  0  3.861554  0  0  0.688281  0  4.151188  0  0  0.721454  0  4.145306  0  0  0.196821  0.665676  0  4.154375  0
C  C74  1  0.07415942  0.11315498  0.87705431  1  0  -0.452363  0  3.651455  0  0  -0.52857  0  3.880275  0  0  -0.536123  0  3.88442  0  0  -0.250497  -0.523192  0  3.87735  0
C  C75  1  0.42584113  0.38684525  0.87705581  1  0  -0.452388  0  3.651482  0  0  -0.528605  0  3.880317  0  0  -0.53616  0  3.884458  0  0  -0.250557  -0.523229  0  3.877386  0
C  C76  1  0.92583992  0.88684471  0.12294391  1  0  -0.452428  0  3.651553  0  0  -0.528593  0  3.880382  0  0  -0.536147  0  3.884525  0  0  -0.250531  -0.523216  0  3.877453  0
C  C77  1  0.57415963  0.61315541  0.12294514  1  0  -0.452357  0  3.651524  0  0  -0.528582  0  3.880346  0  0  -0.536135  0  3.884488  0  0  -0.250487  -0.523205  0  3.877417  0
N  N78  1  0.82491545  0.40284273  0.20866429  1  0  -0.329622  0  3.298053  0  0  -0.243892  0  3.569275  0  0  -0.264724  0  3.585299  0  0  -0.322875  -0.229934  0  3.558116  0
N  N79  1  0.67508266  0.09715710  0.20866356  1  0  -0.329617  0  3.298029  0  0  -0.243936  0  3.569286  0  0  -0.264769  0  3.585309  0  0  -0.322911  -0.229972  0  3.558122  0
N  N80  1  0.17508155  0.59715696  0.79133575  1  0  -0.329602  0  3.298151  0  0  -0.243905  0  3.569414  0  0  -0.264736  0  3.585435  0  0  -0.322874  -0.229939  0  3.55825  0
N  N81  1  0.32491757  0.90284160  0.79133557  1  0  -0.329649  0  3.298096  0  0  -0.243955  0  3.56937  0  0  -0.264787  0  3.585392  0  0  -0.322888  -0.229994  0  3.55821  0
N  N82  1  0.74999923  0.74999987  0.52047543  1  0  -0.328597  0  3.084864  0  0  -0.303454  0  3.348205  0  0  -0.312519  0  3.364928  0  0  -0.298315  -0.296682  0  3.336614  0
N  N83  1  0.24999921  0.25000080  0.47952461  1  0  -0.328623  0  3.08488  0  0  -0.303485  0  3.348215  0  0  -0.31255  0  3.364939  0  0  -0.298333  -0.296716  0  3.336622  0
O  O84  1  0.62740882  0.40944997  0.55266849  1  0  -0.441408  0  1.917785  0  0  -0.399755  0  2.122642  0  0  -0.417499  0  2.120428  0  0  -0.24849  -0.387352  0  2.123096  0
O  O85  1  0.87259040  0.09054855  0.55266655  1  0  -0.441372  0  1.917862  0  0  -0.399715  0  2.122722  0  0  -0.417461  0  2.120507  0  0  -0.248454  -0.387315  0  2.123177  0
O  O86  1  0.37259141  0.59054874  0.44733336  1  0  -0.441396  0  1.917856  0  0  -0.399738  0  2.122716  0  0  -0.417487  0  2.120505  0  0  -0.248463  -0.387338  0  2.123174  0
O  O87  1  0.12740893  0.90945113  0.44733349  1  0  -0.441398  0  1.917824  0  0  -0.399733  0  2.122678  0  0  -0.417482  0  2.120462  0  0  -0.248455  -0.387331  0  2.123136  0
O  O88  1  0.97100462  0.24043481  0.02661519  1  0  -0.661793  0  1.982154  0  0  -0.59016  0  2.241968  0  0  -0.62031  0  2.230678  0  0  -0.337198  -0.568933  0  2.248912  0
O  O89  1  0.52899775  0.25956617  0.02661644  1  0  -0.661774  0  1.982121  0  0  -0.590146  0  2.24195  0  0  -0.620296  0  2.230654  0  0  -0.337192  -0.568924  0  2.248893  0
O  O90  1  0.02899705  0.75956487  0.97338394  1  0  -0.661764  0  1.982072  0  0  -0.590156  0  2.24192  0  0  -0.620305  0  2.230625  0  0  -0.337202  -0.568928  0  2.248864  0
O  O91  1  0.47100445  0.74043548  0.97338451  1  0  -0.661803  0  1.982126  0  0  -0.59017  0  2.24194  0  0  -0.620315  0  2.230654  0  0  -0.337193  -0.568941  0  2.248881  0
O  O92  1  0.79472061  0.09757517  0.91651928  1  0  -0.648235  0  1.922135  0  0  -0.590525  0  2.150632  0  0  -0.615621  0  2.141462  0  0  -0.322558  -0.572851  0  2.156371  0
O  O93  1  0.70528131  0.40242791  0.91651929  1  0  -0.648203  0  1.922238  0  0  -0.590454  0  2.150693  0  0  -0.615553  0  2.141523  0  0  -0.322516  -0.572783  0  2.156428  0
O  O94  1  0.20528043  0.90242648  0.08348076  1  0  -0.64819  0  1.922126  0  0  -0.59047  0  2.150621  0  0  -0.615565  0  2.141451  0  0  -0.322541  -0.572793  0  2.156356  0
O  O95  1  0.29472090  0.59757373  0.08348075  1  0  -0.648236  0  1.922113  0  0  -0.590525  0  2.150604  0  0  -0.615611  0  2.141435  0  0  -0.322578  -0.572852  0  2.156341  0
