# generated using pymatgen
data_Zn3H32(C9O4)4
_symmetry_space_group_name_H-M   'P 1'
_cell_length_a   21.12662548
_cell_length_b   21.12679424
_cell_length_c   21.12676812
_cell_angle_alpha   62.18444971
_cell_angle_beta   86.17292302
_cell_angle_gamma   117.81519880
_symmetry_Int_Tables_number   1
_chemical_formula_structural   Zn3H32(C9O4)4
_chemical_formula_sum   'Zn6 H64 C72 O32'
_cell_volume   6871.40173025
_cell_formula_units_Z   2
loop_
 _symmetry_equiv_pos_site_id
 _symmetry_equiv_pos_as_xyz
  1  'x, y, z'
loop_
 _atom_site_type_symbol
 _atom_site_label
 _atom_site_symmetry_multiplicity
 _atom_site_fract_x
 _atom_site_fract_y
 _atom_site_fract_z
 _atom_site_occupancy
 _atom_site_pbe_bader_charge
 _atom_site_pbe_bader_spin_density
 _atom_site_pbe_cm5_charge
 _atom_site_pbe_ddec_charge
 _atom_site_pbe_ddec_spin_density
 _atom_site_pbe_ddec_sum_bond_order
 _atom_site_pbe_magmom
Zn  Zn0  1  0.94088238  0.44088015  0.49999799  1  1.307527  0  0.739326  0.970811  0  2.065481  0
Zn  Zn1  1  0.95562898  0.00000396  0.04437205  1  1.287112  0  0.73808  0.952666  0  2.075961  0
Zn  Zn2  1  0.04437825  0.00000332  0.95562530  1  1.296676  0  0.738225  0.95283  0  2.075194  0
Zn  Zn3  1  0.50000785  0.44090942  0.05909243  1  1.299768  0  0.739239  0.971114  0  2.065442  0
Zn  Zn4  1  0.05908838  0.55908812  0.50000576  1  1.299627  0  0.739211  0.97122  0  2.065495  0
Zn  Zn5  1  0.49999054  0.55911514  0.94089575  1  1.307233  0  0.739261  0.970791  0  2.06548  0
H  H6  1  0.17892810  0.82074018  0.21533792  1  0.608089  0  0.327864  0.355615  0  0.907385  0
H  H7  1  0.35819120  0.39426092  0.82108157  1  0.605363  0  0.327982  0.355884  0  0.906913  0
H  H8  1  0.84359172  0.65564389  0.08657159  1  0.014792  0  0.092354  0.077735  0  0.987699  0
H  H9  1  0.02049662  0.21968532  0.02289801  1  0.032434  0  0.082733  0.11501  0  1.021589  0
H  H10  1  0.04542076  0.32746886  0.97251648  1  0.006205  0  0.084091  0.109036  0  1.00136  0
H  H11  1  0.95128688  0.24061111  0.04113390  1  0.00085  0  0.08596  0.111559  0  1.003998  0
H  H12  1  0.94977392  0.28966332  0.90749422  1  0.007923  0  0.085855  0.069013  0  0.985317  0
H  H13  1  0.92574838  0.18299620  0.95803920  1  0.025754  0  0.086852  0.084081  0  0.997802  0
H  H14  1  0.06341833  0.23922524  0.89946476  1  0.042443  0  0.094037  0.099759  0  1.004126  0
H  H15  1  0.08657321  0.34435606  0.84358709  1  0.014808  0  0.09236  0.07769  0  0.987666  0
H  H16  1  0.97710401  0.95661778  0.24258786  1  0.046371  0  0.082766  0.115044  0  1.021697  0
H  H17  1  0.02748778  0.98207789  0.29998567  1  0.000987  0  0.084114  0.109057  0  1.001341  0
H  H18  1  0.96392779  0.17926689  0.64181287  1  0.612423  0  0.327936  0.355795  0  0.907136  0
H  H19  1  0.95886728  0.00759262  0.28174547  1  0.036037  0  0.086  0.11165  0  1.004035  0
H  H20  1  0.09251228  0.14274776  0.19715339  1  0.001094  0  0.085839  0.068946  0  0.985084  0
H  H21  1  0.04196044  0.11622043  0.14103333  1  0.019165  0  0.086851  0.08413  0  0.997731  0
H  H22  1  0.10053280  0.03712096  0.13869159  1  0.031173  0  0.094033  0.09982  0  1.004082  0
H  H23  1  0.15641142  0.06984074  0.18794622  1  0.009174  0  0.092355  0.077729  0  0.987764  0
H  H24  1  0.75741615  0.78031514  0.19920011  1  0.042059  0  0.082772  0.115096  0  1.021756  0
H  H25  1  0.70001836  0.67253749  0.28205474  1  0.005559  0  0.084185  0.109142  0  1.001376  0
H  H26  1  0.71825858  0.75939393  0.28933025  1  0.01612  0  0.086002  0.111669  0  1.004074  0
H  H27  1  0.80284841  0.71033932  0.33989572  1  0.010904  0  0.085851  0.068971  0  0.985146  0
H  H28  1  0.85896875  0.81700678  0.25725064  1  0.047306  0  0.086857  0.084125  0  0.997706  0
H  H29  1  0.78466207  0.60574241  0.03607418  1  0.609725  0  0.327942  0.355783  0  0.907035  0
H  H30  1  0.86131226  0.76077761  0.17580893  1  0.030134  0  0.094053  0.099816  0  1.004068  0
H  H31  1  0.81205523  0.65564189  0.25778753  1  0.023392  0  0.092348  0.077695  0  0.987645  0
H  H32  1  0.80079866  0.04338191  0.97951746  1  0.013416  0  0.082718  0.114998  0  1.021749  0
H  H33  1  0.71794274  0.01792738  0.95458991  1  -0.002664  0  0.084163  0.109073  0  1.001331  0
H  H34  1  0.71066637  0.99240929  0.04872659  1  0.035762  0  0.086014  0.111648  0  1.00405  0
H  H35  1  0.66010214  0.85725667  0.05023363  1  0.011871  0  0.085855  0.068962  0  0.985178  0
H  H36  1  0.74274840  0.88378055  0.07425777  1  0.033504  0  0.086858  0.08414  0  0.99774  0
H  H37  1  0.82419042  0.96288204  0.93658683  1  0.047142  0  0.094056  0.09985  0  1.004085  0
H  H38  1  0.74221300  0.93016182  0.91342798  1  0.019493  0  0.092354  0.077712  0  0.987652  0
H  H39  1  0.03607514  0.39425728  0.78466138  1  0.609746  0  0.327924  0.355751  0  0.907118  0
H  H40  1  0.21534074  0.17927018  0.17891782  1  0.607114  0  0.327952  0.355798  0  0.907229  0
H  H41  1  0.82108866  0.60574509  0.35818508  1  0.605926  0  0.327961  0.355825  0  0.906908  0
H  H42  1  0.64181553  0.82073673  0.96392471  1  0.612209  0  0.327943  0.355763  0  0.907174  0
H  H43  1  0.24259121  0.04338493  0.97709918  1  0.046144  0  0.082748  0.115033  0  1.021685  0
H  H44  1  0.29999062  0.01792553  0.02748276  1  0.000705  0  0.084129  0.109074  0  1.001307  0
H  H45  1  0.28174882  0.99240656  0.95886671  1  0.035944  0  0.085963  0.111618  0  1.003977  0
H  H46  1  0.19716087  0.85725693  0.09251253  1  0.001351  0  0.085886  0.069039  0  0.984986  0
H  H47  1  0.14103843  0.88377888  0.04196122  1  0.019279  0  0.086832  0.084053  0  0.997829  0
H  H48  1  0.13869633  0.96288302  0.10052895  1  0.0311  0  0.094041  0.099845  0  1.004062  0
H  H49  1  0.18794933  0.93016240  0.15640729  1  0.009183  0  0.092336  0.077716  0  0.987813  0
H  H50  1  0.19920819  0.21968618  0.75741372  1  0.042265  0  0.082776  0.115098  0  1.021722  0
H  H51  1  0.28206459  0.32746929  0.70001299  1  0.005483  0  0.084149  0.109143  0  1.001329  0
H  H52  1  0.28934147  0.24060762  0.71825958  1  0.015964  0  0.08601  0.111662  0  1.004053  0
H  H53  1  0.33990424  0.28966675  0.80284628  1  0.010897  0  0.085808  0.068925  0  0.985119  0
H  H54  1  0.25725954  0.18299696  0.85896710  1  0.047535  0  0.086855  0.084079  0  0.997865  0
H  H55  1  0.17581303  0.23922341  0.86130664  1  0.03037  0  0.094028  0.099838  0  1.004072  0
H  H56  1  0.25779301  0.34436223  0.81204989  1  0.023115  0  0.092382  0.077769  0  0.987573  0
H  H57  1  0.97952137  0.95661875  0.80079486  1  0.013475  0  0.082746  0.115054  0  1.02172  0
H  H58  1  0.95459432  0.98207672  0.71793847  1  -0.00261  0  0.084163  0.109128  0  1.00133  0
H  H59  1  0.04873254  0.00759515  0.71065909  1  0.035921  0  0.086044  0.111698  0  1.003887  0
H  H60  1  0.05023752  0.14274804  0.66009558  1  0.011893  0  0.085844  0.068945  0  0.985044  0
H  H61  1  0.07426534  0.11622301  0.74274279  1  0.033482  0  0.086813  0.08403  0  0.997729  0
H  H62  1  0.93659366  0.03712383  0.82418446  1  0.047235  0  0.094019  0.099803  0  1.004107  0
H  H63  1  0.91343332  0.06984105  0.74221076  1  0.019541  0  0.092347  0.077723  0  0.987787  0
H  H64  1  0.02290257  0.78031162  0.02048654  1  0.032898  0  0.082765  0.115069  0  1.021735  0
H  H65  1  0.97251894  0.67253100  0.04541162  1  0.006206  0  0.084124  0.109046  0  1.001326  0
H  H66  1  0.04113756  0.75938895  0.95127734  1  0.000564  0  0.08599  0.111648  0  1.003997  0
H  H67  1  0.90749356  0.71033772  0.94976647  1  0.008309  0  0.085896  0.069012  0  0.985137  0
H  H68  1  0.95804191  0.81700503  0.92574393  1  0.025668  0  0.086834  0.084093  0  0.997757  0
H  H69  1  0.89946969  0.76077793  0.06341189  1  0.042158  0  0.094052  0.099863  0  1.004065  0
C  C70  1  0.00000960  0.61722530  0.38278322  1  1.57065  0  0.226473  0.657823  0  4.10504  0
C  C71  1  0.00000727  0.88173458  0.11826108  1  1.520424  0  0.228352  0.61102  0  4.145658  0
C  C72  1  0.23685630  0.27583955  0.85342888  1  -0.025226  0  -0.162414  -0.185382  0  3.983846  0
C  C73  1  0.27750229  0.25049918  0.81626514  1  -0.018032  0  -0.168258  -0.095879  0  3.962649  0
C  C74  1  0.26134269  0.26009358  0.74395239  1  -0.055802  0  -0.246319  -0.353319  0  3.97467  0
C  C75  1  0.96101451  0.09028225  0.76314321  1  -0.028865  0  -0.162346  -0.185397  0  3.983723  0
C  C76  1  0.02699898  0.09375870  0.72250142  1  -0.009332  0  -0.168243  -0.095838  0  3.962635  0
C  C77  1  0.00125047  0.00529544  0.73865739  1  -0.036642  0  -0.24634  -0.353315  0  3.974674  0
C  C78  1  0.87073415  0.72416007  0.03898640  1  -0.012927  0  -0.16241  -0.185379  0  3.983927  0
C  C79  1  0.93324101  0.74950071  0.97300626  1  -0.00592  0  -0.168302  -0.09599  0  3.962904  0
C  C80  1  0.99595567  0.73990583  0.99875813  1  -0.028962  0  -0.246294  -0.353185  0  3.974691  0
C  C81  1  0.03898641  0.27583693  0.87073085  1  -0.013268  0  -0.162436  -0.185245  0  3.984041  0
C  C82  1  0.11827218  0.11826896  0.99999538  1  1.520552  0  0.22853  0.611345  0  4.145624  0
C  C83  1  0.97300679  0.25049891  0.93323788  1  -0.005357  0  -0.168339  -0.096086  0  3.962899  0
C  C84  1  0.99877018  0.26009563  0.99595493  1  -0.029014  0  -0.246126  -0.352912  0  3.974132  0
C  C85  1  0.12926656  0.09027903  0.14657644  1  -0.009851  0  -0.162368  -0.185349  0  3.98368  0
C  C86  1  0.06676103  0.09375754  0.18373729  1  0.015741  0  -0.168288  -0.096019  0  3.962734  0
C  C87  1  0.00404853  0.00529332  0.25604792  1  -0.071447  0  -0.246274  -0.353138  0  3.974644  0
C  C88  1  0.85342938  0.72416120  0.23685331  1  -0.025355  0  -0.162366  -0.185146  0  3.983775  0
C  C89  1  0.81626618  0.74950215  0.27749180  1  -0.017962  0  -0.168358  -0.096082  0  3.962933  0
C  C90  1  0.74395494  0.73990909  0.26133419  1  -0.055663  0  -0.246332  -0.353276  0  3.974791  0
C  C91  1  0.76314744  0.90972079  0.96101319  1  -0.028066  0  -0.162376  -0.18538  0  3.983734  0
C  C92  1  0.72250579  0.90624193  0.02699582  1  -0.009354  0  -0.168328  -0.096062  0  3.96292  0
C  C93  1  0.00000750  0.11826625  0.88172707  1  1.531706  0  0.228386  0.611042  0  4.145751  0
C  C94  1  0.73866312  0.99470882  0.00124526  1  -0.036563  0  -0.246282  -0.3531  0  3.974701  0
C  C95  1  0.14657577  0.90972004  0.12926720  1  -0.009808  0  -0.162359  -0.185395  0  3.983882  0
C  C96  1  0.18374170  0.90624190  0.06676315  1  0.01546  0  -0.168299  -0.096013  0  3.962831  0
C  C97  1  0.25604952  0.99470606  0.00404870  1  -0.070851  0  -0.246232  -0.353128  0  3.974597  0
C  C98  1  0.88174045  0.88173673  0.99999454  1  1.531738  0  0.228414  0.611124  0  4.14578  0
C  C99  1  0.90994552  0.49992045  0.58999088  1  1.671877  0  0.22197  0.652074  0  4.263797  0
C  C100  1  0.41001434  0.49999555  0.08998806  1  1.676574  0  0.222091  0.651511  0  4.263984  0
C  C101  1  0.08993969  0.49995261  0.41003100  1  1.678346  0  0.222068  0.651735  0  4.263066  0
C  C102  1  0.38278168  0.38278346  0.00000197  1  1.57082  0  0.226456  0.657748  0  4.105002  0
C  C103  1  0.58999861  0.50008075  0.90996488  1  1.671941  0  0.222155  0.652112  0  4.263678  0
C  C104  1  0.86017517  0.49990688  0.63975721  1  0.170426  0  -0.003762  -0.115952  0  3.835373  0
C  C105  1  0.36025723  0.49998601  0.13975505  1  0.171538  0  -0.003835  -0.115719  0  3.83609  0
C  C106  1  0.13971003  0.49995354  0.36027009  1  0.172401  0  -0.003657  -0.115649  0  3.835851  0
C  C107  1  0.63978255  0.50011876  0.86018705  1  0.169074  0  -0.003685  -0.115979  0  3.835691  0
C  C108  1  0.99999698  0.38277993  0.61721975  1  1.577832  0  0.226561  0.657647  0  4.104854  0
C  C109  1  0.81768525  0.49994856  0.68227753  1  -0.275249  0  -0.013968  0.014306  0  4.272344  0
C  C110  1  0.31773446  0.49999195  0.18227321  1  -0.276636  0  -0.014013  0.014242  0  4.27268  0
C  C111  1  0.18224435  0.49997005  0.31774620  1  -0.277191  0  -0.014174  0.014109  0  4.273133  0
C  C112  1  0.68228791  0.50006624  0.81769489  1  -0.274451  0  -0.014145  0.014263  0  4.272711  0
C  C113  1  0.61721880  0.61722176  0.00000198  1  1.577355  0  0.226679  0.657745  0  4.105113  0
C  C114  1  0.77136283  0.49997630  0.72861038  1  -0.113673  0  -0.005234  -0.006913  0  4.214144  0
C  C115  1  0.27139257  0.49999337  0.22861446  1  -0.11412  0  -0.005246  -0.006924  0  4.214035  0
C  C116  1  0.22860206  0.49999645  0.27139209  1  0.083216  0  -0.005301  -0.007135  0  4.214211  0
C  C117  1  0.72860112  0.50001674  0.77137826  1  0.082331  0  -0.005304  -0.007108  0  4.21431  0
C  C118  1  0.06961059  0.76127441  0.25490412  1  0.464789  0  0.086281  0.25869  0  4.067323  0
C  C119  1  0.30834408  0.32450333  0.93039721  1  0.532323  0  0.086235  0.258798  0  4.067587  0
C  C120  1  0.98384069  0.23874102  0.69165665  1  0.521605  0  0.086277  0.258687  0  4.067508  0
C  C121  1  0.74510253  0.67549881  0.01616626  1  0.496913  0  0.086302  0.258904  0  4.06738  0
C  C122  1  0.01616764  0.32449924  0.74510293  1  0.496731  0  0.086325  0.258875  0  4.067265  0
C  C123  1  0.25489845  0.23873551  0.06960589  1  0.465417  0  0.086312  0.258738  0  4.067439  0
C  C124  1  0.93040411  0.67550508  0.30834021  1  0.532163  0  0.086277  0.258951  0  4.067588  0
C  C125  1  0.69165980  0.76126628  0.98384056  1  0.52137  0  0.086307  0.258684  0  4.067283  0
C  C126  1  0.07106379  0.82709757  0.19040870  1  0.017688  0  -0.03733  -0.067738  0  4.007842  0
C  C127  1  0.24396909  0.26147019  0.92893830  1  0.013932  0  -0.037193  -0.068027  0  4.008496  0
C  C128  1  0.98249953  0.17290762  0.75603427  1  0.013933  0  -0.037204  -0.067624  0  4.007667  0
C  C129  1  0.80959432  0.73853277  0.01750446  1  0.013805  0  -0.037294  -0.06811  0  4.00818  0
C  C130  1  0.01750419  0.26146753  0.80959440  1  0.013723  0  -0.037269  -0.068012  0  4.008413  0
C  C131  1  0.19040678  0.17290541  0.07106189  1  0.017644  0  -0.037219  -0.067687  0  4.007661  0
C  C132  1  0.92894222  0.73853489  0.24396682  1  0.014131  0  -0.037154  -0.068144  0  4.008323  0
C  C133  1  0.75603740  0.82709879  0.98249631  1  0.013386  0  -0.03723  -0.067657  0  4.007589  0
C  C134  1  0.00000239  0.81324058  0.18675907  1  0.010833  0  -0.017347  -0.091361  0  3.986124  0
C  C135  1  0.18676604  0.18676515  0.99999771  1  0.010846  0  -0.017398  -0.091449  0  3.986132  0
C  C136  1  0.00000133  0.18676080  0.81324025  1  0.001665  0  -0.017302  -0.091411  0  3.986123  0
C  C137  1  0.81324180  0.81324098  0.99999956  1  0.00153  0  -0.017286  -0.091291  0  3.985929  0
C  C138  1  0.00000861  0.68564554  0.31437167  1  0.034585  0  -0.036177  -0.242521  0  3.92151  0
C  C139  1  0.31436555  0.31436159  0.00000527  1  0.034486  0  -0.036201  -0.242451  0  3.921346  0
C  C140  1  0.00000402  0.31436823  0.68563310  1  0.006298  0  -0.036171  -0.242295  0  3.921189  0
C  C141  1  0.68563497  0.68563507  0.00000469  1  0.006393  0  -0.036247  -0.242451  0  3.921186  0
O  O142  1  0.95684801  0.53949750  0.40153472  1  -1.139967  0  -0.30967  -0.540433  0  2.276496  0
O  O143  1  0.41735782  0.35837096  0.04317032  1  -1.127427  0  -0.309777  -0.54054  0  2.275972  0
O  O144  1  0.05898838  0.46052740  0.58265315  1  -1.130122  0  -0.309882  -0.540546  0  2.27573  0
O  O145  1  0.59845373  0.64163034  0.94103098  1  -1.140832  0  -0.309851  -0.540464  0  2.276734  0
O  O146  1  0.94102606  0.35837266  0.59845907  1  -1.141167  0  -0.309792  -0.540477  0  2.276745  0
O  O147  1  0.40153616  0.46051592  0.95683554  1  -1.139893  0  -0.309779  -0.540546  0  2.276609  0
O  O148  1  0.04318735  0.64164374  0.41735326  1  -1.127113  0  -0.309847  -0.540656  0  2.276072  0
O  O149  1  0.58265338  0.53947611  0.05898608  1  -1.130085  0  -0.309887  -0.540595  0  2.276093  0
O  O150  1  0.87776761  0.45750372  0.56117797  1  -1.117131  0  -0.306561  -0.535782  0  2.215565  0
O  O151  1  0.42025690  0.43899628  0.12217394  1  -1.115558  0  -0.306761  -0.53607  0  2.215128  0
O  O152  1  0.98119194  0.54235921  0.57974776  1  -1.120687  0  -0.306908  -0.536716  0  2.215143  0
O  O153  1  0.43881158  0.56099053  0.01875739  1  -1.125949  0  -0.306764  -0.53597  0  2.215453  0
O  O154  1  0.01870824  0.43896913  0.43883861  1  -1.127406  0  -0.306586  -0.53573  0  2.2156  0
O  O155  1  0.56118514  0.54249820  0.87778337  1  -1.117291  0  -0.3066  -0.535808  0  2.215566  0
O  O156  1  0.12213632  0.56096089  0.42026770  1  -1.116077  0  -0.306999  -0.536543  0  2.214786  0
O  O157  1  0.57975496  0.45763599  0.98120809  1  -1.120665  0  -0.30702  -0.536611  0  2.214906  0
O  O158  1  0.94684093  0.92130968  0.94915177  1  -1.157942  0  -0.300996  -0.541713  0  2.314795  0
O  O159  1  0.02553464  0.89599459  0.05315805  1  -1.145844  0  -0.301004  -0.541662  0  2.314697  0
O  O160  1  0.12954066  0.07869337  0.97446993  1  -1.147877  0  -0.300983  -0.541737  0  2.314913  0
O  O161  1  0.05085139  0.10400932  0.87045685  1  -1.147265  0  -0.301054  -0.541727  0  2.314742  0
O  O162  1  0.87046193  0.89599882  0.05085137  1  -1.146845  0  -0.301154  -0.541909  0  2.313785  0
O  O163  1  0.94915213  0.07868737  0.94684450  1  -1.157526  0  -0.301097  -0.541795  0  2.313863  0
O  O164  1  0.05315298  0.10400748  0.02553319  1  -1.145702  0  -0.301196  -0.54199  0  2.313774  0
O  O165  1  0.97447092  0.92131561  0.12953798  1  -1.147513  0  -0.301089  -0.541833  0  2.313768  0
O  O166  1  0.13588086  0.76774995  0.26181881  1  -1.116373  0  -0.348625  -0.422693  0  2.284636  0
O  O167  1  0.36813431  0.39769060  0.86413137  1  -1.120634  0  -0.348731  -0.423001  0  2.284617  0
O  O168  1  0.97044318  0.23225978  0.63186955  1  -1.122788  0  -0.348757  -0.422993  0  2.284879  0
O  O169  1  0.73818260  0.60231259  0.02956110  1  -1.116874  0  -0.348694  -0.422927  0  2.284568  0
O  O170  1  0.02956247  0.39768877  0.73818231  1  -1.116864  0  -0.348723  -0.422953  0  2.284529  0
O  O171  1  0.26181966  0.23225853  0.13587336  1  -1.115628  0  -0.348798  -0.422995  0  2.284829  0
O  O172  1  0.86413837  0.60231906  0.36813181  1  -1.121092  0  -0.348779  -0.423029  0  2.284453  0
O  O173  1  0.63187032  0.76774361  0.97043924  1  -1.122281  0  -0.348764  -0.42292  0  2.284804  0
