# generated using pymatgen
data_AlH5C8O7
_symmetry_space_group_name_H-M   'P 1'
_cell_length_a   6.62782981
_cell_length_b   8.74168138
_cell_length_c   11.10985904
_cell_angle_alpha   81.14283586
_cell_angle_beta   72.62183128
_cell_angle_gamma   75.49123006
_symmetry_Int_Tables_number   1
_chemical_formula_structural   AlH5C8O7
_chemical_formula_sum   'Al2 H10 C16 O14'
_cell_volume   592.52893298
_cell_formula_units_Z   2
loop_
 _symmetry_equiv_pos_site_id
 _symmetry_equiv_pos_as_xyz
  1  'x, y, z'
loop_
 _atom_site_type_symbol
 _atom_site_label
 _atom_site_symmetry_multiplicity
 _atom_site_fract_x
 _atom_site_fract_y
 _atom_site_fract_z
 _atom_site_occupancy
 _atom_site_pbe_bader_charge
 _atom_site_pbe_bader_spin_density
 _atom_site_pbe_cm5_charge
 _atom_site_pbe_ddec_charge
 _atom_site_pbe_ddec_spin_density
 _atom_site_pbe_ddec_sum_bond_order
 _atom_site_pbe_magmom
Al  Al0  1  0.48679591  0.52610984  0.49775512  1  2.5059  0  0.402086  1.630323  0  2.589691  0
Al  Al1  1  0.98669990  0.52454203  0.49938332  1  2.501844  0  0.398116  1.636448  0  2.583861  0
H  H2  1  0.79971298  0.60247352  0.34205884  1  0.614297  0  0.35284  0.423643  0  0.865941  0
H  H3  1  0.20115902  0.41935416  0.65004918  1  0.638437  0  0.353151  0.428976  0  0.859787  0
H  H4  1  0.18968034  0.26304501  0.24123777  1  0.06907  0  0.100071  0.105261  0  1.038763  0
H  H5  1  0.09664579  0.07859533  0.13147264  1  0.058456  0  0.102696  0.100967  0  0.991851  0
H  H6  1  0.44769689  0.27077995  0.77371087  1  0.045046  0  0.10163  0.105317  0  1.034248  0
H  H7  1  0.22957486  0.08149919  0.89484578  1  0.061153  0  0.10486  0.104919  0  0.986467  0
H  H8  1  0.80379976  0.88597276  0.46192425  1  0.652937  0  0.317771  0.360024  0  0.947429  0
H  H9  1  0.16475701  0.16374073  0.53681320  1  0.660972  0  0.316624  0.356534  0  0.954872  0
H  H10  1  0.84638362  0.65122800  0.78197573  1  0.631286  0  0.318883  0.357974  0  0.951329  0
H  H11  1  0.60750065  0.64576388  0.20927315  1  0.651705  0  0.316044  0.34749  0  0.977753  0
C  C12  1  0.34577626  0.50335407  0.27106240  1  1.506512  0  0.273728  0.672721  0  4.027654  0
C  C13  1  0.15335832  0.80992907  0.50127707  1  1.505531  0  0.25813  0.600284  0  4.102303  0
C  C14  1  0.63127422  0.51815636  0.72701885  1  1.490528  0  0.272526  0.668438  0  4.047222  0
C  C15  1  0.81864767  0.23959631  0.49642092  1  1.507353  0  0.256812  0.596239  0  4.106065  0
C  C16  1  0.88751955  0.06677089  0.48862534  1  0.618888  0  0.065785  0.038244  0  4.060816  0
C  C17  1  0.08382576  0.98271223  0.50917579  1  0.602708  0  0.065974  0.039258  0  4.058104  0
C  C18  1  0.43304625  0.48499704  0.13444996  1  0.045294  0  -0.029957  -0.237351  0  3.951835  0
C  C19  1  0.36448996  0.38225962  0.07116904  1  0.051061  0  -0.004629  0.071238  0  3.970028  0
C  C20  1  0.58651239  0.57323381  0.06520006  1  0.538179  0  0.099121  0.226405  0  4.029396  0
C  C21  1  0.24110232  0.26956205  0.13850841  1  -0.057516  0  -0.096805  -0.133398  0  3.980102  0
C  C22  1  0.19000768  0.16486765  0.07667708  1  0.007789  0  -0.094922  -0.082497  0  4.048306  0
C  C23  1  0.57523906  0.49241450  0.86586586  1  0.042156  0  -0.030702  -0.23874  0  3.965499  0
C  C24  1  0.65957712  0.57618014  0.92985263  1  0.5871  0  0.099316  0.225779  0  4.036483  0
C  C25  1  0.43691791  0.38581479  0.93576221  1  0.042075  0  -0.006054  0.072412  0  3.973957  0
C  C26  1  0.38468429  0.27494176  0.87563459  1  0.01864  0  -0.101566  -0.147854  0  4.00079  0
C  C27  1  0.26330390  0.16692553  0.94410909  1  -0.146652  0  -0.09511  -0.083625  0  4.054844  0
O  O28  1  0.46493082  0.54902206  0.32671976  1  -1.263338  0  -0.238493  -0.62008  0  2.386441  0
O  O29  1  0.02188705  0.73990924  0.47557199  1  -1.263425  0  -0.241929  -0.618201  0  2.399519  0
O  O30  1  0.81190876  0.56226616  0.66911772  1  -1.264554  0  -0.242441  -0.616928  0  2.352644  0
O  O31  1  0.63839645  0.30983008  0.47626622  1  -1.239207  0  -0.22706  -0.547941  0  2.341093  0
O  O32  1  0.50356568  0.50016947  0.66769002  1  -1.264126  0  -0.222156  -0.581286  0  2.396971  0
O  O33  1  0.94785984  0.30874691  0.52559230  1  -1.260866  0  -0.244384  -0.622405  0  2.404762  0
O  O34  1  0.15738256  0.48198167  0.33027509  1  -1.26649  0  -0.226167  -0.577482  0  2.358249  0
O  O35  1  0.33591668  0.74075014  0.51878330  1  -1.242185  0  -0.224478  -0.543578  0  2.336125  0
O  O36  1  0.74809012  0.59516634  0.43384963  1  -1.417187  0  -0.446531  -0.973738  0  2.158619  0
O  O37  1  0.22857764  0.45354974  0.56033364  1  -1.441234  0  -0.447871  -0.985279  0  2.186504  0
O  O38  1  0.74351027  0.00239558  0.46105046  1  -1.123062  0  -0.338843  -0.37902  0  2.343756  0
O  O39  1  0.22741604  0.04756635  0.53669543  1  -1.130641  0  -0.339571  -0.378916  0  2.34481  0
O  O40  1  0.80211726  0.66821546  0.87372045  1  -1.124615  0  -0.336722  -0.398436  0  2.278847  0
O  O41  1  0.66852646  0.66547463  0.11597858  1  -1.149822  0  -0.339774  -0.402139  0  2.284023  0
