# generated using pymatgen
data_ZnH9C14(NO2)2
_symmetry_space_group_name_H-M   'P 1'
_cell_length_a   6.98934986
_cell_length_b   8.08097745
_cell_length_c   11.71193600
_cell_angle_alpha   101.92445160
_cell_angle_beta   98.50185278
_cell_angle_gamma   96.34675229
_symmetry_Int_Tables_number   1
_chemical_formula_structural   ZnH9C14(NO2)2
_chemical_formula_sum   'Zn2 H18 C28 N4 O8'
_cell_volume   633.27159235
_cell_formula_units_Z   2
loop_
 _symmetry_equiv_pos_site_id
 _symmetry_equiv_pos_as_xyz
  1  'x, y, z'
loop_
 _atom_site_type_symbol
 _atom_site_label
 _atom_site_symmetry_multiplicity
 _atom_site_fract_x
 _atom_site_fract_y
 _atom_site_fract_z
 _atom_site_occupancy
 _atom_site_hle17_bader_spin_density
 _atom_site_hle17_ddec_charge
 _atom_site_hle17_ddec_spin_density
 _atom_site_hle17_ddec_sum_bond_order
 _atom_site_hle17_magmom
 _atom_site_hse06_10hf_bader_spin_density
 _atom_site_hse06_10hf_ddec_charge
 _atom_site_hse06_10hf_ddec_spin_density
 _atom_site_hse06_10hf_ddec_sum_bond_order
 _atom_site_hse06_10hf_magmom
 _atom_site_hse06_bader_spin_density
 _atom_site_hse06_ddec_charge
 _atom_site_hse06_ddec_spin_density
 _atom_site_hse06_ddec_sum_bond_order
 _atom_site_hse06_magmom
 _atom_site_pbe_bader_spin_density
 _atom_site_pbe_cm5_charge
 _atom_site_pbe_ddec_charge
 _atom_site_pbe_ddec_spin_density
 _atom_site_pbe_ddec_sum_bond_order
 _atom_site_pbe_magmom
Zn  Zn0  1  0.84516745  0.99392574  0.35595114  1  0  1.086375  0  1.835235  0  0  0.908378  0  2.322105  0  0  0.955151  0  2.261375  0  0  0.702584  0.875599  0  2.363997  0
Zn  Zn1  1  0.15482322  0.00607498  0.64405386  1  0  1.086256  0  1.835376  0  0  0.908274  0  2.32225  0  0  0.955045  0  2.261523  0  0  0.702521  0.875494  0  2.364141  0
H  H2  1  0.16327298  0.49800672  0.39473840  1  0  0.103683  0  0.941187  0  0  0.113912  0  0.999934  0  0  0.117642  0  0.997499  0  0  0.105446  0.111164  0  1.001837  0
H  H3  1  0.83672397  0.50198767  0.60525688  1  0  0.103702  0  0.94124  0  0  0.113954  0  0.999944  0  0  0.117657  0  0.997541  0  0  0.10546  0.111205  0  1.001849  0
H  H4  1  0.28808252  0.85908516  0.95671393  1  0  0.102072  0  0.968775  0  0  0.110111  0  1.034299  0  0  0.112074  0  1.035068  0  0  0.106355  0.108651  0  1.033949  0
H  H5  1  0.71191847  0.14091565  0.04327925  1  0  0.102066  0  0.96879  0  0  0.11012  0  1.034312  0  0  0.112084  0  1.03508  0  0  0.106365  0.108657  0  1.033965  0
H  H6  1  0.21612269  0.66435906  0.18564854  1  0  0.099778  0  0.955802  0  0  0.111001  0  1.016341  0  0  0.114148  0  1.014247  0  0  0.103796  0.108751  0  1.017889  0
H  H7  1  0.78389145  0.33565184  0.81435758  1  0  0.099763  0  0.955769  0  0  0.111023  0  1.016251  0  0  0.114171  0  1.014152  0  0  0.103812  0.108778  0  1.017798  0
H  H8  1  0.58257922  0.24556565  0.57561993  1  0  0.11505  0  0.933084  0  0  0.125012  0  0.991129  0  0  0.128584  0  0.988788  0  0  0.109779  0.122382  0  0.992978  0
H  H9  1  0.41741525  0.75443129  0.42437720  1  0  0.115031  0  0.933013  0  0  0.124999  0  0.991068  0  0  0.12857  0  0.988725  0  0  0.109761  0.122366  0  0.992916  0
H  H10  1  0.74700866  0.36063211  0.31458928  1  0  0.113952  0  0.942968  0  0  0.125284  0  0.998164  0  0  0.127307  0  0.998091  0  0  0.124092  0.123811  0  0.998315  0
H  H11  1  0.25298771  0.63936738  0.68540754  1  0  0.113969  0  0.94301  0  0  0.125319  0  0.998176  0  0  0.127336  0  0.9981  0  0  0.124113  0.123846  0  0.998328  0
H  H12  1  0.40576795  0.38282364  0.16819762  1  0  0.127176  0  0.975007  0  0  0.135451  0  1.039259  0  0  0.137723  0  1.038638  0  0  0.125615  0.13378  0  1.039824  0
H  H13  1  0.59423013  0.61717715  0.83179699  1  0  0.127216  0  0.975049  0  0  0.135505  0  1.039287  0  0  0.137775  0  1.038671  0  0  0.125626  0.133828  0  1.039859  0
H  H14  1  0.03259503  0.23804579  0.17794446  1  0  0.113587  0  0.942898  0  0  0.122322  0  1.006429  0  0  0.124921  0  1.005574  0  0  0.111278  0.120467  0  1.007067  0
H  H15  1  0.96740408  0.76195246  0.82204816  1  0  0.113625  0  0.942865  0  0  0.122314  0  1.006474  0  0  0.124918  0  1.0056  0  0  0.111268  0.120456  0  1.007117  0
H  H16  1  0.63995446  0.48967002  0.98102278  1  0  0.096319  0  0.979201  0  0  0.10242  0  1.050449  0  0  0.1067  0  1.046129  0  0  0.099278  0.099268  0  1.053714  0
H  H17  1  0.36006450  0.51033569  0.01898816  1  0  0.096455  0  0.979083  0  0  0.102476  0  1.050407  0  0  0.106752  0  1.046085  0  0  0.099271  0.099329  0  1.053664  0
H  H18  1  0.43527108  0.86370580  0.18090949  1  0  0.11148  0  0.967634  0  0  0.11851  0  1.034519  0  0  0.121511  0  1.030308  0  0  0.138889  0.116245  0  1.037647  0
H  H19  1  0.56472798  0.13629242  0.81908655  1  0  0.111419  0  0.967708  0  0  0.118539  0  1.03449  0  0  0.12154  0  1.030279  0  0  0.138916  0.116276  0  1.03762  0
C  C20  1  0.35822768  0.35737754  0.48387106  1  0  -0.07137  0  3.762231  0  0  -0.049545  0  3.995114  0  0  -0.057623  0  4.019158  0  0  -0.015745  -0.044173  0  3.978834  0
C  C21  1  0.64176676  0.64261938  0.51612777  1  0  -0.071213  0  3.76212  0  0  -0.04939  0  3.994956  0  0  -0.057465  0  4.018991  0  0  -0.015714  -0.044017  0  3.978673  0
C  C22  1  0.17873327  0.05493705  0.07445743  1  0  0.174324  0  3.760093  0  0  0.168231  0  4.004035  0  0  0.172315  0  4.0268  0  0  0.097234  0.165415  0  3.988715  0
C  C23  1  0.82126584  0.94506120  0.92553519  1  0  0.174136  0  3.759955  0  0  0.168134  0  4.003759  0  0  0.172216  0  4.026525  0  0  0.097272  0.165321  0  3.988435  0
C  C24  1  0.31135484  0.49989105  0.44038207  1  0  -0.071772  0  3.734106  0  0  -0.09609  0  3.987707  0  0  -0.096855  0  4.007736  0  0  -0.080391  -0.095474  0  3.974153  0
C  C25  1  0.68864542  0.50010587  0.55961559  1  0  -0.071902  0  3.73417  0  0  -0.096225  0  3.987736  0  0  -0.09697  0  4.007768  0  0  -0.080428  -0.095609  0  3.974182  0
C  C26  1  0.83147693  0.69493559  0.18779486  1  0  0.631122  0  3.939277  0  0  0.586491  0  4.226688  0  0  0.620514  0  4.219533  0  0  0.196215  0.563441  0  4.23064  0
C  C27  1  0.16852709  0.30505868  0.81221131  1  0  0.631153  0  3.939301  0  0  0.586541  0  4.226704  0  0  0.620565  0  4.219554  0  0  0.19623  0.563488  0  4.230657  0
C  C28  1  0.20789632  0.20416216  0.46589413  1  0  0.678147  0  3.865401  0  0  0.626298  0  4.151416  0  0  0.6624  0  4.141847  0  0  0.224505  0.601704  0  4.157258  0
C  C29  1  0.79209148  0.79583858  0.53410890  1  0  0.677973  0  3.865561  0  0  0.62621  0  4.151471  0  0  0.662312  0  4.141905  0  0  0.224501  0.601613  0  4.157311  0
C  C30  1  0.91917594  0.58861620  0.09342149  1  0  -0.053961  0  3.753508  0  0  -0.029541  0  3.979325  0  0  -0.036083  0  4.002113  0  0  -0.0181  -0.025205  0  3.963833  0
C  C31  1  0.08084182  0.41139080  0.90658867  1  0  -0.053833  0  3.753428  0  0  -0.029488  0  3.97931  0  0  -0.036035  0  4.002101  0  0  -0.018134  -0.025151  0  3.963824  0
C  C32  1  0.16131815  0.91982697  0.97581275  1  0  -0.121849  0  3.739918  0  0  -0.143099  0  3.992059  0  0  -0.146683  0  4.01501  0  0  -0.08224  -0.140687  0  3.976687  0
C  C33  1  0.83868306  0.08017511  0.02418063  1  0  -0.121877  0  3.739892  0  0  -0.143193  0  3.992037  0  0  -0.146777  0  4.014987  0  0  -0.082345  -0.140779  0  3.976666  0
C  C34  1  0.12209410  0.59237208  0.10388187  1  0  -0.082174  0  3.744167  0  0  -0.105901  0  3.995015  0  0  -0.106614  0  4.014966  0  0  -0.088775  -0.105306  0  3.9814  0
C  C35  1  0.87792159  0.40763112  0.89612498  1  0  -0.082206  0  3.743833  0  0  -0.105935  0  3.994732  0  0  -0.106648  0  4.014693  0  0  -0.088779  -0.105343  0  3.981118  0
C  C36  1  0.54765937  0.35799872  0.54374505  1  0  -0.055767  0  3.708591  0  0  -0.080111  0  3.960048  0  0  -0.080687  0  3.980136  0  0  -0.075849  -0.079647  0  3.946431  0
C  C37  1  0.45233049  0.64199693  0.45625488  1  0  -0.055882  0  3.708472  0  0  -0.080246  0  3.959961  0  0  -0.080824  0  3.980061  0  0  -0.075898  -0.07978  0  3.946342  0
C  C38  1  0.63035728  0.26105409  0.26507325  1  0  0.017235  0  3.728346  0  0  -0.01737  0  3.99409  0  0  -0.01613  0  4.015788  0  0  0.006574  -0.01819  0  3.979441  0
C  C39  1  0.36963738  0.73894411  0.73492578  1  0  0.017314  0  3.728339  0  0  -0.01729  0  3.994057  0  0  -0.01604  0  4.015745  0  0  0.006581  -0.018113  0  3.97941  0
C  C40  1  0.46136436  0.27368866  0.19360632  1  0  -0.050023  0  3.632633  0  0  -0.091156  0  3.890569  0  0  -0.08985  0  3.909432  0  0  0.008664  -0.092007  0  3.877975  0
C  C41  1  0.53863737  0.72630827  0.80638977  1  0  -0.050142  0  3.632622  0  0  -0.091323  0  3.890579  0  0  -0.090019  0  3.909442  0  0  0.008623  -0.092169  0  3.877989  0
C  C42  1  0.01828559  0.13564145  0.09919920  1  0  -0.109611  0  3.718191  0  0  -0.131492  0  3.972097  0  0  -0.134251  0  3.993332  0  0  -0.078524  -0.129588  0  3.957864  0
C  C43  1  0.98171901  0.86436321  0.90079146  1  0  -0.109586  0  3.717963  0  0  -0.131505  0  3.971937  0  0  -0.134261  0  3.993175  0  0  -0.078545  -0.129601  0  3.957702  0
C  C44  1  0.79782508  0.49422547  0.98898137  1  0  -0.089222  0  3.753292  0  0  -0.111972  0  4.005226  0  0  -0.113024  0  4.024993  0  0  -0.089535  -0.111091  0  3.991812  0
C  C45  1  0.20218864  0.50578288  0.01102349  1  0  -0.089448  0  3.753604  0  0  -0.112097  0  4.005528  0  0  -0.113141  0  4.025289  0  0  -0.089491  -0.111205  0  3.992084  0
C  C46  1  0.47267737  0.00129200  0.19877342  1  0  0.181243  0  3.620775  0  0  0.117947  0  3.882804  0  0  0.133181  0  3.892925  0  0  0.151425  0.108066  0  3.875701  0
C  C47  1  0.52732003  0.99870495  0.80122227  1  0  0.181412  0  3.620875  0  0  0.118016  0  3.88291  0  0  0.133249  0  3.893033  0  0  0.151442  0.108133  0  3.875806  0
N  N48  1  0.63470101  0.09110977  0.26796368  1  0  -0.393729  0  3.322307  0  0  -0.311235  0  3.623404  0  0  -0.332238  0  3.635761  0  0  -0.358726  -0.296958  0  3.614733  0
N  N49  1  0.36529511  0.90888843  0.73203464  1  0  -0.393711  0  3.322439  0  0  -0.311195  0  3.623535  0  0  -0.332202  0  3.635895  0  0  -0.35868  -0.296914  0  3.614857  0
N  N50  1  0.36272204  0.10798110  0.15206725  1  0  -0.089178  0  3.590432  0  0  0.00082  0  3.802186  0  0  -0.01338  0  3.826567  0  0  -0.221749  0.010253  0  3.785539  0
N  N51  1  0.63727914  0.89202096  0.84792783  1  0  -0.089246  0  3.590356  0  0  0.00077  0  3.802094  0  0  -0.013431  0  3.826475  0  0  -0.221785  0.010203  0  3.785445  0
O  O52  1  0.04057357  0.20596005  0.40519012  1  0  -0.630603  0  2.057556  0  0  -0.559009  0  2.328491  0  0  -0.586677  0  2.312154  0  0  -0.310785  -0.539873  0  2.339202  0
O  O53  1  0.95941363  0.79404579  0.59481531  1  0  -0.630427  0  2.05742  0  0  -0.558933  0  2.328378  0  0  -0.5866  0  2.312038  0  0  -0.310804  -0.539797  0  2.339088  0
O  O54  1  0.25384258  0.07915753  0.50994639  1  0  -0.651306  0  2.076943  0  0  -0.583047  0  2.357569  0  0  -0.608633  0  2.336431  0  0  -0.325494  -0.565289  0  2.371671  0
O  O55  1  0.74614167  0.92083939  0.49005576  1  0  -0.651278  0  2.077102  0  0  -0.58304  0  2.357686  0  0  -0.608625  0  2.336549  0  0  -0.325492  -0.565282  0  2.37179  0
O  O56  1  0.95748276  0.80994202  0.26546870  1  0  -0.662767  0  2.032051  0  0  -0.590991  0  2.301605  0  0  -0.620437  0  2.285976  0  0  -0.341407  -0.570233  0  2.311445  0
O  O57  1  0.04251317  0.19005607  0.73454154  1  0  -0.662713  0  2.032361  0  0  -0.590928  0  2.301906  0  0  -0.620374  0  2.28628  0  0  -0.341325  -0.57018  0  2.311778  0
O  O58  1  0.65067899  0.67405530  0.18544419  1  0  -0.618088  0  1.911183  0  0  -0.571484  0  2.132931  0  0  -0.594859  0  2.125347  0  0  -0.324362  -0.555131  0  2.137617  0
O  O59  1  0.34932501  0.32593005  0.81455641  1  0  -0.618149  0  1.911149  0  0  -0.571553  0  2.132894  0  0  -0.594921  0  2.125294  0  0  -0.324392  -0.555197  0  2.137581  0
