# generated using pymatgen
data_AgH5C4N4O3
_symmetry_space_group_name_H-M   'P 1'
_cell_length_a   7.03632406
_cell_length_b   9.45099039
_cell_length_c   10.54048931
_cell_angle_alpha   89.99997259
_cell_angle_beta   90.00048456
_cell_angle_gamma   90.68113346
_symmetry_Int_Tables_number   1
_chemical_formula_structural   AgH5C4N4O3
_chemical_formula_sum   'Ag4 H20 C16 N16 O12'
_cell_volume   700.89544383
_cell_formula_units_Z   4
loop_
 _symmetry_equiv_pos_site_id
 _symmetry_equiv_pos_as_xyz
  1  'x, y, z'
loop_
 _atom_site_type_symbol
 _atom_site_label
 _atom_site_symmetry_multiplicity
 _atom_site_fract_x
 _atom_site_fract_y
 _atom_site_fract_z
 _atom_site_occupancy
 _atom_site_pbe_bader_spin_density
 _atom_site_pbe_cm5_charge
 _atom_site_pbe_ddec_charge
 _atom_site_pbe_ddec_spin_density
 _atom_site_pbe_ddec_sum_bond_order
 _atom_site_pbe_magmom
Ag  Ag0  1  0.79718688  0.39659662  0.63353729  1  0  0.46811  0.412241  0  1.789924  0
Ag  Ag1  1  0.70281426  0.10340157  0.13353468  1  0  0.468088  0.41219  0  1.789978  0
Ag  Ag2  1  0.20281378  0.60340327  0.36646257  1  0  0.468089  0.4122  0  1.789957  0
Ag  Ag3  1  0.29718498  0.89659831  0.86646424  1  0  0.46809  0.412203  0  1.789999  0
H  H4  1  0.43411400  0.60942839  0.89544342  1  0  0.303865  0.320428  0  0.983372  0
H  H5  1  0.06588086  0.89057317  0.39543612  1  0  0.303927  0.320596  0  0.983421  0
H  H6  1  0.56588523  0.39057044  0.10455645  1  0  0.303861  0.320436  0  0.983334  0
H  H7  1  0.93412123  0.10942778  0.60456280  1  0  0.30392  0.320594  0  0.983414  0
H  H8  1  0.50360296  0.46018109  0.80512905  1  0  0.293614  0.302014  0  1.019105  0
H  H9  1  0.99639747  0.03981490  0.30512623  1  0  0.293538  0.301908  0  1.019441  0
H  H10  1  0.49639625  0.53981668  0.19487272  1  0  0.293547  0.301937  0  1.019269  0
H  H11  1  0.00360320  0.96018605  0.69487269  1  0  0.293534  0.3019  0  1.019451  0
H  H12  1  0.74301927  0.63375044  0.43926053  1  0  0.120218  0.099532  0  0.999207  0
H  H13  1  0.75698021  0.86624625  0.93925440  1  0  0.120254  0.099668  0  0.999122  0
H  H14  1  0.25697999  0.36625050  0.56074028  1  0  0.120196  0.099479  0  0.999253  0
H  H15  1  0.24302045  0.13375364  0.06074452  1  0  0.120249  0.099679  0  0.999114  0
H  H16  1  0.69623444  0.89835524  0.45135372  1  0  0.106373  0.125461  0  1.030314  0
H  H17  1  0.80375803  0.60163719  0.95134510  1  0  0.106315  0.125436  0  1.03017  0
H  H18  1  0.30376338  0.10164464  0.54864710  1  0  0.106367  0.12549  0  1.030291  0
H  H19  1  0.19624403  0.39836165  0.04865382  1  0  0.106324  0.125434  0  1.030155  0
H  H20  1  0.54871635  0.99325327  0.65382870  1  0  0.116004  0.082144  0  1.019559  0
H  H21  1  0.95127813  0.50674460  0.15382184  1  0  0.116043  0.082155  0  1.019608  0
H  H22  1  0.45128430  0.00674556  0.34617307  1  0  0.115999  0.082097  0  1.019585  0
H  H23  1  0.04872396  0.49325635  0.84617898  1  0  0.11604  0.08216  0  1.019596  0
C  C24  1  0.67740569  0.68341527  0.52144153  1  0  0.058665  0.151814  0  3.947317  0
C  C25  1  0.82258418  0.81657314  0.02143193  1  0  0.058656  0.151776  0  3.946961  0
C  C26  1  0.32258930  0.31658566  0.47855739  1  0  0.05871  0.151867  0  3.94731  0
C  C27  1  0.17741790  0.18342676  0.97856699  1  0  0.058683  0.151755  0  3.946915  0
C  C28  1  0.65060693  0.82875718  0.52775802  1  0  -0.110116  -0.218662  0  3.971687  0
C  C29  1  0.84939166  0.67124182  0.02775621  1  0  -0.110058  -0.218689  0  3.972081  0
C  C30  1  0.34939232  0.17124376  0.47224279  1  0  -0.110136  -0.218728  0  3.971707  0
C  C31  1  0.15061043  0.32875913  0.97224271  1  0  -0.110096  -0.218696  0  3.972091  0
C  C32  1  0.56793283  0.88029297  0.63789498  1  0  0.059733  0.159177  0  3.950222  0
C  C33  1  0.93205432  0.61970278  0.13788228  1  0  0.05967  0.159184  0  3.950016  0
C  C34  1  0.43206641  0.11970691  0.36210679  1  0  0.059766  0.159276  0  3.950177  0
C  C35  1  0.06794776  0.38029711  0.86211664  1  0  0.059691  0.159185  0  3.950023  0
C  C36  1  0.54202324  0.65391642  0.72007614  1  0  0.344101  0.568697  0  4.055978  0
C  C37  1  0.95796338  0.84606765  0.22005686  1  0  0.344067  0.568568  0  4.056247  0
C  C38  1  0.45797883  0.34608242  0.27992562  1  0  0.344121  0.568685  0  4.056002  0
C  C39  1  0.04203870  0.15393224  0.77994111  1  0  0.344099  0.568649  0  4.056007  0
N  N40  1  0.63131653  0.59655274  0.61750907  1  0  -0.351442  -0.356308  0  3.466855  0
N  N41  1  0.86868748  0.90344835  0.11751012  1  0  -0.351374  -0.356157  0  3.466819  0
N  N42  1  0.36868271  0.40344715  0.38249080  1  0  -0.351444  -0.35625  0  3.46688  0
N  N43  1  0.13131602  0.09655155  0.88248880  1  0  -0.35142  -0.356215  0  3.466783  0
N  N44  1  0.48787659  0.56759629  0.81406405  1  0  -0.573607  -0.642556  0  3.362821  0
N  N45  1  0.01212869  0.93241168  0.31407351  1  0  -0.573778  -0.642834  0  3.362177  0
N  N46  1  0.51212123  0.43240359  0.18593581  1  0  -0.573591  -0.642551  0  3.362744  0
N  N47  1  0.98787482  0.06758927  0.68592636  1  0  -0.573795  -0.642862  0  3.362166  0
N  N48  1  0.50768704  0.79498848  0.73179464  1  0  -0.350614  -0.359717  0  3.446525  0
N  N49  1  0.99231137  0.70501783  0.23179458  1  0  -0.350514  -0.359575  0  3.446341  0
N  N50  1  0.49231078  0.20501140  0.26820618  1  0  -0.350605  -0.359691  0  3.446453  0
N  N51  1  0.00769215  0.29498312  0.76820434  1  0  -0.35051  -0.359581  0  3.446329  0
N  N52  1  0.90383658  0.28887171  0.37141696  1  0  0.089121  0.695818  0  4.429787  0
N  N53  1  0.59616620  0.21113271  0.87141661  1  0  0.089095  0.695845  0  4.430032  0
N  N54  1  0.09616123  0.71112817  0.62858291  1  0  0.089079  0.695852  0  4.42978  0
N  N55  1  0.40383448  0.78886929  0.12858326  1  0  0.089064  0.695921  0  4.429895  0
O  O56  1  0.88888973  0.42105637  0.38312318  1  0  -0.180633  -0.434593  0  2.109755  0
O  O57  1  0.61111029  0.07894275  0.88312296  1  0  -0.180623  -0.434587  0  2.109643  0
O  O58  1  0.11110808  0.57894351  0.61688048  1  0  -0.180592  -0.434611  0  2.10975  0
O  O59  1  0.38888898  0.92106031  0.11687975  1  0  -0.180616  -0.434665  0  2.109608  0
O  O60  1  0.84433599  0.20720995  0.46014893  1  0  -0.20456  -0.463114  0  2.063763  0
O  O61  1  0.65566931  0.29279232  0.96014794  1  0  -0.20452  -0.463102  0  2.063999  0
O  O62  1  0.15566181  0.79278781  0.53984809  1  0  -0.204533  -0.463085  0  2.063723  0
O  O63  1  0.34433422  0.70720970  0.03985098  1  0  -0.2045  -0.463079  0  2.064  0
O  O64  1  0.97604576  0.23607930  0.27200339  1  0  -0.188794  -0.442346  0  2.052894  0
O  O65  1  0.52395713  0.26391883  0.77200260  1  0  -0.188816  -0.442407  0  2.053045  0
O  O66  1  0.02395209  0.76392270  0.72799553  1  0  -0.1888  -0.442375  0  2.052919  0
O  O67  1  0.47604355  0.73608212  0.22799727  1  0  -0.188798  -0.442413  0  2.052994  0
