# generated using pymatgen
data_CuH30C34(N3O4)4
_symmetry_space_group_name_H-M   'P 1'
_cell_length_a   9.50588791
_cell_length_b   10.13651871
_cell_length_c   10.88699608
_cell_angle_alpha   116.91281603
_cell_angle_beta   93.48044045
_cell_angle_gamma   101.37460185
_symmetry_Int_Tables_number   1
_chemical_formula_structural   CuH30C34(N3O4)4
_chemical_formula_sum   'Cu1 H30 C34 N12 O16'
_cell_volume   903.44995555
_cell_formula_units_Z   1
loop_
 _symmetry_equiv_pos_site_id
 _symmetry_equiv_pos_as_xyz
  1  'x, y, z'
loop_
 _atom_site_type_symbol
 _atom_site_label
 _atom_site_symmetry_multiplicity
 _atom_site_fract_x
 _atom_site_fract_y
 _atom_site_fract_z
 _atom_site_occupancy
 _atom_site_pbe_cm5_charge
 _atom_site_pbe_ddec_charge
 _atom_site_pbe_ddec_spin_density
 _atom_site_pbe_ddec_sum_bond_order
 _atom_site_pbe_magmom
Cu  Cu0  1  0.50000191  0.50000018  0.50000032  1  0.80089  0.749067  -0.743249  2.261645  -0.591
H  H1  1  0.45397805  0.45990104  0.11583774  1  0.295206  0.354104  -4e-06  0.993915  0.0
H  H2  1  0.54602315  0.54009703  0.88415993  1  0.295189  0.354058  -4e-06  0.994008  0.0
H  H3  1  0.12061247  0.91567953  0.37330539  1  0.299948  0.314994  -0.000244  1.031839  0.0
H  H4  1  0.87938954  0.08432197  0.62669467  1  0.29995  0.315005  -0.000244  1.03182  0.0
H  H5  1  0.60992457  0.12250310  0.90764382  1  0.2866  0.334504  -1e-06  1.044571  0.0
H  H6  1  0.39007635  0.87749841  0.09235802  1  0.286593  0.334492  -1e-06  1.044589  0.0
H  H7  1  0.85839079  0.54046667  0.53748228  1  0.13518  0.100036  -5.1e-05  1.023269  0.0
H  H8  1  0.14161355  0.45953141  0.46251743  1  0.13519  0.100079  -5.1e-05  1.023249  0.0
H  H9  1  0.51574019  0.17111195  0.24722704  1  0.144651  0.131808  3.8e-05  1.017494  0.0
H  H10  1  0.48425968  0.82888956  0.75277473  1  0.14465  0.131785  3.8e-05  1.017507  0.0
H  H11  1  0.86893592  0.06483261  0.15950876  1  0.121594  0.116799  -0.000154  0.999228  0.0
H  H12  1  0.13106419  0.93516547  0.84049160  1  0.121585  0.116806  -0.000154  0.999205  0.0
H  H13  1  0.67580025  0.98743151  0.11765343  1  0.119169  0.11269  -8e-06  0.979309  0.0
H  H14  1  0.32420116  0.01256773  0.88234933  1  0.119144  0.112659  -8e-06  0.979333  0.0
H  H15  1  0.79265322  0.84971346  0.21264875  1  0.109282  0.123528  -5.4e-05  0.964083  0.0
H  H16  1  0.20734874  0.15028806  0.78735500  1  0.109323  0.123587  -5.4e-05  0.96398  0.0
H  H17  1  0.88604347  0.02225813  0.36270973  1  0.101147  0.105563  -4.9e-05  0.98572  0.0
H  H18  1  0.11395588  0.97774566  0.63729387  1  0.101114  0.105506  -4.9e-05  0.985737  0.0
H  H19  1  0.65005780  0.06770449  0.44081906  1  0.11127  0.094432  -1.9e-05  1.021693  0.0
H  H20  1  0.34994102  0.93229702  0.55918264  1  0.111255  0.094449  -1.9e-05  1.021703  0.0
H  H21  1  0.55209518  0.89874671  0.28571735  1  0.122965  0.116717  -1.8e-05  0.983005  0.0
H  H22  1  0.44790472  0.10125479  0.71428257  1  0.122973  0.116732  -1.8e-05  0.98301  0.0
H  H23  1  0.79826033  0.79530201  0.66342881  1  0.141724  0.123211  -0.000146  1.018303  0.0
H  H24  1  0.20173929  0.20469834  0.33657062  1  0.141722  0.123204  -0.000146  1.018291  0.0
H  H25  1  0.46896653  0.68019391  0.32778252  1  0.1507  0.132569  -8.4e-05  1.030956  0.0
H  H26  1  0.53103494  0.31980530  0.67221564  1  0.150712  0.132608  -8.4e-05  1.03089  0.0
H  H27  1  0.83445971  0.60399291  0.20221542  1  0.112358  0.121412  4e-06  1.019123  0.0
H  H28  1  0.16554174  0.39600631  0.79778458  1  0.112411  0.121477  4e-06  1.019077  0.0
H  H29  1  0.07031277  0.17826310  0.02010923  1  0.112228  0.123743  -2e-06  1.02385  0.0
H  H30  1  0.92969003  0.82173726  0.97988949  1  0.112236  0.123764  -2e-06  1.023838  0.0
C  C31  1  0.79809063  0.42970105  0.45399479  1  0.149929  0.156168  0.000652  3.958766  -0.001
C  C32  1  0.20191216  0.57029931  0.54600485  1  0.149917  0.156122  0.000652  3.958745  -0.001
C  C33  1  0.62207524  0.24397000  0.30777436  1  0.163165  0.081836  0.001005  3.866337  0.0
C  C34  1  0.37792544  0.75603035  0.69222514  1  0.163169  0.081878  0.001005  3.866412  0.0
C  C35  1  0.76957314  0.05029480  0.20312291  1  -0.04703  -0.101827  -0.000767  3.852104  -0.001
C  C36  1  0.23042647  0.94970555  0.79687744  1  -0.047  -0.101837  -0.000768  3.852083  -0.001
C  C37  1  0.78447451  0.96483880  0.28628260  1  -0.155376  -0.178165  -0.000129  3.905781  0.0
C  C38  1  0.21552561  0.03516386  0.71372149  1  -0.15539  -0.178106  -0.000129  3.905707  0.0
C  C39  1  0.65482177  0.95407619  0.36039561  1  -0.049878  -0.104514  -0.000569  3.874588  -0.001
C  C40  1  0.34517758  0.04592302  0.63960333  1  -0.049899  -0.104642  -0.000569  3.874582  -0.001
C  C41  1  0.73693767  0.79351702  0.57499957  1  0.160453  0.158881  0.000104  3.919081  -0.001
C  C42  1  0.26306326  0.20648448  0.42500135  1  0.160465  0.158929  0.000104  3.919026  -0.001
C  C43  1  0.56734815  0.73272305  0.40520448  1  0.177237  0.10945  0.001767  3.850877  0.0
C  C44  1  0.43265358  0.26727731  0.59479509  1  0.177236  0.109437  0.001767  3.85079  0.0
C  C45  1  0.10535569  0.42065864  0.14854443  1  0.008336  -0.009658  2.5e-05  3.922276  0.0
C  C46  1  0.89464577  0.57934058  0.85145465  1  0.008296  -0.009648  2.5e-05  3.92224  0.0
C  C47  1  0.03912296  0.54328831  0.19813364  1  -0.00998  -0.065841  -5e-06  3.961786  0.0
C  C48  1  0.96087847  0.45671091  0.80186728  1  -0.009961  -0.065909  -5e-06  3.961817  0.0
C  C49  1  0.88835135  0.51140397  0.16203474  1  -0.070113  -0.083864  1.8e-05  3.923922  0.0
C  C50  1  0.11165272  0.48859755  0.83796822  1  -0.070184  -0.083948  1.8e-05  3.923972  0.0
C  C51  1  0.80054980  0.36357477  0.07499751  1  -0.013038  -0.074327  4.5e-05  3.922292  0.0
C  C52  1  0.19945245  0.63642788  0.92500488  1  -0.013056  -0.074331  4.5e-05  3.922425  0.0
C  C53  1  0.86961705  0.24146673  0.01734338  1  -0.007279  -0.057261  1.4e-05  3.908069  0.0
C  C54  1  0.13038576  0.75853362  0.98265443  1  -0.007286  -0.057247  1.4e-05  3.908111  0.0
C  C55  1  0.02010405  0.27397241  0.05941003  1  -0.075673  -0.112583  1.2e-05  3.927837  0.0
C  C56  1  0.97989715  0.72602565  0.94058763  1  -0.075677  -0.112622  1.2e-05  3.927809  0.0
C  C57  1  0.26486506  0.43484107  0.18325131  1  0.231899  0.601555  0.000285  4.15646  0.0
C  C58  1  0.73513776  0.56515469  0.81674183  1  0.23194  0.601599  0.000285  4.156544  0.0
C  C59  1  0.12802217  0.70325113  0.28729263  1  0.229898  0.580249  1.7e-05  4.120387  0.0
C  C60  1  0.87198059  0.29674924  0.71270885  1  0.229923  0.580316  1.7e-05  4.12023  0.0
C  C61  1  0.63931116  0.35443226  0.05795136  1  0.221505  0.580882  3.9e-05  4.165547  0.0
C  C62  1  0.36069293  0.64556926  0.94205068  1  0.221547  0.58086  3.9e-05  4.165613  0.0
C  C63  1  0.80384649  0.07365964  0.91233813  1  0.219293  0.556681  -3e-06  4.170819  0.0
C  C64  1  0.19615601  0.92633958  0.08766194  1  0.219353  0.556727  -3e-06  4.170704  0.0
N  N65  1  0.74805681  0.20196898  0.29068809  1  -0.134148  0.166655  -0.001362  3.734915  -0.002
N  N66  1  0.25194464  0.79803024  0.70931191  1  -0.134136  0.16667  -0.001362  3.734882  -0.002
N  N67  1  0.86130475  0.31866208  0.38334299  1  -0.220103  -0.260444  -0.006329  3.075665  -0.007
N  N68  1  0.13869565  0.68133713  0.61665602  1  -0.220111  -0.260444  -0.006328  3.075644  -0.007
N  N69  1  0.65044638  0.38797779  0.41127008  1  -0.360077  -0.314853  -0.060267  3.591657  -0.081
N  N70  1  0.34955667  0.61202372  0.58873097  1  -0.360084  -0.314875  -0.060266  3.591621  -0.081
N  N71  1  0.66199486  0.86207455  0.43051316  1  -0.128296  0.18308  -0.001513  3.705953  -0.002
N  N72  1  0.33800503  0.13792695  0.56948769  1  -0.128275  0.183147  -0.001513  3.705941  -0.002
N  N73  1  0.77090361  0.90271758  0.53820339  1  -0.206181  -0.241267  -0.004375  3.181572  -0.005
N  N74  1  0.22909494  0.09728278  0.46179782  1  -0.206175  -0.241298  -0.004375  3.181542  -0.005
N  N75  1  0.61151713  0.68676887  0.49519290  1  -0.361131  -0.310838  -0.057542  3.587555  -0.077
N  N76  1  0.38848354  0.31323149  0.50480660  1  -0.361131  -0.310861  -0.057539  3.587554  -0.077
O  O77  1  0.31165886  0.41105507  0.27824916  1  -0.299303  -0.542159  0.001544  2.213273  0.0
O  O78  1  0.68834360  0.58893500  0.72174527  1  -0.299262  -0.542104  0.001544  2.213436  0.0
O  O79  1  0.34067857  0.46175395  0.09701784  1  -0.320455  -0.482654  9.1e-05  2.334817  0.0
O  O80  1  0.65932397  0.53824525  0.90297947  1  -0.320508  -0.482731  9e-05  2.33482  0.0
O  O81  1  0.26022848  0.73482385  0.32861258  1  -0.290818  -0.510669  -5.8e-05  2.184125  0.0
O  O82  1  0.73977191  0.26517536  0.67138735  1  -0.290827  -0.510678  -5.8e-05  2.18398  0.0
O  O83  1  0.05237977  0.80867764  0.31738607  1  -0.328904  -0.474657  -0.000375  2.368743  -0.001
O  O84  1  0.94762380  0.19132158  0.68261315  1  -0.328926  -0.474689  -0.000375  2.368649  -0.001
O  O85  1  0.60110169  0.47149354  0.14164026  1  -0.30053  -0.507312  0.000159  2.287682  0.0
O  O86  1  0.39890002  0.52850682  0.85836116  1  -0.300521  -0.507236  0.000159  2.287678  0.0
O  O87  1  0.54722683  0.23337452  0.96500104  1  -0.322049  -0.521374  -1.3e-05  2.253301  0.0
O  O88  1  0.45277517  0.76662698  0.03499994  1  -0.322059  -0.521363  -1.3e-05  2.253378  0.0
O  O89  1  0.66305727  0.02668016  0.86325493  1  -0.337844  -0.513982  5e-06  2.340374  0.0
O  O90  1  0.33694338  0.97332021  0.13674642  1  -0.337874  -0.514012  5e-06  2.340379  0.0
O  O91  1  0.88374927  0.98489684  0.87418085  1  -0.28799  -0.48786  -6e-05  2.175198  0.0
O  O92  1  0.11625036  0.01510350  0.12581766  1  -0.287979  -0.48782  -6e-05  2.175052  0.0
