# generated using pymatgen
data_CuH14C18N6Cl
_symmetry_space_group_name_H-M   'P 1'
_cell_length_a   8.02651621
_cell_length_b   8.31798708
_cell_length_c   12.73754926
_cell_angle_alpha   85.42756313
_cell_angle_beta   78.56619702
_cell_angle_gamma   77.17002546
_symmetry_Int_Tables_number   1
_chemical_formula_structural   CuH14C18N6Cl
_chemical_formula_sum   'Cu2 H28 C36 N12 Cl2'
_cell_volume   812.16063245
_cell_formula_units_Z   2
loop_
 _symmetry_equiv_pos_site_id
 _symmetry_equiv_pos_as_xyz
  1  'x, y, z'
loop_
 _atom_site_type_symbol
 _atom_site_label
 _atom_site_symmetry_multiplicity
 _atom_site_fract_x
 _atom_site_fract_y
 _atom_site_fract_z
 _atom_site_occupancy
 _atom_site_hle17_bader_spin_density
 _atom_site_hle17_ddec_charge
 _atom_site_hle17_ddec_spin_density
 _atom_site_hle17_ddec_sum_bond_order
 _atom_site_hle17_magmom
 _atom_site_hse06_10hf_bader_spin_density
 _atom_site_hse06_10hf_ddec_charge
 _atom_site_hse06_10hf_ddec_spin_density
 _atom_site_hse06_10hf_ddec_sum_bond_order
 _atom_site_hse06_10hf_magmom
 _atom_site_hse06_bader_spin_density
 _atom_site_hse06_ddec_charge
 _atom_site_hse06_ddec_spin_density
 _atom_site_hse06_ddec_sum_bond_order
 _atom_site_hse06_magmom
 _atom_site_pbe_bader_spin_density
 _atom_site_pbe_cm5_charge
 _atom_site_pbe_ddec_charge
 _atom_site_pbe_ddec_spin_density
 _atom_site_pbe_ddec_sum_bond_order
 _atom_site_pbe_magmom
Cu  Cu0  1  0.04826079  0.36449226  0.56992772  1  0  0.432887  0  1.774004  0  0  0.309485  0  2.232067  0  0  0.321566  0  2.181489  0  0  0.45177  0.308404  0  2.262769  0
Cu  Cu1  1  0.95174188  0.63550649  0.43007239  1  0  0.433111  0  1.773907  0  0  0.309554  0  2.231852  0  0  0.321616  0  2.18125  0  0  0.451774  0.308487  0  2.262566  0
H  H2  1  0.36457801  0.46472775  0.67137205  1  0  0.111211  0  0.953507  0  0  0.116532  0  1.023727  0  0  0.120032  0  1.019341  0  0  0.126025  0.113948  0  1.026618  0
H  H3  1  0.63542639  0.53527467  0.32863002  1  0  0.111221  0  0.953521  0  0  0.116559  0  1.023736  0  0  0.120059  0  1.019353  0  0  0.126035  0.113976  0  1.026627  0
H  H4  1  0.82087606  0.51254300  0.76246217  1  0  0.112351  0  0.989507  0  0  0.122691  0  1.047706  0  0  0.125024  0  1.047062  0  0  0.106775  0.120832  0  1.048422  0
H  H5  1  0.17912746  0.48745210  0.23752860  1  0  0.112288  0  0.989533  0  0  0.122628  0  1.047735  0  0  0.12496  0  1.047093  0  0  0.106768  0.120786  0  1.048435  0
H  H6  1  0.93772695  0.66125735  0.91547452  1  0  0.107838  0  0.985801  0  0  0.10951  0  1.065141  0  0  0.113343  0  1.061109  0  0  0.116484  0.106924  0  1.067805  0
H  H7  1  0.06226579  0.33874025  0.08452686  1  0  0.107845  0  0.985826  0  0  0.109509  0  1.065158  0  0  0.113338  0  1.061135  0  0  0.116466  0.106899  0  1.067842  0
H  H8  1  0.13862966  0.60375206  0.02178185  1  0  0.090259  0  0.992758  0  0  0.100374  0  1.058679  0  0  0.102621  0  1.059123  0  0  0.098411  0.09866  0  1.058534  0
H  H9  1  0.86135998  0.39625420  0.97821713  1  0  0.09027  0  0.992709  0  0  0.100411  0  1.058613  0  0  0.102659  0  1.059058  0  0  0.098456  0.098697  0  1.058471  0
H  H10  1  0.33054040  0.70093647  0.12154865  1  0  0.110072  0  0.95599  0  0  0.112937  0  1.030131  0  0  0.116633  0  1.027224  0  0  0.105071  0.110061  0  1.032452  0
H  H11  1  0.66944929  0.29906364  0.87844983  1  0  0.11001  0  0.955959  0  0  0.112909  0  1.03007  0  0  0.116603  0  1.027164  0  0  0.105051  0.110031  0  1.032388  0
H  H12  1  0.67254855  0.77285432  0.82380833  1  0  0.090064  0  0.993379  0  0  0.097228  0  1.063382  0  0  0.099263  0  1.063696  0  0  0.100794  0.095601  0  1.063422  0
H  H13  1  0.32744826  0.22714200  0.17619575  1  0  0.090087  0  0.993334  0  0  0.097218  0  1.063384  0  0  0.099254  0  1.063697  0  0  0.100804  0.095595  0  1.063426  0
H  H14  1  0.48722945  0.66625724  0.72318290  1  0  0.110667  0  0.965006  0  0  0.119614  0  1.028833  0  0  0.12258  0  1.027365  0  0  0.101082  0.117104  0  1.030291  0
H  H15  1  0.51276892  0.33373785  0.27681792  1  0  0.110662  0  0.965004  0  0  0.119656  0  1.028796  0  0  0.12262  0  1.027329  0  0  0.101117  0.117145  0  1.03025  0
H  H16  1  0.52386615  0.88399451  0.32324512  1  0  0.10678  0  0.957754  0  0  0.11674  0  1.020236  0  0  0.119271  0  1.019363  0  0  0.107899  0.114652  0  1.021241  0
H  H17  1  0.47614183  0.11600912  0.67675332  1  0  0.106724  0  0.957773  0  0  0.116667  0  1.02029  0  0  0.119204  0  1.019402  0  0  0.107868  0.114581  0  1.021295  0
H  H18  1  0.70715445  0.99850283  0.42378900  1  0  0.103609  0  0.966483  0  0  0.115732  0  1.02535  0  0  0.118249  0  1.024105  0  0  0.10581  0.113566  0  1.026892  0
H  H19  1  0.29285126  0.00149960  0.57620898  1  0  0.103562  0  0.966525  0  0  0.115714  0  1.025342  0  0  0.118269  0  1.024051  0  0  0.105822  0.113549  0  1.026885  0
H  H20  1  0.10020194  0.98389511  0.13750018  1  0  0.106818  0  0.950356  0  0  0.116517  0  1.01374  0  0  0.119696  0  1.011854  0  0  0.107404  0.114161  0  1.015367  0
H  H21  1  0.89980078  0.01609749  0.86249865  1  0  0.106807  0  0.950352  0  0  0.116511  0  1.013746  0  0  0.119691  0  1.011861  0  0  0.107394  0.114156  0  1.015372  0
H  H22  1  0.91255369  0.87953651  0.03721085  1  0  0.093967  0  0.976371  0  0  0.100089  0  1.049341  0  0  0.103255  0  1.046572  0  0  0.101919  0.09778  0  1.051519  0
H  H23  1  0.08744433  0.12047214  0.96278698  1  0  0.093984  0  0.976378  0  0  0.100116  0  1.049337  0  0  0.103282  0  1.046568  0  0  0.101941  0.097808  0  1.051514  0
H  H24  1  0.81567085  0.22192573  0.45683637  1  0  0.103374  0  0.966224  0  0  0.110779  0  1.032159  0  0  0.113452  0  1.029083  0  0  0.123078  0.108609  0  1.034604  0
H  H25  1  0.18432801  0.77807306  0.54316184  1  0  0.103434  0  0.966203  0  0  0.110844  0  1.032119  0  0  0.113517  0  1.029045  0  0  0.123129  0.108672  0  1.034563  0
H  H26  1  0.36041747  0.15464557  0.40354471  1  0  0.107296  0  0.945101  0  0  0.121865  0  0.997759  0  0  0.124006  0  0.997091  0  0  0.120225  0.120297  0  0.998377  0
H  H27  1  0.63957864  0.84537166  0.59646314  1  0  0.107311  0  0.945157  0  0  0.12191  0  0.997768  0  0  0.12405  0  0.997097  0  0  0.120243  0.120341  0  0.99839  0
H  H28  1  0.27538727  0.95379458  0.26532288  1  0  0.120002  0  0.97084  0  0  0.122274  0  1.045864  0  0  0.12583  0  1.042209  0  0  0.121365  0.119855  0  1.048338  0
H  H29  1  0.72462964  0.04620280  0.73467870  1  0  0.119981  0  0.971028  0  0  0.122294  0  1.045994  0  0  0.12585  0  1.042338  0  0  0.121367  0.119876  0  1.048468  0
C  C30  1  0.23127943  0.49805832  0.71511200  1  0  0.167436  0  3.57503  0  0  0.110425  0  3.835046  0  0  0.12403  0  3.846342  0  0  0.143669  0.101688  0  3.827594  0
C  C31  1  0.76872223  0.50193920  0.28488830  1  0  0.167411  0  3.575223  0  0  0.110339  0  3.835217  0  0  0.123939  0  3.846515  0  0  0.143624  0.101599  0  3.827766  0
C  C32  1  0.95028761  0.52455163  0.76901912  1  0  0.008721  0  3.714217  0  0  -0.022193  0  3.963163  0  0  -0.020636  0  3.984275  0  0  -0.005267  -0.023033  0  3.949065  0
C  C33  1  0.04972091  0.47544955  0.23097780  1  0  0.008868  0  3.713813  0  0  -0.02203  0  3.962732  0  0  -0.020473  0  3.983845  0  0  -0.005208  -0.022882  0  3.948621  0
C  C34  1  0.00791874  0.59496804  0.84460917  1  0  -0.076382  0  3.675508  0  0  -0.112385  0  3.937  0  0  -0.112518  0  3.955996  0  0  -0.007698  -0.111515  0  3.923057  0
C  C35  1  0.99207761  0.40503079  0.15538464  1  0  -0.076464  0  3.675322  0  0  -0.112489  0  3.936784  0  0  -0.112625  0  3.955781  0  0  -0.007762  -0.111593  0  3.922865  0
C  C36  1  0.29791476  0.63367304  0.86580877  1  0  0.193441  0  3.750297  0  0  0.185062  0  3.996027  0  0  0.190973  0  4.019131  0  0  0.100323  0.180611  0  3.98074  0
C  C37  1  0.70208327  0.36632942  0.13419565  1  0  0.193559  0  3.750334  0  0  0.185045  0  3.996192  0  0  0.190953  0  4.019297  0  0  0.100351  0.180603  0  3.980898  0
C  C38  1  0.25395832  0.64412396  0.97793820  1  0  -0.142779  0  3.741173  0  0  -0.160292  0  3.987071  0  0  -0.165922  0  4.009993  0  0  -0.092401  -0.156345  0  3.971793  0
C  C39  1  0.74603563  0.35587977  0.02206666  1  0  -0.142893  0  3.741188  0  0  -0.160402  0  3.987132  0  0  -0.166031  0  4.010054  0  0  -0.092487  -0.156469  0  3.971864  0
C  C40  1  0.36044080  0.69890439  0.03422190  1  0  -0.103662  0  3.701917  0  0  -0.122128  0  3.9453  0  0  -0.123376  0  3.967178  0  0  -0.080303  -0.121407  0  3.930796  0
C  C41  1  0.63955241  0.30109689  0.96578081  1  0  -0.103503  0  3.701612  0  0  -0.121981  0  3.944962  0  0  -0.123228  0  3.966842  0  0  -0.080254  -0.121252  0  3.930447  0
C  C42  1  0.51307808  0.74564063  0.97795637  1  0  0.150449  0  3.817671  0  0  0.154988  0  4.067092  0  0  0.152937  0  4.092207  0  0  0.082324  0.156619  0  4.050169  0
C  C43  1  0.48691035  0.25435330  0.02204728  1  0  0.150285  0  3.817887  0  0  0.154821  0  4.067313  0  0  0.152769  0  4.092437  0  0  0.082231  0.15646  0  4.05037  0
C  C44  1  0.55548968  0.73435189  0.86624120  1  0  -0.09764  0  3.715632  0  0  -0.115712  0  3.957867  0  0  -0.117867  0  3.980674  0  0  -0.079295  -0.114434  0  3.942862  0
C  C45  1  0.44450741  0.26564320  0.13376056  1  0  -0.097651  0  3.715628  0  0  -0.11569  0  3.957872  0  0  -0.117839  0  3.980669  0  0  -0.079279  -0.114428  0  3.942887  0
C  C46  1  0.45006942  0.67804084  0.80968625  1  0  -0.137306  0  3.73172  0  0  -0.157129  0  3.980973  0  0  -0.161635  0  4.002867  0  0  -0.089392  -0.154315  0  3.967008  0
C  C47  1  0.54992919  0.32195300  0.19031695  1  0  -0.137308  0  3.731613  0  0  -0.15715  0  3.980885  0  0  -0.161652  0  4.002778  0  0  -0.089453  -0.154336  0  3.966917  0
C  C48  1  0.70341322  0.88095277  0.17372499  1  0  0.149045  0  3.815297  0  0  0.15491  0  4.063152  0  0  0.15295  0  4.088204  0  0  0.08489  0.156445  0  4.046594  0
C  C49  1  0.29659301  0.11904719  0.82627306  1  0  0.149049  0  3.815271  0  0  0.154924  0  4.063116  0  0  0.152965  0  4.088165  0  0  0.084876  0.15645  0  4.046567  0
C  C50  1  0.64741334  0.91275101  0.28304452  1  0  -0.09551  0  3.718746  0  0  -0.116319  0  3.965213  0  0  -0.117582  0  3.985083  0  0  -0.074666  -0.115764  0  3.952843  0
C  C51  1  0.35258881  0.08725021  0.71695396  1  0  -0.095452  0  3.718736  0  0  -0.116246  0  3.965211  0  0  -0.117517  0  3.985112  0  0  -0.074631  -0.115691  0  3.952843  0
C  C52  1  0.75039242  0.97338417  0.33905628  1  0  -0.156528  0  3.761614  0  0  -0.177124  0  4.020237  0  0  -0.179261  0  4.035578  0  0  -0.093749  -0.176447  0  4.011585  0
C  C53  1  0.24961535  0.02661454  0.66094085  1  0  -0.156572  0  3.761585  0  0  -0.17716  0  4.020216  0  0  -0.179329  0  4.035543  0  0  -0.093805  -0.176485  0  4.01156  0
C  C54  1  0.91270958  0.00053208  0.28609140  1  0  0.200986  0  3.753808  0  0  0.189646  0  4.004944  0  0  0.198203  0  4.02335  0  0  0.102721  0.182641  0  3.993799  0
C  C55  1  0.08729646  0.99946298  0.71390220  1  0  0.201207  0  3.753528  0  0  0.189772  0  4.004788  0  0  0.198327  0  4.023203  0  0  0.102822  0.182779  0  3.993622  0
C  C56  1  0.97301478  0.96360687  0.17780274  1  0  -0.131565  0  3.715553  0  0  -0.149764  0  3.966449  0  0  -0.154729  0  3.986251  0  0  -0.085351  -0.146454  0  3.953852  0
C  C57  1  0.02699331  0.03638446  0.82219314  1  0  -0.131549  0  3.715458  0  0  -0.149724  0  3.966362  0  0  -0.15469  0  3.986162  0  0  -0.085326  -0.146422  0  3.953761  0
C  C58  1  0.86866556  0.90490781  0.12184715  1  0  -0.097254  0  3.703342  0  0  -0.119067  0  3.948846  0  0  -0.118885  0  3.969931  0  0  -0.081522  -0.119632  0  3.935021  0
C  C59  1  0.13133358  0.09508976  0.87814874  1  0  -0.097307  0  3.703411  0  0  -0.119165  0  3.948974  0  0  -0.118981  0  3.970056  0  0  -0.08156  -0.119725  0  3.935146  0
C  C60  1  0.95183839  0.17460973  0.42379867  1  0  0.179979  0  3.601224  0  0  0.118499  0  3.860639  0  0  0.132498  0  3.873443  0  0  0.140063  0.109318  0  3.852481  0
C  C61  1  0.04816095  0.82539275  0.57620088  1  0  0.179756  0  3.601389  0  0  0.118277  0  3.86078  0  0  0.132272  0  3.873591  0  0  0.139885  0.109097  0  3.852619  0
C  C62  1  0.23483971  0.13727378  0.39345074  1  0  -0.011691  0  3.731025  0  0  -0.043956  0  3.992421  0  0  -0.043683  0  4.012723  0  0  -0.003208  -0.04402  0  3.978853  0
C  C63  1  0.76514809  0.86273493  0.60655384  1  0  -0.011595  0  3.73096  0  0  -0.043905  0  3.992327  0  0  -0.043627  0  4.012615  0  0  -0.003225  -0.04397  0  3.978767  0
C  C64  1  0.19518110  0.04170496  0.32284590  1  0  -0.052776  0  3.664472  0  0  -0.091913  0  3.92743  0  0  -0.090448  0  3.946825  0  0  0.003939  -0.092479  0  3.913749  0
C  C65  1  0.80482017  0.95830610  0.67715770  1  0  -0.052841  0  3.664616  0  0  -0.092022  0  3.927564  0  0  -0.090556  0  3.946955  0  0  0.003916  -0.092592  0  3.913889  0
N  N66  1  0.08976828  0.46476296  0.68905183  1  0  -0.327994  0  3.430557  0  0  -0.24607  0  3.734602  0  0  -0.261686  0  3.743364  0  0  -0.392456  -0.237296  0  3.729144  0
N  N67  1  0.91023493  0.53523333  0.31094598  1  0  -0.328053  0  3.430527  0  0  -0.246102  0  3.734491  0  0  -0.26171  0  3.743227  0  0  -0.392425  -0.237332  0  3.729057  0
N  N68  1  0.18629649  0.57782272  0.81025109  1  0  -0.090961  0  3.587086  0  0  -0.004908  0  3.800581  0  0  -0.020598  0  3.828045  0  0  -0.225747  0.005937  0  3.781403  0
N  N69  1  0.81370130  0.42218099  0.18975015  1  0  -0.091006  0  3.587459  0  0  -0.004807  0  3.800834  0  0  -0.020496  0  3.828303  0  0  -0.225712  0.006037  0  3.781643  0
N  N70  1  0.63395120  0.79935881  0.02572837  1  0  -0.16595  0  3.013567  0  0  -0.142399  0  3.302495  0  0  -0.139971  0  3.308345  0  0  -0.156316  -0.144789  0  3.299763  0
N  N71  1  0.36603826  0.20063636  0.97427196  1  0  -0.165805  0  3.013591  0  0  -0.142224  0  3.302464  0  0  -0.139795  0  3.308318  0  0  -0.156188  -0.144616  0  3.29972  0
N  N72  1  0.58330879  0.82868666  0.12469367  1  0  -0.15183  0  3.012812  0  0  -0.129321  0  3.302042  0  0  -0.126767  0  3.308144  0  0  -0.151513  -0.132274  0  3.299385  0
N  N73  1  0.41669255  0.17131825  0.87530709  1  0  -0.151869  0  3.012791  0  0  -0.129384  0  3.302038  0  0  -0.12683  0  3.308139  0  0  -0.151549  -0.132336  0  3.299376  0
N  N74  1  0.01501500  0.06732084  0.34237462  1  0  -0.094357  0  3.60046  0  0  -0.004006  0  3.810077  0  0  -0.020615  0  3.837082  0  0  -0.225537  0.007329  0  3.79169  0
N  N75  1  0.98498768  0.93267792  0.65762391  1  0  -0.094306  0  3.60048  0  0  -0.003923  0  3.810099  0  0  -0.020535  0  3.837113  0  0  -0.225502  0.00741  0  3.791707  0
N  N76  1  0.08218614  0.21930299  0.45574932  1  0  -0.329593  0  3.449056  0  0  -0.249808  0  3.759488  0  0  -0.263843  0  3.765174  0  0  -0.397242  -0.24226  0  3.756374  0
N  N77  1  0.91780831  0.78070444  0.54425294  1  0  -0.329692  0  3.449079  0  0  -0.249839  0  3.759365  0  0  -0.263865  0  3.765022  0  0  -0.397194  -0.242291  0  3.756262  0
Cl  Cl78  1  0.71185426  0.39573984  0.61847275  1  0  -0.693507  0  0.725406  0  0  -0.641414  0  0.973829  0  0  -0.6564  0  0.949643  0  0  -0.410373  -0.628585  0  0.989014  0
Cl  Cl79  1  0.28815169  0.60426133  0.38152841  1  0  -0.693534  0  0.725368  0  0  -0.641425  0  0.973752  0  0  -0.656408  0  0.949565  0  0  -0.410388  -0.628605  0  0.988952  0
