# generated using pymatgen
data_Zn8H35C70IO26
_symmetry_space_group_name_H-M   'P 1'
_cell_length_a   18.17682406
_cell_length_b   18.28235170
_cell_length_c   18.43434838
_cell_angle_alpha   90.10092029
_cell_angle_beta   120.14784246
_cell_angle_gamma   119.70909222
_symmetry_Int_Tables_number   1
_chemical_formula_structural   Zn8H35C70IO26
_chemical_formula_sum   'Zn8 H35 C70 I1 O26'
_cell_volume   4337.22614833
_cell_formula_units_Z   1
loop_
 _symmetry_equiv_pos_site_id
 _symmetry_equiv_pos_as_xyz
  1  'x, y, z'
loop_
 _atom_site_type_symbol
 _atom_site_label
 _atom_site_symmetry_multiplicity
 _atom_site_fract_x
 _atom_site_fract_y
 _atom_site_fract_z
 _atom_site_occupancy
 _atom_site_pbe_bader_charge
 _atom_site_pbe_bader_spin_density
 _atom_site_pbe_cm5_charge
 _atom_site_pbe_ddec_charge
 _atom_site_pbe_ddec_spin_density
 _atom_site_pbe_ddec_sum_bond_order
 _atom_site_pbe_magmom
Zn  Zn0  1  0.07859161  0.94573013  0.54549646  1  1.316414  0  0.667143  0.96403  0  2.37823  0
Zn  Zn1  1  0.09312306  0.13296853  0.55125948  1  1.311711  0  0.670922  0.97587  0  2.347135  0
Zn  Zn2  1  0.91446273  0.96059175  0.54859879  1  1.301479  0  0.66907  0.959739  0  2.392402  0
Zn  Zn3  1  0.92053993  0.96134240  0.37593954  1  1.297431  0  0.666953  0.953545  0  2.392372  0
Zn  Zn4  1  0.90627970  0.54205194  0.96122907  1  1.304579  0  0.669704  0.958406  0  2.376001  0
Zn  Zn5  1  0.08267977  0.54460572  0.95921734  1  1.306376  0  0.673407  0.958637  0  2.381816  0
Zn  Zn6  1  0.91491286  0.37094560  0.96417136  1  1.313818  0  0.673309  0.964845  0  2.380557  0
Zn  Zn7  1  0.08797491  0.54872094  0.13622898  1  1.316167  0  0.670826  0.965567  0  2.379148  0
H  H8  1  0.95226594  0.61254818  0.28269572  1  0.076794  0  0.100962  0.086084  0  0.991175  0
H  H9  1  0.40560405  0.75691123  0.29306462  1  0.088233  0  0.110066  0.116091  0  0.986883  0
H  H10  1  0.05603840  0.30729756  0.40326573  1  0.106287  0  0.108614  0.116116  0  0.987598  0
H  H11  1  0.83057079  0.68279826  0.22802273  1  0.043547  0  0.099334  0.084778  0  0.995891  0
H  H12  1  0.00390556  0.05316349  0.25231743  1  0.077901  0  0.095435  0.106712  0  1.041938  0
H  H13  1  0.00092519  0.01446368  0.12289475  1  0.038242  0  0.10018  0.095198  0  0.996915  0
H  H14  1  0.01196709  0.11397623  0.03037226  1  0.050703  0  0.101106  0.096081  0  0.992551  0
H  H15  1  0.02252609  0.24977657  0.06669394  1  0.101854  0  0.100403  0.108562  0  1.027385  0
H  H16  1  0.05744521  0.40264712  0.30608315  1  0.090646  0  0.108642  0.114425  0  0.991388  0
H  H17  1  0.94623624  0.10673170  0.74697204  1  0.099052  0  0.109355  0.114934  0  0.986809  0
H  H18  1  0.00610289  0.26804573  0.55554468  1  0.07707  0  0.100588  0.109525  0  1.023803  0
H  H19  1  0.79560425  0.44583891  0.56242327  1  0.087998  0  0.103604  0.099514  0  0.992169  0
H  H20  1  0.01253627  0.40166817  0.52598263  1  0.048975  0  0.101045  0.096499  0  0.992106  0
H  H21  1  0.00190618  0.49252817  0.61731091  1  0.050845  0  0.101409  0.09844  0  1.000219  0
H  H22  1  0.98817415  0.45085693  0.73846234  1  0.097119  0  0.100151  0.107691  0  1.034974  0
H  H23  1  0.86634854  0.72022850  0.09471654  1  0.075167  0  0.102045  0.092278  0  0.988729  0
H  H24  1  0.94263571  0.20069009  0.84240444  1  0.083075  0  0.108384  0.113704  0  0.990525  0
H  H25  1  0.40629605  0.12060191  0.77901982  1  0.076297  0  0.112435  0.119266  0  0.975572  0
H  H26  1  0.39928808  0.29946717  0.45481857  1  0.10167  0  0.104832  0.114329  0  0.989009  0
H  H27  1  0.58611599  0.42238153  0.56351142  1  0.08067  0  0.107425  0.10636  0  0.98422  0
H  H28  1  0.68400668  0.42048548  0.71591489  1  0.096438  0  0.102481  0.112836  0  1.03049  0
H  H29  1  0.60036326  0.22231677  0.87408949  1  0.096607  0  0.112527  0.119255  0  0.984672  0
H  H30  1  0.88428895  0.51672854  0.72171430  1  0.03472  0  0.100933  0.102312  0  1.017532  0
H  H31  1  0.04538735  0.89337363  0.21839887  1  0.087015  0  0.096968  0.084873  0  0.998311  0
H  H32  1  0.16767537  0.82351109  0.27422308  1  0.065097  0  0.101283  0.089069  0  0.988873  0
H  H33  1  0.13081343  0.78534029  0.40706442  1  0.072927  0  0.103174  0.094935  0  0.985764  0
H  H34  1  0.04849348  0.90198677  0.80522722  1  0.065591  0  0.108612  0.112023  0  0.984947  0
H  H35  1  0.88488422  0.70020960  0.52214376  1  0.067825  0  0.102541  0.109436  0  1.0076  0
H  H36  1  0.79641711  0.53799277  0.46239942  1  0.081908  0  0.102957  0.099452  0  0.99164  0
H  H37  1  0.05269328  0.81060168  0.90605603  1  0.057701  0  0.109064  0.112508  0  0.982559  0
H  H38  1  0.59966562  0.84946746  0.39145556  1  0.080447  0  0.1108  0.117185  0  0.985222  0
H  H39  1  0.69475939  0.73015765  0.24786584  1  0.085618  0  0.098706  0.106403  0  1.029775  0
H  H40  1  0.59785138  0.60150319  0.11684760  1  0.030278  0  0.100289  0.093708  0  0.999206  0
H  H41  1  0.40377481  0.50799631  0.01919392  1  0.077673  0  0.104742  0.10147  0  0.986893  0
H  H42  1  0.30803224  0.54392442  0.05250178  1  0.091131  0  0.101868  0.111981  0  1.022444  0
C  C43  1  0.01364308  0.14648849  0.37211824  1  1.559875  0  0.224451  0.600431  0  4.181636  0
C  C44  1  0.88470038  0.55725578  0.67846660  1  0.003465  0  -0.090684  -0.130987  0  3.98352  0
C  C45  1  0.93555968  0.65043718  0.71499457  1  -0.003318  0  0.001599  0.061961  0  3.950063  0
C  C46  1  0.98747045  0.85635050  0.63927546  1  1.566366  0  0.22992  0.612665  0  4.164636  0
C  C47  1  0.93496269  0.70336699  0.65740792  1  0.002943  0  0.002208  0.061059  0  3.946267  0
C  C48  1  0.97972677  0.79570848  0.69335463  1  0.018987  0  -0.007623  -0.065566  0  3.935092  0
C  C49  1  0.01799372  0.83214874  0.78033793  1  -0.059428  0  -0.083202  -0.097067  0  4.003312  0
C  C50  1  0.02008994  0.78067869  0.83701805  1  0.065125  0  -0.083798  -0.099998  0  4.006563  0
C  C51  1  0.98271076  0.69243726  0.80603394  1  -0.105736  0  -0.007159  -0.063741  0  3.942645  0
C  C52  1  0.61025856  0.68946998  0.20584741  1  0.034492  0  -0.094989  -0.138642  0  3.992455  0
C  C53  1  0.55594555  0.61767593  0.13234309  1  -0.065671  0  -0.093679  -0.083394  0  4.05778  0
C  C54  1  0.92522748  0.73542493  0.16434508  1  -0.025528  0  -0.076764  -0.068314  0  3.640937  0
C  C55  1  0.44630706  0.56489396  0.07709481  1  -0.072825  0  -0.091371  -0.080209  0  4.043837  0
C  C56  1  0.39250653  0.58475816  0.09589912  1  -0.027462  0  -0.092234  -0.13285  0  3.977136  0
C  C57  1  0.44559501  0.65805052  0.17130362  1  0.055124  0  0.002885  0.064974  0  3.929848  0
C  C58  1  0.27453893  0.12386088  0.63248447  1  1.604627  0  0.216785  0.597344  0  4.216167  0
C  C59  1  0.55766333  0.71176101  0.22796329  1  -0.05092  0  0.002373  0.064784  0  3.933412  0
C  C60  1  0.61143340  0.78288447  0.30638593  1  -0.060443  0  -0.007205  -0.069161  0  3.929372  0
C  C61  1  0.55680813  0.79645946  0.33013689  1  0.008392  0  -0.081496  -0.094163  0  4.000151  0
C  C62  1  0.44795545  0.74453599  0.27492259  1  0.00467  0  -0.081034  -0.091657  0  4.000608  0
C  C63  1  0.39263223  0.67838916  0.19565671  1  -0.037847  0  -0.007987  -0.071812  0  3.925682  0
C  C64  1  0.00869223  0.09697233  0.21265649  1  -0.008187  0  -0.096653  -0.137432  0  3.993134  0
C  C65  1  0.02467405  0.83046443  0.23220891  1  -0.065467  0  -0.074175  -0.065079  0  3.629764  0
C  C66  1  0.00664770  0.07515053  0.13978160  1  -0.006039  0  -0.094233  -0.081729  0  4.0516  0
C  C67  1  0.01241817  0.13108453  0.08737711  1  -0.077642  0  -0.093523  -0.081695  0  4.053618  0
C  C68  1  0.01870522  0.20741916  0.10782252  1  -0.046768  0  -0.093957  -0.131332  0  3.984712  0
C  C69  1  0.02064008  0.23217344  0.18227956  1  -0.003167  0  0.00243  0.064619  0  3.927771  0
C  C70  1  0.72707332  0.84744035  0.36505630  1  1.537595  0  0.230886  0.613527  0  4.155223  0
C  C71  1  0.01680006  0.17587545  0.23695679  1  -0.017861  0  0.002297  0.063159  0  3.924565  0
C  C72  1  0.02610275  0.20383207  0.31563250  1  -0.046023  0  -0.007099  -0.065496  0  3.921673  0
C  C73  1  0.04511986  0.28601563  0.34135053  1  0.013401  0  -0.082737  -0.093548  0  3.993827  0
C  C74  1  0.04654854  0.33974522  0.28717607  1  -0.032165  0  -0.081562  -0.090868  0  3.998896  0
C  C75  1  0.03054605  0.31257676  0.20732449  1  0.004391  0  -0.008751  -0.07292  0  3.92291  0
C  C76  1  0.09288160  0.79295805  0.26456680  1  -0.005788  0  -0.071709  -0.063204  0  3.626149  0
C  C77  1  0.00162091  0.30733699  0.59557179  1  -0.011342  0  -0.093009  -0.132924  0  3.982657  0
C  C78  1  0.00558517  0.38233495  0.57935871  1  -0.05255  0  -0.092987  -0.083233  0  4.051123  0
C  C79  1  0.99994116  0.43378873  0.63097942  1  0.003775  0  -0.091958  -0.079406  0  4.038857  0
C  C80  1  0.99144672  0.41009167  0.69870798  1  -0.091178  0  -0.092462  -0.130919  0  3.97577  0
C  C81  1  0.98692769  0.33316473  0.71758465  1  0.033004  0  0.001643  0.062042  0  3.935515  0
C  C82  1  0.98960621  0.14234467  0.63069731  1  1.558447  0  0.230551  0.612082  0  4.155393  0
C  C83  1  0.99130312  0.27997033  0.66398643  1  -0.008862  0  0.002093  0.061798  0  3.938513  0
C  C84  1  0.97980545  0.19925100  0.67875152  1  -0.035991  0  -0.00665  -0.066419  0  3.927323  0
C  C85  1  0.95860027  0.17015356  0.73955209  1  -0.0295  0  -0.083266  -0.096664  0  4.001213  0
C  C86  1  0.95608209  0.22259060  0.79272985  1  -0.023944  0  -0.082471  -0.092779  0  4.001747  0
C  C87  1  0.07260034  0.77054901  0.33736001  1  -0.01145  0  -0.076669  -0.067008  0  3.642122  0
C  C88  1  0.97348520  0.30405827  0.78481366  1  -0.023544  0  -0.009384  -0.07237  0  3.930344  0
C  C89  1  0.38844251  0.23578188  0.55000737  1  -0.241861  0  -0.041515  0.01892  0  3.860036  0
C  C90  1  0.44010022  0.30185232  0.52372594  1  -0.013783  0  -0.096528  -0.120334  0  4.024825  0
C  C91  1  0.54642352  0.37045116  0.58506153  1  -0.021195  0  -0.087628  -0.06382  0  4.030644  0
C  C92  1  0.60098325  0.36965182  0.67016453  1  -0.022565  0  -0.09095  -0.133939  0  3.97724  0
C  C93  1  0.55031524  0.30321607  0.69967841  1  -0.005041  0  0.00732  0.078013  0  3.919679  0
C  C94  1  0.00669951  0.86605547  0.36405532  1  1.535624  0  0.220455  0.597787  0  4.190724  0
C  C95  1  0.43897907  0.23671401  0.63987276  1  0.035717  0  -0.000604  0.024012  0  3.917219  0
C  C96  1  0.38882201  0.17556845  0.67404140  1  -0.060551  0  -0.007492  -0.049361  0  3.923415  0
C  C97  1  0.44669721  0.16959215  0.75587643  1  0.011155  0  -0.080692  -0.09178  0  3.982658  0
C  C98  1  0.00596448  0.80892779  0.30629204  1  0.007304  0  -0.008926  -0.034026  0  3.659246  0
C  C99  1  0.55533156  0.22798864  0.81015464  1  0.016896  0  -0.07819  -0.086352  0  3.997625  0
C  C100  1  0.60649286  0.29663865  0.78551373  1  -0.038301  0  -0.007711  -0.072577  0  3.921181  0
C  C101  1  0.27732516  0.63155157  0.13860700  1  1.522464  0  0.231408  0.613076  0  4.152714  0
C  C102  1  0.72141471  0.36047094  0.85313019  1  1.539845  0  0.231138  0.611404  0  4.152212  0
C  C103  1  0.99321924  0.64164984  0.86975778  1  1.56674  0  0.230797  0.615454  0  4.170378  0
C  C104  1  0.01936736  0.36832812  0.14865798  1  1.517806  0  0.230722  0.611898  0  4.151337  0
C  C105  1  0.98214604  0.36026310  0.85155216  1  1.554582  0  0.228117  0.607179  0  4.16512  0
C  C106  1  0.90515352  0.71309012  0.23722125  1  -0.000184  0  -0.068592  -0.056539  0  3.617612  0
C  C107  1  0.98985654  0.63654883  0.13988390  1  1.559352  0  0.227312  0.607691  0  4.172196  0
C  C108  1  0.97320476  0.67576755  0.26956378  1  -0.038773  0  -0.069027  -0.060572  0  3.62558  0
C  C109  1  0.88486743  0.66053382  0.56614192  1  -0.050847  0  -0.0891  -0.126256  0  3.977414  0
C  C110  1  0.99298242  0.69801341  0.19557629  1  0.002488  0  -0.008538  -0.031929  0  3.653274  0
C  C111  1  0.83571743  0.56982317  0.53287469  1  -0.005442  0  -0.093945  -0.089139  0  4.051141  0
C  C112  1  0.83516157  0.51761831  0.58932345  1  -0.087966  0  -0.092336  -0.084832  0  4.049583  0
I  I113  1  0.23806739  0.12588852  0.44391777  1  0.105979  0  0.093721  -0.025769  0  1.552836  0
O  O114  1  0.00307351  0.00181921  0.50616175  1  -1.204564  0  -0.57379  -1.032219  0  2.54786  0
O  O115  1  0.95817555  0.32783688  0.06462476  1  -1.15735  0  -0.31084  -0.543343  0  2.362496  0
O  O116  1  0.04894179  0.44444206  0.87921130  1  -1.173006  0  -0.310988  -0.541792  0  2.362101  0
O  O117  1  0.94544688  0.06253879  0.33188751  1  -1.179381  0  -0.312771  -0.539762  0  2.365945  0
O  O118  1  0.06361430  0.62621275  0.18036090  1  -1.179501  0  -0.320173  -0.552828  0  2.315103  0
O  O119  1  0.92460490  0.31930367  0.87815420  1  -1.168781  0  -0.316473  -0.549116  0  2.322947  0
O  O120  1  0.91420951  0.59865177  0.05740630  1  -1.171148  0  -0.31785  -0.54651  0  2.314766  0
O  O121  1  0.95294043  0.63683672  0.91113550  1  -1.167742  0  -0.315857  -0.546188  0  2.303683  0
O  O122  1  0.06892494  0.45168496  0.18716880  1  -1.167301  0  -0.3153  -0.549304  0  2.33208  0
O  O123  1  0.23093260  0.61007928  0.05425815  1  -1.148872  0  -0.310155  -0.540472  0  2.349629  0
O  O124  1  0.76759974  0.32611722  0.89924923  1  -1.173856  0  -0.315925  -0.550253  0  2.332718  0
O  O125  1  0.22767941  0.04087322  0.62294917  1  -1.175017  0  -0.319926  -0.554171  0  2.350161  0
O  O126  1  0.02977725  0.85811384  0.60053488  1  -1.161762  0  -0.309613  -0.541461  0  2.325341  0
O  O127  1  0.23775742  0.17034920  0.61832992  1  -1.172645  0  -0.3149  -0.542239  0  2.349347  0
O  O128  1  0.76904754  0.87300604  0.44843536  1  -1.158593  0  -0.314928  -0.547185  0  2.332964  0
O  O129  1  0.06252694  0.18135691  0.62006364  1  -1.169692  0  -0.309101  -0.541216  0  2.332753  0
O  O130  1  0.96034242  0.90337170  0.32646128  1  -1.1774  0  -0.32193  -0.553637  0  2.315961  0
O  O131  1  0.92459079  0.05811547  0.60632766  1  -1.16278  0  -0.314892  -0.543754  0  2.332502  0
O  O132  1  0.05109468  0.87156446  0.44575752  1  -1.174074  0  -0.315117  -0.546512  0  2.333174  0
O  O133  1  0.77374722  0.87376933  0.32716982  1  -1.169849  0  -0.310371  -0.540725  0  2.353099  0
O  O134  1  0.06968380  0.18630499  0.45580312  1  -1.172135  0  -0.315573  -0.554523  0  2.346606  0
O  O135  1  0.95325897  0.90306473  0.63791451  1  -1.165769  0  -0.314946  -0.545561  0  2.308048  0
O  O136  1  0.99818014  0.50176639  0.00560329  1  -1.218441  0  -0.574802  -1.034123  0  2.553916  0
O  O137  1  0.23482408  0.61907736  0.17947272  1  -1.164438  0  -0.315018  -0.549092  0  2.337843  0
O  O138  1  0.76429308  0.44353178  0.86209839  1  -1.17317  0  -0.309263  -0.541208  0  2.33242  0
O  O139  1  0.04297440  0.60816596  0.87780920  1  -1.161306  0  -0.310645  -0.543546  0  2.328837  0
