# generated using pymatgen
data_KCuH13C17SN2O3
_symmetry_space_group_name_H-M   'P 1'
_cell_length_a   8.25671298
_cell_length_b   9.45451633
_cell_length_c   11.89325545
_cell_angle_alpha   74.89851754
_cell_angle_beta   83.20560642
_cell_angle_gamma   71.15829645
_symmetry_Int_Tables_number   1
_chemical_formula_structural   KCuH13C17SN2O3
_chemical_formula_sum   'K2 Cu2 H26 C34 S2 N4 O6'
_cell_volume   847.73809975
_cell_formula_units_Z   2
loop_
 _symmetry_equiv_pos_site_id
 _symmetry_equiv_pos_as_xyz
  1  'x, y, z'
loop_
 _atom_site_type_symbol
 _atom_site_label
 _atom_site_symmetry_multiplicity
 _atom_site_fract_x
 _atom_site_fract_y
 _atom_site_fract_z
 _atom_site_occupancy
 _atom_site_hle17_ddec_charge
 _atom_site_hle17_ddec_spin_density
 _atom_site_hle17_ddec_sum_bond_order
 _atom_site_hle17_magmom
 _atom_site_hse06_10hf_ddec_charge
 _atom_site_hse06_10hf_ddec_spin_density
 _atom_site_hse06_10hf_ddec_sum_bond_order
 _atom_site_hse06_10hf_magmom
 _atom_site_hse06_ddec_charge
 _atom_site_hse06_ddec_spin_density
 _atom_site_hse06_ddec_sum_bond_order
 _atom_site_hse06_magmom
 _atom_site_pbe_cm5_charge
 _atom_site_pbe_ddec_charge
 _atom_site_pbe_ddec_spin_density
 _atom_site_pbe_ddec_sum_bond_order
 _atom_site_pbe_magmom
K  K0  1  0.60494350  0.68836434  0.93136287  1  0.922244  0.000463  0.442913  0.0  0.866196  0.000992  0.634695  0.0  0.879466  0.000527  0.617425  0.0  0.708363  0.856398  0.001061  0.647242  0.001
K  K1  1  0.39504962  0.31162734  0.06864049  1  0.92225  0.000479  0.442869  0.0  0.866209  0.00099  0.634642  0.0  0.879478  0.000529  0.617372  0.0  0.708315  0.856407  0.001061  0.64718  0.001
Cu  Cu2  1  0.18584502  0.04297136  0.05924941  1  0.846475  0.66203  1.963652  0.479  0.82266  0.752023  2.392698  0.592  0.916192  0.820473  2.30955  0.679  0.739277  0.768457  0.703218  2.445657  0.536
Cu  Cu3  1  0.81415631  0.95702841  0.94074656  1  0.846506  0.662033  1.963666  0.479  0.822644  0.752014  2.392773  0.592  0.916153  0.820461  2.309667  0.679  0.739308  0.768464  0.703233  2.445712  0.536
H  H4  1  0.98745105  0.74125585  0.16835503  1  0.084816  0.001843  0.918263  0.002  0.095178  0.001312  0.980979  0.001  0.095408  0.000942  0.981398  0.001  0.118933  0.094897  0.001521  0.980875  0.002
H  H5  1  0.01255064  0.25874279  0.83165040  1  0.084818  0.001843  0.918309  0.002  0.095203  0.001311  0.980987  0.001  0.095432  0.000942  0.981408  0.001  0.118943  0.094927  0.00152  0.980883  0.002
H  H6  1  0.82613460  0.94470535  0.27292169  1  0.075819  0.008767  0.950843  0.012  0.087205  0.00556  1.013605  0.007  0.086194  0.004006  1.012971  0.005  0.117515  0.08728  0.006751  1.014528  0.008
H  H7  1  0.17386350  0.05530018  0.72708260  1  0.075794  0.008766  0.950929  0.012  0.087193  0.00556  1.013667  0.007  0.086183  0.004006  1.013033  0.005  0.117519  0.08727  0.006751  1.014591  0.008
H  H8  1  0.92598627  0.51943169  0.11366690  1  0.116251  -0.000205  0.951512  -0.001  0.125639  0.000292  1.013327  0.0  0.130211  0.000148  1.010599  0.0  0.109897  0.122374  0.000291  1.015405  0.0
H  H9  1  0.07401710  0.48056925  0.88632951  1  0.116217  -0.000206  0.951448  -0.001  0.125601  0.000292  1.013283  0.0  0.130174  0.000148  1.010553  0.0  0.109893  0.122338  0.000291  1.015362  0.0
H  H10  1  0.65901565  0.60406744  0.23099801  1  0.085444  0.000687  0.966365  0.001  0.096731  0.000324  1.027093  0.0  0.097737  0.000187  1.026692  0.0  0.101192  0.095861  0.000511  1.027747  0.001
H  H11  1  0.34098853  0.39593466  0.76899977  1  0.085452  0.000686  0.966366  0.001  0.09673  0.000324  1.027103  0.0  0.097737  0.000187  1.026699  0.0  0.101195  0.095863  0.000511  1.027758  0.001
H  H12  1  0.51385229  0.41461409  0.34540119  1  0.087543  -1.3e-05  0.974314  0.0  0.098322  2.8e-05  1.0373  0.0  0.100744  2.2e-05  1.03727  0.0  0.097446  0.096544  2.3e-05  1.037527  0.0
H  H13  1  0.48615028  0.58538915  0.65459565  1  0.087493  -1.6e-05  0.97433  0.0  0.098273  2.9e-05  1.03733  0.0  0.100695  2.2e-05  1.0373  0.0  0.097419  0.096496  2.3e-05  1.037558  0.0
H  H14  1  0.63862137  0.13803433  0.33777030  1  0.082961  0.000508  0.98003  0.0  0.091116  0.000311  1.048302  0.0  0.093299  0.000199  1.047041  0.0  0.097398  0.089583  0.000424  1.049379  0.0
H  H15  1  0.36137998  0.86196891  0.66222916  1  0.083027  0.000508  0.980089  0.0  0.091172  0.000311  1.048367  0.0  0.093357  0.000199  1.047105  0.0  0.0974  0.089636  0.000424  1.049449  0.0
H  H16  1  0.20907997  0.56314964  0.30513555  1  0.092408  0.000737  0.944813  0.001  0.108442  0.000415  1.009684  0.001  0.109624  0.00024  1.009615  0.0  0.101756  0.107496  0.00058  1.009681  0.001
H  H17  1  0.79092171  0.43684901  0.69487240  1  0.092455  0.000737  0.944759  0.001  0.108436  0.000415  1.00967  0.001  0.109616  0.00024  1.009605  0.0  0.101777  0.107495  0.00058  1.009669  0.001
H  H18  1  0.26975082  0.71939223  0.32472417  1  0.084914  0.000149  0.943899  0.0  0.101115  0.000151  1.006275  0.0  0.102278  9.6e-05  1.00595  0.0  0.090011  0.100105  0.000209  1.006706  0.0
H  H19  1  0.73024724  0.28060985  0.67528251  1  0.084897  0.000149  0.94395  0.0  0.101071  0.000151  1.00633  0.0  0.102239  9.6e-05  1.006  0.0  0.09005  0.100072  0.000209  1.006754  0.0
H  H20  1  0.13290372  0.83446425  0.48272566  1  0.089458  -3.8e-05  0.958907  0.0  0.100407  -1.2e-05  1.021365  0.0  0.102649  -1e-05  1.021547  0.0  0.095307  0.098927  -1.6e-05  1.021087  0.0
H  H21  1  0.86708948  0.16553781  0.51727890  1  0.089409  -3.7e-05  0.958986  0.0  0.100351  -1.2e-05  1.021448  0.0  0.102594  -1e-05  1.021631  0.0  0.09526  0.098873  -1.6e-05  1.021172  0.0
H  H22  1  0.89186432  0.88636789  0.62705836  1  0.084347  -4.1e-05  0.969926  0.0  0.094577  -2.2e-05  1.032667  0.0  0.096567  -2e-05  1.032722  0.0  0.093842  0.093319  -2e-05  1.032314  0.0
H  H23  1  0.10812889  0.11363416  0.37294368  1  0.08435  -4.3e-05  0.969839  0.0  0.09459  -2.2e-05  1.032572  0.0  0.096584  -2e-05  1.032623  0.0  0.093835  0.093329  -2.1e-05  1.032214  0.0
H  H24  1  0.64128298  0.79566383  0.62616117  1  0.069798  0.000194  0.998846  0.0  0.080348  0.000161  1.065734  0.0  0.082937  0.000114  1.064556  0.0  0.090444  0.078516  0.000204  1.066632  0.0
H  H25  1  0.35870942  0.20433706  0.37383950  1  0.069764  0.00019  0.998809  0.0  0.080308  0.000161  1.065733  0.0  0.082897  0.000114  1.064563  0.0  0.090409  0.078475  0.000204  1.066628  0.0
H  H26  1  0.63768279  0.64387005  0.48292141  1  0.078624  2.8e-05  0.953285  0.0  0.092758  2.6e-05  1.00932  0.0  0.095373  1.5e-05  1.008173  0.0  0.095666  0.090957  3e-05  1.010074  0.0
H  H27  1  0.36231125  0.35613316  0.51707780  1  0.07865  2.9e-05  0.953255  0.0  0.092757  2.5e-05  1.00932  0.0  0.095372  1.5e-05  1.008174  0.0  0.095666  0.090959  3e-05  1.010072  0.0
H  H28  1  0.88211099  0.58610799  0.34326945  1  0.089768  -8.9e-05  0.971836  0.0  0.101943  -1.7e-05  1.03471  0.0  0.103776  -1.9e-05  1.035748  0.0  0.097449  0.100741  -2.4e-05  1.033977  0.0
H  H29  1  0.11788548  0.41389522  0.65673124  1  0.089693  -8.8e-05  0.971886  0.0  0.101856  -1.7e-05  1.034776  0.0  0.103689  -1.9e-05  1.035814  0.0  0.097423  0.100657  -2.4e-05  1.034052  0.0
C  C30  1  0.41561307  0.09400743  0.85144190  1  0.306004  0.00219  4.052604  0.006  0.297831  0.006797  4.360517  0.01  0.324834  0.00533  4.373125  0.009  0.151871  0.279815  0.008349  4.352474  0.011
C  C31  1  0.58439355  0.90598775  0.14854367  1  0.305584  0.002189  4.052959  0.006  0.297402  0.006801  4.360899  0.01  0.324406  0.005339  4.37351  0.009  0.151615  0.279386  0.008355  4.352845  0.011
C  C32  1  0.24008152  0.72878032  0.09477643  1  0.65997  -0.005755  3.84359  -0.005  0.617484  -0.000903  4.142488  -0.001  0.652484  -0.001157  4.135846  -0.001  0.204285  0.593539  -0.000712  4.146258  -0.001
C  C33  1  0.75992058  0.27121716  0.90522584  1  0.659834  -0.005756  3.843768  -0.005  0.617338  -0.000902  4.142685  -0.001  0.652337  -0.001157  4.136048  -0.001  0.204252  0.593386  -0.000712  4.146454  -0.001
C  C34  1  0.09687828  0.77503332  0.18474230  1  0.006748  0.003549  3.634971  0.003  -0.008477  0.002895  3.879372  0.002  -0.008006  0.001492  3.894353  0.001  0.006553  -0.00851  0.003865  3.869844  0.003
C  C35  1  0.90312341  0.22496532  0.81526229  1  0.006692  0.003548  3.635207  0.003  -0.008591  0.002896  3.879639  0.002  -0.008119  0.001492  3.894619  0.001  0.00654  -0.008623  0.003864  3.870113  0.003
C  C36  1  0.90752209  0.01213719  0.22211502  1  0.181545  -0.026713  3.685073  -0.018  0.138241  -0.009031  3.949373  -0.005  0.160964  -0.011748  3.962235  -0.007  0.079164  0.123243  -0.006658  3.941938  -0.004
C  C37  1  0.09247922  0.98786259  0.77788684  1  0.181643  -0.026704  3.685199  -0.018  0.138342  -0.009032  3.94947  -0.005  0.16107  -0.011748  3.962319  -0.007  0.079236  0.123344  -0.006659  3.942039  -0.004
C  C38  1  0.84919299  0.17272472  0.22066976  1  -0.112371  0.007725  3.78649  0.01  -0.092386  0.00327  4.021352  0.005  -0.10906  0.002101  4.048372  0.004  -0.031553  -0.081375  0.004491  4.003034  0.007
C  C39  1  0.15080997  0.82727738  0.77933064  1  -0.11256  0.007717  3.786696  0.01  -0.09258  0.003275  4.021555  0.005  -0.109256  0.002101  4.048572  0.004  -0.031628  -0.081566  0.004491  4.003235  0.007
C  C40  1  0.93528009  0.28072783  0.15634153  1  0.361663  -0.009123  3.817151  -0.009  0.354319  -0.001159  4.070906  -0.002  0.37755  -0.002438  4.084718  -0.002  0.100368  0.339572  0.000313  4.060445  -0.001
C  C41  1  0.06472166  0.71927426  0.84365561  1  0.361696  -0.009121  3.817295  -0.009  0.354383  -0.001163  4.070984  -0.002  0.377615  -0.002439  4.084792  -0.002  0.100418  0.339636  0.000311  4.060519  -0.001
C  C42  1  0.86209477  0.43671105  0.16356719  1  -0.219193  0.013942  3.710908  0.015  -0.235839  0.007292  3.961581  0.009  -0.245245  0.005284  3.977586  0.007  -0.106235  -0.229449  0.008759  3.950394  0.01
C  C43  1  0.13790981  0.56328990  0.83642996  1  -0.219091  0.013947  3.710894  0.015  -0.235743  0.007294  3.961556  0.009  -0.245149  0.005285  3.977563  0.007  -0.106174  -0.229352  0.00876  3.950369  0.01
C  C44  1  0.71317547  0.48294424  0.22939424  1  -0.025466  -0.007717  3.793498  -0.004  -0.041438  -0.001741  4.045191  0.0  -0.035721  -0.002364  4.063891  -0.001  -0.082931  -0.046063  -0.001339  4.033491  0.0
C  C45  1  0.28682994  0.51705786  0.77060260  1  -0.025447  -0.007718  3.793596  -0.004  -0.041414  -0.001741  4.045294  0.0  -0.035696  -0.002365  4.06399  -0.001  -0.082926  -0.046039  -0.001339  4.033595  0.0
C  C46  1  0.63030343  0.37650914  0.29360924  1  -0.128512  0.001576  3.823518  0.002  -0.144704  -0.000513  4.081341  0.0  -0.152502  -0.00022  4.104842  0.0  -0.111818  -0.139741  -0.000778  4.066472  0.0
C  C47  1  0.36969832  0.62349294  0.70638874  1  -0.128477  0.001583  3.823533  0.002  -0.144681  -0.000515  4.081373  0.0  -0.15248  -0.000218  4.104876  0.0  -0.111802  -0.139715  -0.000778  4.066504  0.0
C  C48  1  0.69898912  0.22397106  0.28883550  1  -0.09688  -0.008058  3.8065  -0.005  -0.117545  -0.00235  4.056039  -0.001  -0.113692  -0.002678  4.078199  -0.002  -0.089671  -0.120624  -0.002082  4.041941  -0.001
C  C49  1  0.30101427  0.77603334  0.71116271  1  -0.096953  -0.008059  3.80651  -0.005  -0.117632  -0.002352  4.056062  -0.001  -0.113781  -0.002681  4.078223  -0.002  -0.089715  -0.120705  -0.002082  4.041972  -0.001
C  C50  1  0.16123446  0.68494356  0.30831435  1  -0.183483  0.001491  3.678335  0.001  -0.23076  0.001002  3.914683  0.001  -0.231891  0.000785  3.926747  0.001  -0.154462  -0.229523  0.001192  3.905952  0.001
C  C51  1  0.83876562  0.31505622  0.69169181  1  -0.183477  0.00149  3.678456  0.001  -0.230582  0.001  3.914599  0.001  -0.231719  0.000785  3.92666  0.001  -0.15448  -0.229343  0.001192  3.905868  0.001
C  C52  1  0.02264820  0.70908971  0.40162941  1  0.09035  0.000303  3.765124  0.0  0.115811  0.000113  3.994343  0.0  0.116101  1.8e-05  4.01864  0.0  -0.015499  0.115756  0.000274  3.977234  0.0
C  C53  1  0.97734740  0.29090890  0.59837651  1  0.090395  0.000306  3.765089  0.0  0.1158  0.000114  3.994333  0.0  0.116096  1.6e-05  4.018619  0.0  -0.015543  0.115737  0.000274  3.977235  0.0
C  C54  1  0.02452754  0.79222396  0.48287874  1  -0.123736  0.000139  3.735482  0.0  -0.142393  -2.4e-05  3.977325  0.0  -0.146401  -0.000133  4.000487  0.0  -0.095509  -0.139533  4.2e-05  3.960903  0.0
C  C55  1  0.97546766  0.20777580  0.51712614  1  -0.123722  0.000137  3.735523  0.0  -0.142366  -2.4e-05  3.977365  0.0  -0.146375  -0.000131  4.000525  0.0  -0.095464  -0.139505  4.2e-05  3.960943  0.0
C  C56  1  0.88843586  0.82185561  0.56410035  1  -0.067129  -0.000164  3.7853  0.0  -0.076741  4e-05  4.029798  0.0  -0.078148  4.1e-05  4.052947  0.0  -0.096325  -0.075596  6.2e-05  4.013711  0.0
C  C57  1  0.11155731  0.17814299  0.43590325  1  -0.067118  -0.000163  3.785093  0.0  -0.076741  4.1e-05  4.029573  0.0  -0.078149  3.9e-05  4.052723  0.0  -0.09629  -0.075595  6.1e-05  4.013472  0.0
C  C58  1  0.74847189  0.76970462  0.56409724  1  -0.090819  0.000469  3.79623  0.0  -0.103509  8.3e-05  4.0402  0.0  -0.106242  -5e-06  4.062049  0.0  -0.099262  -0.101781  0.000162  4.025431  0.0
C  C59  1  0.25152171  0.23029628  0.43590585  1  -0.090805  0.000481  3.796286  0.0  -0.103489  8.3e-05  4.040222  0.0  -0.106229  -2e-06  4.062077  0.0  -0.099231  -0.101762  0.000162  4.025439  0.0
C  C60  1  0.74640112  0.68511911  0.48402751  1  -0.06609  -0.000291  3.811066  0.0  -0.078962  0.000111  4.062431  0.0  -0.080428  8.8e-05  4.084566  0.0  -0.095039  -0.077693  0.000164  4.046837  0.0
C  C61  1  0.25359128  0.31488179  0.51597316  1  -0.066145  -0.000301  3.811228  0.0  -0.079013  0.000111  4.062606  0.0  -0.080479  8.6e-05  4.084743  0.0  -0.095058  -0.077743  0.000164  4.047012  0.0
C  C62  1  0.88320714  0.65397884  0.40442836  1  -0.121105  0.000731  3.73537  0.001  -0.141881  0.000167  3.981032  0.0  -0.14562  1.4e-05  4.004079  0.0  -0.09531  -0.138897  0.000367  3.964794  0.0
C  C63  1  0.11679094  0.34602323  0.59557328  1  -0.121013  0.000727  3.73523  0.001  -0.141763  0.000166  3.980889  0.0  -0.145502  1.7e-05  4.003932  0.0  -0.095283  -0.138787  0.000367  3.964662  0.0
S  S64  1  0.55173399  0.04598467  0.74868303  1  -0.357733  0.022122  2.067391  0.024  -0.34765  0.00854  2.375923  0.011  -0.36253  0.004  2.367494  0.007  -0.135566  -0.337682  0.012856  2.382257  0.014
S  S65  1  0.44827582  0.95400476  0.25130263  1  -0.357469  0.022125  2.067549  0.024  -0.347383  0.008545  2.376097  0.011  -0.362263  0.004004  2.367669  0.007  -0.135425  -0.337422  0.012861  2.382423  0.014
N  N66  1  0.31550782  0.13178920  0.92717469  1  -0.59377  0.030357  3.009417  0.036  -0.56526  0.022289  3.326985  0.027  -0.593629  0.018094  3.323923  0.025  -0.497993  -0.548235  0.024863  3.329804  0.028
N  N67  1  0.68449754  0.86819905  0.07280569  1  -0.593557  0.030364  3.009529  0.036  -0.565035  0.022287  3.32709  0.027  -0.593402  0.018084  3.324037  0.025  -0.497928  -0.548017  0.024863  3.329897  0.028
N  N68  1  0.04591446  0.94171137  0.17000226  1  -0.37184  0.103998  3.3268  0.132  -0.332995  0.067495  3.659384  0.091  -0.372301  0.055338  3.678922  0.081  -0.39058  -0.311427  0.073815  3.650133  0.095
N  N69  1  0.95408684  0.05828842  0.83000128  1  -0.371824  0.103988  3.32684  0.132  -0.332972  0.067488  3.659419  0.091  -0.372276  0.055334  3.678964  0.081  -0.390594  -0.31141  0.073804  3.650174  0.095
O  O70  1  0.29392097  0.83734817  0.02712947  1  -0.651987  0.075804  2.104772  0.103  -0.610437  0.056476  2.387459  0.084  -0.655802  0.044704  2.382581  0.072  -0.385863  -0.58104  0.063655  2.391171  0.09
O  O71  1  0.70607792  0.16265160  0.97287007  1  -0.651961  0.075801  2.104784  0.103  -0.610417  0.056475  2.387494  0.084  -0.655778  0.044704  2.382625  0.072  -0.385859  -0.581022  0.063657  2.391199  0.09
O  O72  1  0.30233774  0.59110473  0.09061321  1  -0.673585  0.014658  1.940721  0.018  -0.630914  0.008753  2.175517  0.012  -0.655584  0.00451  2.167023  0.006  -0.433398  -0.611969  0.013876  2.180162  0.018
O  O73  1  0.69766882  0.40889393  0.90939182  1  -0.673521  0.014658  1.940787  0.018  -0.630826  0.008752  2.175551  0.012  -0.655495  0.004511  2.16706  0.006  -0.433423  -0.611878  0.013874  2.180198  0.018
O  O74  1  0.07521773  0.24486262  0.09104032  1  -0.613483  0.103735  2.118651  0.139  -0.584453  0.06886  2.412686  0.101  -0.631604  0.052027  2.409142  0.084  -0.379687  -0.554273  0.079697  2.415381  0.111
O  O75  1  0.92478521  0.75513602  0.90895660  1  -0.613447  0.103739  2.118748  0.139  -0.584408  0.068863  2.412755  0.101  -0.631558  0.052034  2.409224  0.084  -0.379683  -0.554232  0.079699  2.415447  0.111
