# generated using pymatgen
data_CdH12(C2O)7
_symmetry_space_group_name_H-M   'P 1'
_cell_length_a   5.74536555
_cell_length_b   7.71489541
_cell_length_c   16.23042665
_cell_angle_alpha   103.71366230
_cell_angle_beta   100.23739509
_cell_angle_gamma   89.98093569
_symmetry_Int_Tables_number   1
_chemical_formula_structural   CdH12(C2O)7
_chemical_formula_sum   'Cd2 H24 C28 O14'
_cell_volume   687.11898108
_cell_formula_units_Z   2
loop_
 _symmetry_equiv_pos_site_id
 _symmetry_equiv_pos_as_xyz
  1  'x, y, z'
loop_
 _atom_site_type_symbol
 _atom_site_label
 _atom_site_symmetry_multiplicity
 _atom_site_fract_x
 _atom_site_fract_y
 _atom_site_fract_z
 _atom_site_occupancy
 _atom_site_hle17_bader_spin_density
 _atom_site_hle17_ddec_charge
 _atom_site_hle17_ddec_spin_density
 _atom_site_hle17_ddec_sum_bond_order
 _atom_site_hle17_magmom
 _atom_site_hse06_10hf_bader_spin_density
 _atom_site_hse06_10hf_ddec_charge
 _atom_site_hse06_10hf_ddec_spin_density
 _atom_site_hse06_10hf_ddec_sum_bond_order
 _atom_site_hse06_10hf_magmom
 _atom_site_hse06_bader_spin_density
 _atom_site_hse06_ddec_charge
 _atom_site_hse06_ddec_spin_density
 _atom_site_hse06_ddec_sum_bond_order
 _atom_site_hse06_magmom
 _atom_site_pbe_bader_spin_density
 _atom_site_pbe_cm5_charge
 _atom_site_pbe_ddec_charge
 _atom_site_pbe_ddec_spin_density
 _atom_site_pbe_ddec_sum_bond_order
 _atom_site_pbe_magmom
Cd  Cd0  1  0.92856499  0.80831891  0.50006134  1  0  1.235368  0  1.566169  0  0  1.066178  0  1.992848  0  0  1.125384  0  1.934181  0  0  0.761082  1.023888  0  2.033132  0
Cd  Cd1  1  0.42820326  0.19223176  0.50009299  1  0  1.235208  0  1.565669  0  0  1.065912  0  1.991992  0  0  1.125155  0  1.933368  0  0  0.761034  1.023588  0  2.032246  0
H  H2  1  0.43801084  0.73212139  0.71655441  1  0  0.105176  0  0.940781  0  0  0.11375  0  1.002112  0  0  0.116887  0  0.999933  0  0  0.105368  0.1115  0  1.003697  0
H  H3  1  0.71892805  0.26697059  0.28274369  1  0  0.104192  0  0.942235  0  0  0.112793  0  1.003546  0  0  0.115835  0  1.001493  0  0  0.104996  0.110545  0  1.005104  0
H  H4  1  0.21923062  0.51517918  0.28300776  1  0  0.105048  0  0.941147  0  0  0.113748  0  1.002268  0  0  0.116873  0  1.000143  0  0  0.104981  0.111473  0  1.003849  0
H  H5  1  0.93713261  0.48502046  0.71679744  1  0  0.105082  0  0.940254  0  0  0.11355  0  1.001827  0  0  0.116692  0  0.999655  0  0  0.105021  0.111274  0  1.003448  0
H  H6  1  0.35124800  0.78922891  0.86598012  1  0  0.111183  0  0.961235  0  0  0.118618  0  1.027027  0  0  0.121243  0  1.027607  0  0  0.10293  0.116699  0  1.02677  0
H  H7  1  0.48366164  0.20878265  0.13309718  1  0  0.110995  0  0.96063  0  0  0.11838  0  1.026631  0  0  0.121033  0  1.027245  0  0  0.102939  0.116492  0  1.026339  0
H  H8  1  0.98401066  0.42333560  0.13334236  1  0  0.111829  0  0.960616  0  0  0.118948  0  1.026759  0  0  0.121583  0  1.027411  0  0  0.103086  0.117079  0  1.02642  0
H  H9  1  0.85090324  0.57693032  0.86627005  1  0  0.112057  0  0.961093  0  0  0.119204  0  1.026947  0  0  0.121879  0  1.027498  0  0  0.103467  0.117306  0  1.026707  0
H  H10  1  0.07927035  0.05964277  0.81261009  1  0  0.100017  0  0.966606  0  0  0.10664  0  1.034131  0  0  0.108895  0  1.033998  0  0  0.102626  0.105006  0  1.034298  0
H  H11  1  0.26683780  0.94108009  0.18783928  1  0  0.100165  0  0.966334  0  0  0.106815  0  1.033755  0  0  0.109069  0  1.033657  0  0  0.102677  0.105157  0  1.033936  0
H  H12  1  0.76625447  0.74642448  0.18781417  1  0  0.099464  0  0.96677  0  0  0.106472  0  1.033918  0  0  0.108635  0  1.033899  0  0  0.102966  0.104892  0  1.034008  0
H  H13  1  0.57906043  0.25346554  0.81261721  1  0  0.099862  0  0.966531  0  0  0.107233  0  1.033135  0  0  0.109483  0  1.033065  0  0  0.102849  0.105586  0  1.033289  0
H  H14  1  0.98860209  0.12520063  0.96126593  1  0  0.116336  0  0.952895  0  0  0.124967  0  1.013663  0  0  0.128677  0  1.012195  0  0  0.104905  0.122325  0  1.014815  0
H  H15  1  0.02860873  0.87468099  0.03888273  1  0  0.116707  0  0.952013  0  0  0.125459  0  1.012623  0  0  0.129197  0  1.01114  0  0  0.105063  0.1228  0  1.013801  0
H  H16  1  0.52803377  0.66367694  0.03889608  1  0  0.11614  0  0.95185  0  0  0.124681  0  1.012713  0  0  0.128405  0  1.011259  0  0  0.104664  0.121998  0  1.013907  0
H  H17  1  0.48881485  0.33599450  0.96134179  1  0  0.116124  0  0.951124  0  0  0.125007  0  1.011684  0  0  0.128684  0  1.010249  0  0  0.104985  0.122365  0  1.012838  0
H  H18  1  0.37926501  0.81612640  0.44994259  1  0  0.442563  0  0.853645  0  0  0.409463  0  0.920238  0  0  0.420755  0  0.904188  0  0  0.300391  0.401459  0  0.931563  0
H  H19  1  0.92941473  0.18433661  0.55041201  1  0  0.442148  0  0.85384  0  0  0.409171  0  0.920388  0  0  0.420472  0  0.904322  0  0  0.300497  0.40119  0  0.931696  0
H  H20  1  0.42980967  0.86655871  0.55053243  1  0  0.440524  0  0.85605  0  0  0.407574  0  0.922553  0  0  0.418867  0  0.906529  0  0  0.300124  0.399563  0  0.933892  0
H  H21  1  0.87880295  0.13419491  0.44980849  1  0  0.440781  0  0.855658  0  0  0.407594  0  0.922602  0  0  0.4189  0  0.90657  0  0  0.300026  0.399601  0  0.933914  0
H  H22  1  0.12001441  0.49942243  0.54967121  1  0  0.432404  0  0.865954  0  0  0.402591  0  0.927362  0  0  0.413164  0  0.91201  0  0  0.29687  0.395113  0  0.938206  0
H  H23  1  0.57002036  0.50096423  0.45045728  1  0  0.433071  0  0.864997  0  0  0.40301  0  0.926885  0  0  0.41358  0  0.911534  0  0  0.296872  0.395527  0  0.937743  0
H  H24  1  0.06999487  0.44993741  0.45029953  1  0  0.430793  0  0.867648  0  0  0.401603  0  0.927972  0  0  0.412127  0  0.912664  0  0  0.296523  0.39416  0  0.938785  0
H  H25  1  0.62070026  0.55022050  0.54982122  1  0  0.431213  0  0.866957  0  0  0.401708  0  0.927895  0  0  0.41224  0  0.912582  0  0  0.29662  0.394257  0  0.938715  0
C  C26  1  0.81679856  0.85831091  0.66666556  1  0  0.656798  0  3.897629  0  0  0.605194  0  4.186879  0  0  0.64037  0  4.180167  0  0  0.206137  0.581315  0  4.190611  0
C  C27  1  0.14827783  0.14225295  0.33343208  1  0  0.658367  0  3.892087  0  0  0.605913  0  4.182581  0  0  0.64108  0  4.175847  0  0  0.206529  0.582049  0  4.186334  0
C  C28  1  0.64772184  0.69139279  0.33355702  1  0  0.659116  0  3.890871  0  0  0.606854  0  4.18105  0  0  0.642046  0  4.174235  0  0  0.206704  0.582966  0  4.184849  0
C  C29  1  0.31572577  0.30895155  0.66671472  1  0  0.659541  0  3.891995  0  0  0.607652  0  4.181598  0  0  0.642806  0  4.174806  0  0  0.207834  0.583785  0  4.185389  0
C  C30  1  0.76620391  0.89059899  0.75548952  1  0  -0.093076  0  3.770207  0  0  -0.073333  0  4.009577  0  0  -0.084474  0  4.033124  0  0  -0.026114  -0.066128  0  3.993704  0
C  C31  1  0.00954868  0.10948340  0.24440417  1  0  -0.094161  0  3.768975  0  0  -0.074109  0  4.008487  0  0  -0.08523  0  4.032009  0  0  -0.026331  -0.066926  0  3.992603  0
C  C32  1  0.50927152  0.63465512  0.24451081  1  0  -0.094446  0  3.768975  0  0  -0.074251  0  4.008152  0  0  -0.085364  0  4.031673  0  0  -0.026557  -0.067054  0  3.992269  0
C  C33  1  0.26570533  0.36542079  0.75561717  1  0  -0.094757  0  3.769738  0  0  -0.074872  0  4.009162  0  0  -0.085918  0  4.032605  0  0  -0.026596  -0.067729  0  3.993352  0
C  C34  1  0.66477018  0.95909786  0.92159637  1  0  0.279101  0  3.788941  0  0  0.268343  0  4.04998  0  0  0.280969  0  4.064456  0  0  0.088428  0.259856  0  4.040002  0
C  C35  1  0.74289485  0.03968748  0.07800108  1  0  0.278732  0  3.791375  0  0  0.267497  0  4.053343  0  0  0.280095  0  4.067885  0  0  0.088369  0.259019  0  4.043341  0
C  C36  1  0.24274306  0.53760847  0.07815549  1  0  0.280566  0  3.78815  0  0  0.268292  0  4.051099  0  0  0.280954  0  4.065599  0  0  0.088524  0.259709  0  4.041131  0
C  C37  1  0.16458920  0.46245034  0.92176567  1  0  0.279802  0  3.791745  0  0  0.268286  0  4.053459  0  0  0.28096  0  4.067943  0  0  0.087764  0.259691  0  4.043518  0
C  C38  1  0.56032190  0.81488817  0.77052945  1  0  -0.025867  0  3.715474  0  0  -0.051565  0  3.967437  0  0  -0.048242  0  3.986218  0  0  -0.074827  -0.053476  0  3.95457  0
C  C39  1  0.78812215  0.18444288  0.22897305  1  0  -0.024851  0  3.716872  0  0  -0.050482  0  3.96846  0  0  -0.047091  0  3.98726  0  0  -0.074624  -0.052391  0  3.955579  0
C  C40  1  0.28819452  0.54392543  0.22916172  1  0  -0.024976  0  3.717268  0  0  -0.050583  0  3.968501  0  0  -0.047277  0  3.987268  0  0  -0.07428  -0.052474  0  3.955636  0
C  C41  1  0.05976709  0.45614942  0.77073326  1  0  -0.024143  0  3.714645  0  0  -0.04964  0  3.966  0  0  -0.046352  0  3.98475  0  0  -0.07425  -0.051524  0  3.953168  0
C  C42  1  0.51050828  0.84698716  0.85338135  1  0  -0.18349  0  3.740392  0  0  -0.203081  0  3.996365  0  0  -0.209908  0  4.016327  0  0  -0.099848  -0.198552  0  3.982975  0
C  C43  1  0.65598274  0.15170016  0.14598280  1  0  -0.183623  0  3.741478  0  0  -0.203277  0  3.998059  0  0  -0.210148  0  4.017963  0  0  -0.100539  -0.19879  0  3.984624  0
C  C44  1  0.15610523  0.49345379  0.14618168  1  0  -0.186568  0  3.742997  0  0  -0.205822  0  3.999773  0  0  -0.212702  0  4.019671  0  0  -0.101234  -0.201332  0  3.986379  0
C  C45  1  0.01023101  0.50665628  0.85362239  1  0  -0.186797  0  3.743932  0  0  -0.206101  0  4.000498  0  0  -0.21299  0  4.020433  0  0  -0.101023  -0.20161  0  3.987091  0
C  C46  1  0.92118067  0.99996376  0.82493996  1  0  -0.033277  0  3.729589  0  0  -0.056451  0  3.978695  0  0  -0.052826  0  3.998081  0  0  -0.076169  -0.058587  0  3.965505  0
C  C47  1  0.09605054  0.00029315  0.17518856  1  0  -0.031353  0  3.729232  0  0  -0.054328  0  3.977729  0  0  -0.050724  0  3.997122  0  0  -0.075141  -0.056439  0  3.964512  0
C  C48  1  0.59566618  0.67449904  0.17523091  1  0  -0.03041  0  3.730077  0  0  -0.05399  0  3.978828  0  0  -0.050301  0  3.998227  0  0  -0.075519  -0.056168  0  3.965607  0
C  C49  1  0.42093733  0.32539166  0.82501922  1  0  -0.031096  0  3.729113  0  0  -0.054816  0  3.977936  0  0  -0.05125  0  3.997314  0  0  -0.075148  -0.056908  0  3.964742  0
C  C50  1  0.87119078  0.03599943  0.90803999  1  0  -0.20232  0  3.74924  0  0  -0.220741  0  4.002867  0  0  -0.228044  0  4.021886  0  0  -0.104845  -0.215938  0  3.990041  0
C  C51  1  0.96354705  0.96366258  0.09192294  1  0  -0.203607  0  3.750213  0  0  -0.222035  0  4.003961  0  0  -0.229352  0  4.022992  0  0  -0.105228  -0.217246  0  3.991158  0
C  C52  1  0.46319059  0.62766765  0.09197547  1  0  -0.202774  0  3.747078  0  0  -0.220564  0  4.000902  0  0  -0.227873  0  4.019903  0  0  -0.103898  -0.215757  0  3.988161  0
C  C53  1  0.37119774  0.37213027  0.90815889  1  0  -0.202721  0  3.746483  0  0  -0.221082  0  4.000265  0  0  -0.228346  0  4.019333  0  0  -0.104739  -0.216294  0  3.987473  0
O  O54  1  0.32621504  0.89972603  0.50022569  1  0  -0.855528  0  1.969189  0  0  -0.778584  0  2.192183  0  0  -0.807308  0  2.156149  0  0  -0.567826  -0.758261  0  2.217113  0
O  O55  1  0.82594885  0.10086920  0.50011599  1  0  -0.855589  0  1.969831  0  0  -0.778591  0  2.193555  0  0  -0.807344  0  2.157466  0  0  -0.567709  -0.758234  0  2.218256  0
O  O56  1  0.01329646  0.90969632  0.65341051  1  0  -0.60745  0  1.914203  0  0  -0.543985  0  2.137326  0  0  -0.572712  0  2.129747  0  0  -0.317037  -0.524045  0  2.141831  0
O  O57  1  0.35829874  0.09117971  0.34703538  1  0  -0.608333  0  1.913011  0  0  -0.544382  0  2.136842  0  0  -0.573155  0  2.129147  0  0  -0.317269  -0.524372  0  2.141355  0
O  O58  1  0.85759925  0.75627358  0.34712567  1  0  -0.608207  0  1.912874  0  0  -0.544296  0  2.136688  0  0  -0.573132  0  2.129061  0  0  -0.316531  -0.524301  0  2.141267  0
O  O59  1  0.51237819  0.24456483  0.65336527  1  0  -0.608992  0  1.912098  0  0  -0.545141  0  2.135258  0  0  -0.573944  0  2.127688  0  0  -0.317525  -0.525153  0  2.139787  0
O  O60  1  0.65425789  0.77541255  0.60327978  1  0  -0.713959  0  2.056831  0  0  -0.636232  0  2.281772  0  0  -0.665009  0  2.268756  0  0  -0.332714  -0.615989  0  2.290056  0
O  O61  1  0.04842638  0.22518871  0.39651256  1  0  -0.714188  0  2.054595  0  0  -0.636629  0  2.279841  0  0  -0.665313  0  2.266825  0  0  -0.332909  -0.616454  0  2.28808  0
O  O62  1  0.54777512  0.67173054  0.39665899  1  0  -0.715614  0  2.054652  0  0  -0.637899  0  2.279841  0  0  -0.666575  0  2.266833  0  0  -0.33396  -0.617736  0  2.288117  0
O  O63  1  0.15277267  0.32834977  0.60341250  1  0  -0.715233  0  2.055084  0  0  -0.637775  0  2.28051  0  0  -0.666558  0  2.267522  0  0  -0.334215  -0.617554  0  2.288779  0
O  O64  1  0.11982737  0.55351913  0.49999127  1  0  -0.847658  0  1.927356  0  0  -0.785412  0  2.128495  0  0  -0.808724  0  2.093692  0  0  -0.59434  -0.769027  0  2.152668  0
O  O65  1  0.61996714  0.44666518  0.50006869  1  0  -0.848707  0  1.926598  0  0  -0.785978  0  2.127421  0  0  -0.809314  0  2.092637  0  0  -0.594382  -0.76958  0  2.151595  0
O  O66  1  0.58820671  0.99890386  0.99975576  1  0  -0.296516  0  2.364227  0  0  -0.227154  0  2.589913  0  0  -0.245308  0  2.590784  0  0  -0.150566  -0.21433  0  2.588799  0
O  O67  1  0.08801643  0.50015820  0.99992294  1  0  -0.296186  0  2.363011  0  0  -0.225918  0  2.588623  0  0  -0.244185  0  2.589579  0  0  -0.149962  -0.212872  0  2.587382  0
