# generated using pymatgen
data_AlH9C27(N5O6)2
_symmetry_space_group_name_H-M   'P 1'
_cell_length_a   4.02368131
_cell_length_b   18.11629883
_cell_length_c   18.08439996
_cell_angle_alpha   121.67215032
_cell_angle_beta   103.43142711
_cell_angle_gamma   91.20579983
_symmetry_Int_Tables_number   1
_chemical_formula_structural   AlH9C27(N5O6)2
_chemical_formula_sum   'Al1 H9 C27 N10 O12'
_cell_volume   1074.82382468
_cell_formula_units_Z   1
loop_
 _symmetry_equiv_pos_site_id
 _symmetry_equiv_pos_as_xyz
  1  'x, y, z'
loop_
 _atom_site_type_symbol
 _atom_site_label
 _atom_site_symmetry_multiplicity
 _atom_site_fract_x
 _atom_site_fract_y
 _atom_site_fract_z
 _atom_site_occupancy
 _atom_site_pbe_bader_charge
 _atom_site_pbe_bader_spin_density
 _atom_site_pbe_cm5_charge
 _atom_site_pbe_ddec_charge
 _atom_site_pbe_ddec_spin_density
 _atom_site_pbe_ddec_sum_bond_order
 _atom_site_pbe_magmom
Al  Al0  1  0.04869799  0.00631488  0.50037702  1  2.510015  0  0.431097  1.609497  0  2.562517  0
H  H1  1  0.27873065  0.29182860  0.39466273  1  0.131204  0  0.118459  0.124153  0  0.982858  0
H  H2  1  0.63377024  0.08229064  0.88969979  1  0.121519  0  0.120825  0.128817  0  0.97528  0
H  H3  1  0.41888037  0.60185795  0.18771258  1  0.162358  0  0.120553  0.127253  0  0.982704  0
H  H4  1  0.67187542  0.33337139  0.91582273  1  0.157032  0  0.124658  0.142297  0  0.992767  0
H  H5  1  0.68936758  0.01132073  0.73221476  1  0.147585  0  0.12219  0.137659  0  0.97065  0
H  H6  1  0.46409167  0.76573634  0.27630489  1  0.123791  0  0.124654  0.13984  0  0.966687  0
H  H7  1  0.36209875  0.60102125  0.42236719  1  0.152334  0  0.125148  0.142903  0  0.981494  0
H  H8  1  0.51437587  0.06947546  0.16767582  1  0.157936  0  0.125086  0.140142  0  0.997973  0
H  H9  1  0.31089717  0.20942434  0.47101771  1  0.122658  0  0.124811  0.138766  0  0.952352  0
C  C10  1  0.47143383  0.05157609  0.41641272  1  1.640132  0  0.279466  0.658978  0  4.102761  0
C  C11  1  0.68727478  0.08622510  0.63752410  1  1.662939  0  0.281012  0.658865  0  4.104833  0
C  C12  1  0.48187491  0.87344236  0.44592013  1  1.617395  0  0.280629  0.658776  0  4.08057  0
C  C13  1  0.33300630  0.22486827  0.36166720  1  -0.016005  0  -0.058739  -0.065337  0  3.913343  0
C  C14  1  0.39216939  0.18595819  0.27615230  1  0.026552  0  0.00058  0.008122  0  3.959575  0
C  C15  1  0.65632179  0.12124945  0.86076770  1  -0.085857  0  -0.057851  -0.065654  0  3.893902  0
C  C16  1  0.64233539  0.21157957  0.91205174  1  0.070152  0  -0.004463  0.004416  0  3.968664  0
C  C17  1  0.38703036  0.59106532  0.29902123  1  0.03603  0  0.003051  0.018062  0  3.953392  0
C  C18  1  0.41443392  0.63793023  0.25807959  1  -0.037517  0  -0.059707  -0.070862  0  3.912221  0
C  C19  1  0.67439498  0.26298199  0.87623323  1  0.080409  0  -0.062972  -0.129927  0  3.913983  0
C  C20  1  0.71147347  0.22296972  0.78978907  1  0.171608  0  0.083304  0.045311  0  3.921242  0
C  C21  1  0.71358480  0.13235599  0.73631935  1  -0.00173  0  0.018058  -0.041226  0  3.902514  0
C  C22  1  0.69066099  0.08198574  0.77350445  1  -0.008228  0  -0.063801  -0.076771  0  3.89859  0
C  C23  1  0.44171379  0.72881233  0.30739556  1  0.014574  0  -0.06586  -0.077728  0  3.922743  0
C  C24  1  0.44563819  0.77553658  0.39885017  1  0.003719  0  0.012735  -0.050969  0  3.902478  0
C  C25  1  0.41290036  0.72755187  0.43820187  1  0.174107  0  0.086818  0.051025  0  3.915117  0
C  C26  1  0.37935927  0.63632929  0.38946540  1  0.028027  0  -0.060508  -0.132912  0  3.904087  0
C  C27  1  0.46585091  0.10028295  0.23352718  1  0.039625  0  -0.057066  -0.117681  0  3.906502  0
C  C28  1  0.48209851  0.05528450  0.27668204  1  0.174694  0  0.081152  0.037322  0  3.922501  0
C  C29  1  0.42612959  0.09312900  0.36213667  1  0.009887  0  0.018497  -0.036463  0  3.89731  0
C  C30  1  0.35053876  0.17886125  0.40399622  1  -0.019969  0  -0.0704  -0.092831  0  3.928578  0
C  C31  1  0.36345986  0.36638407  0.24259853  1  1.514342  0  0.360263  0.512313  0  4.072404  0
C  C32  1  0.49935930  0.23934518  0.11553665  1  1.524431  0  0.360979  0.510284  0  4.082225  0
C  C33  1  0.39591285  0.23560208  0.23275224  1  1.098652  0  0.265414  0.398967  0  4.027703  0
C  C34  1  0.38946740  0.49552871  0.24797095  1  1.094752  0  0.264222  0.396403  0  4.030859  0
C  C35  1  0.49327258  0.37764873  0.12340710  1  1.566456  0  0.360367  0.5082  0  4.092791  0
C  C36  1  0.58750198  0.25335077  0.00250216  1  1.045332  0  0.25669  0.381043  0  4.061093  0
N  N37  1  0.45146195  0.32775894  0.16047411  1  -1.205556  0  -0.190841  -0.241347  0  3.563115  0
N  N38  1  0.47858702  0.19451504  0.15403362  1  -1.171774  0  -0.312229  -0.431125  0  3.214097  0
N  N39  1  0.32490648  0.31798002  0.27666596  1  -1.169489  0  -0.318991  -0.449216  0  3.204656  0
N  N40  1  0.32248566  0.45067166  0.28469971  1  -1.175884  0  -0.319787  -0.445496  0  3.188923  0
N  N41  1  0.46844019  0.46253534  0.16929967  1  -1.204969  0  -0.313766  -0.438898  0  3.228384  0
N  N42  1  0.56849784  0.20265488  0.03582410  1  -1.172185  0  -0.319038  -0.446998  0  3.208484  0
N  N43  1  0.56048511  0.33917113  0.04359940  1  -1.203482  0  -0.318315  -0.439609  0  3.221963  0
N  N44  1  0.57090025  0.96603059  0.23072181  1  0.411055  0  0.061693  0.513401  0  4.205794  0
N  N45  1  0.44193926  0.77308225  0.53592781  1  0.400201  0  0.062559  0.519289  0  4.203984  0
N  N46  1  0.76166455  0.27877361  0.75483443  1  0.394465  0  0.063308  0.518328  0  4.196799  0
O  O47  1  0.29446886  0.91453309  0.49728005  1  -1.248486  0  -0.228323  -0.582526  0  2.384605  0
O  O48  1  0.21456826  0.00282376  0.40696896  1  -1.244145  0  -0.22743  -0.581599  0  2.413802  0
O  O49  1  0.42195179  0.09492293  0.58998628  1  -1.257377  0  -0.237221  -0.608232  0  2.418052  0
O  O50  1  0.69340376  0.90736367  0.42500204  1  -1.238901  0  -0.225199  -0.588161  0  2.427191  0
O  O51  1  0.90538818  0.03731427  0.60737110  1  -1.238993  0  -0.219446  -0.564877  0  2.360436  0
O  O52  1  0.76780861  0.07720460  0.47429138  1  -1.243859  0  -0.22742  -0.578188  0  2.37191  0
O  O53  1  0.53164545  0.92131931  0.26239668  1  -0.439481  0  -0.106287  -0.298835  0  1.971378  0
O  O54  1  0.68065727  0.94206580  0.16430368  1  -0.447237  0  -0.129331  -0.323358  0  1.890086  0
O  O55  1  0.65224627  0.84264759  0.58811363  1  -0.434373  0  -0.115113  -0.308375  0  1.933645  0
O  O56  1  0.25867494  0.73695670  0.55832144  1  -0.453628  0  -0.128811  -0.323442  0  1.887081  0
O  O57  1  0.90498671  0.24928659  0.69331172  1  -0.443278  0  -0.118714  -0.312158  0  1.944657  0
O  O58  1  0.66469537  0.35078776  0.78981865  1  -0.423565  0  -0.120651  -0.309633  0  1.883368  0
