# generated using pymatgen
data_CuH16C16(N4Cl)2
_symmetry_space_group_name_H-M   'P 1'
_cell_length_a   7.52072836
_cell_length_b   8.19225208
_cell_length_c   16.08585408
_cell_angle_alpha   89.99989417
_cell_angle_beta   90.00040844
_cell_angle_gamma   116.48240107
_symmetry_Int_Tables_number   1
_chemical_formula_structural   CuH16C16(N4Cl)2
_chemical_formula_sum   'Cu2 H32 C32 N16 Cl4'
_cell_volume   887.08452269
_cell_formula_units_Z   2
loop_
 _symmetry_equiv_pos_site_id
 _symmetry_equiv_pos_as_xyz
  1  'x, y, z'
loop_
 _atom_site_type_symbol
 _atom_site_label
 _atom_site_symmetry_multiplicity
 _atom_site_fract_x
 _atom_site_fract_y
 _atom_site_fract_z
 _atom_site_occupancy
 _atom_site_hle17_ddec_charge
 _atom_site_hle17_ddec_spin_density
 _atom_site_hle17_ddec_sum_bond_order
 _atom_site_hle17_magmom
 _atom_site_hse06_10hf_ddec_charge
 _atom_site_hse06_10hf_ddec_spin_density
 _atom_site_hse06_10hf_ddec_sum_bond_order
 _atom_site_hse06_10hf_magmom
 _atom_site_hse06_ddec_charge
 _atom_site_hse06_ddec_spin_density
 _atom_site_hse06_ddec_sum_bond_order
 _atom_site_hse06_magmom
 _atom_site_pbe_cm5_charge
 _atom_site_pbe_ddec_charge
 _atom_site_pbe_ddec_spin_density
 _atom_site_pbe_ddec_sum_bond_order
 _atom_site_pbe_magmom
Cu  Cu0  1  0.49999978  0.49999971  0.99999972  1  0.742941  -0.754764  1.904957  -0.529  0.698156  -0.818212  2.276  -0.632  0.780942  -0.8914  2.221568  -0.713  0.715542  0.648568  -0.766048  2.311802  -0.58
Cu  Cu1  1  0.99999943  0.00000152  0.49999936  1  0.742888  0.754732  1.904924  0.529  0.698157  0.818208  2.275965  0.632  0.780967  0.891403  2.221543  0.713  0.71556  0.648603  0.766044  2.311778  0.58
H  H2  1  0.21087254  0.08838827  0.93694838  1  0.098958  2.2e-05  0.958259  0.0  0.103762  -3.7e-05  1.02646  0.0  0.106011  -3.1e-05  1.02307  0.0  0.123225  0.10193  -4.4e-05  1.029009  0.0
H  H3  1  0.28912841  0.41161344  0.43694755  1  0.098927  -2.3e-05  0.958286  0.0  0.103737  3.7e-05  1.026483  0.0  0.105987  3.1e-05  1.023092  0.0  0.123223  0.101906  4.4e-05  1.029032  0.0
H  H4  1  0.78912988  0.91161354  0.06305069  1  0.098924  2.2e-05  0.958279  0.0  0.103729  -3.7e-05  1.026473  0.0  0.105978  -3.1e-05  1.023086  0.0  0.123218  0.1019  -4.4e-05  1.029026  0.0
H  H5  1  0.71087135  0.58838838  0.56305214  1  0.098914  -2.3e-05  0.958307  0.0  0.103724  3.7e-05  1.026502  0.0  0.105974  3.1e-05  1.023113  0.0  0.123228  0.101894  4.4e-05  1.02905  0.0
H  H6  1  0.83480285  0.35848029  0.95522622  1  0.113678  -5.8e-05  0.975315  0.0  0.117498  -0.000176  1.045112  0.0  0.120495  -0.000152  1.040402  0.0  0.124209  0.115142  -0.000188  1.048434  0.0
H  H7  1  0.66520358  0.14152349  0.45522772  1  0.113643  5.9e-05  0.975425  0.0  0.117513  0.000176  1.045137  0.0  0.12051  0.000152  1.04043  0.0  0.12423  0.115157  0.000189  1.048457  0.0
H  H8  1  0.16520156  0.64152014  0.04477409  1  0.113661  -5.9e-05  0.975329  0.0  0.117501  -0.000176  1.045081  0.0  0.1205  -0.000152  1.040364  0.0  0.12421  0.115143  -0.000188  1.048413  0.0
H  H9  1  0.33479685  0.85847970  0.54477321  1  0.113669  5.9e-05  0.975333  0.0  0.117501  0.000176  1.045104  0.0  0.120498  0.000152  1.040394  0.0  0.12421  0.115144  0.000189  1.048419  0.0
H  H10  1  0.69665717  0.88160075  0.89892907  1  0.11427  -0.000293  0.941813  -0.001  0.122459  -0.000132  1.012401  0.0  0.123479  -0.000107  1.012393  0.0  0.11579  0.121553  -0.00016  1.01264  0.0
H  H11  1  0.80334043  0.61839686  0.39892981  1  0.114293  0.000293  0.941798  0.001  0.122439  0.000132  1.012403  0.0  0.123476  0.000107  1.01238  0.0  0.11578  0.12155  0.00016  1.012649  0.0
H  H12  1  0.30334459  0.11839969  0.10107000  1  0.114217  -0.000293  0.941875  -0.001  0.122432  -0.000132  1.012426  0.0  0.123454  -0.000107  1.012418  0.0  0.115776  0.121526  -0.00016  1.012663  0.0
H  H13  1  0.19665469  0.38160361  0.60107174  1  0.114272  0.000293  0.941853  0.001  0.122447  0.000132  1.01244  0.0  0.123463  0.000107  1.012437  0.0  0.115791  0.121551  0.00016  1.012659  0.0
H  H14  1  0.89801193  0.09677890  0.91634944  1  0.105152  -0.000181  0.94944  0.0  0.116723  -7.6e-05  1.016461  0.0  0.118183  -7.7e-05  1.015136  0.0  0.108794  0.115539  -7.8e-05  1.017452  0.0
H  H15  1  0.60198653  0.40322068  0.41635110  1  0.105129  0.000181  0.94945  0.0  0.11668  7.6e-05  1.016466  0.0  0.118141  7.7e-05  1.015144  0.0  0.108779  0.115512  7.8e-05  1.017464  0.0
H  H16  1  0.10199181  0.90322016  0.08364901  1  0.105165  -0.000181  0.949427  0.0  0.116718  -7.6e-05  1.016454  0.0  0.118178  -7.7e-05  1.01513  0.0  0.108788  0.115536  -7.8e-05  1.017449  0.0
H  H17  1  0.39801124  0.59677978  0.58364984  1  0.105149  0.000181  0.949447  0.0  0.116724  7.6e-05  1.016454  0.0  0.118185  7.7e-05  1.015126  0.0  0.108786  0.115534  7.8e-05  1.01744  0.0
H  H18  1  0.57876015  0.08645572  0.73588165  1  0.116803  0.000572  0.942955  0.001  0.124434  0.000505  1.004293  0.001  0.127705  0.000354  1.003399  0.0  0.108766  0.122037  0.000626  1.005142  0.001
H  H19  1  0.92124123  0.41354187  0.23588375  1  0.116782  -0.000572  0.942996  -0.001  0.124424  -0.000505  1.004324  -0.001  0.127694  -0.000354  1.003432  0.0  0.108748  0.122029  -0.000626  1.005176  -0.001
H  H20  1  0.42123960  0.91354336  0.26411680  1  0.116797  0.000573  0.942938  0.001  0.12443  0.000504  1.004271  0.001  0.1277  0.000354  1.003378  0.0  0.108758  0.122035  0.000626  1.005122  0.001
H  H21  1  0.07875255  0.58645315  0.76411719  1  0.116785  -0.000572  0.942965  -0.001  0.124413  -0.000505  1.004315  -0.001  0.127684  -0.000354  1.003421  0.0  0.108759  0.122018  -0.000626  1.005164  -0.001
H  H22  1  0.68332606  0.08348890  0.59064987  1  0.080493  0.001158  0.972671  0.002  0.082789  0.000887  1.046841  0.001  0.084162  0.000599  1.044235  0.001  0.104864  0.081543  0.001126  1.04887  0.002
H  H23  1  0.81667023  0.41651095  0.09065162  1  0.080472  -0.001159  0.972711  -0.002  0.082765  -0.000887  1.046883  -0.001  0.084137  -0.0006  1.044272  -0.001  0.104853  0.081518  -0.001126  1.048916  -0.002
H  H24  1  0.31667370  0.91651018  0.40934920  1  0.08049  0.001158  0.972672  0.002  0.082768  0.000887  1.046864  0.001  0.084144  0.000599  1.044249  0.001  0.104847  0.081517  0.001126  1.048896  0.002
H  H25  1  0.18332621  0.58348678  0.90934932  1  0.080468  -0.001159  0.972681  -0.002  0.082755  -0.000887  1.046864  -0.001  0.084128  -0.0006  1.044253  -0.001  0.104848  0.081508  -0.001126  1.048896  -0.002
H  H26  1  0.16874370  0.00527658  0.66436475  1  0.078664  0.000944  0.96508  0.002  0.084339  0.000791  1.030712  0.001  0.086018  0.000538  1.028521  0.001  0.107224  0.082921  0.001  1.032412  0.002
H  H27  1  0.33125464  0.49472284  0.16436585  1  0.078623  -0.000942  0.965175  -0.002  0.084298  -0.00079  1.030803  -0.001  0.085978  -0.000538  1.02861  -0.001  0.107206  0.08288  -0.000999  1.032507  -0.002
H  H28  1  0.83125339  0.99471978  0.33563307  1  0.078655  0.000943  0.965104  0.002  0.084346  0.000791  1.030715  0.001  0.086025  0.000538  1.028524  0.001  0.10724  0.082931  0.001  1.032418  0.002
H  H29  1  0.66874513  0.50527898  0.83563571  1  0.078637  -0.000942  0.965154  -0.002  0.084315  -0.000791  1.030777  -0.001  0.085993  -0.000538  1.028591  -0.001  0.107214  0.082895  -0.000999  1.03248  -0.002
H  H30  1  0.07091107  0.98475334  0.81357597  1  0.114857  0.000561  0.964586  0.001  0.122839  0.000489  1.027506  0.001  0.125443  0.000338  1.027101  0.0  0.105907  0.120831  0.000613  1.028098  0.001
H  H31  1  0.42908724  0.51524877  0.31357661  1  0.114726  -0.000562  0.964408  -0.001  0.122738  -0.00049  1.02733  -0.001  0.125338  -0.000338  1.026925  0.0  0.105838  0.120731  -0.000614  1.027924  -0.001
H  H32  1  0.92908602  0.01524302  0.18642186  1  0.114859  0.000562  0.964558  0.001  0.122816  0.000489  1.027503  0.001  0.125419  0.000338  1.027099  0.0  0.105896  0.120812  0.000613  1.028099  0.001
H  H33  1  0.57091054  0.48475442  0.68642495  1  0.114765  -0.000562  0.964483  -0.001  0.12277  -0.000489  1.027396  -0.001  0.125374  -0.000338  1.026992  0.0  0.105882  0.120763  -0.000613  1.027986  -0.001
C  C34  1  0.36617842  0.12054075  0.92884710  1  0.192368  0.003143  3.692679  0.003  0.139885  0.000156  3.991487  0.0  0.153606  0.000682  4.003425  0.001  0.140859  0.131084  -0.000216  3.983488  0.0
C  C35  1  0.13382705  0.37946501  0.42884640  1  0.192414  -0.003142  3.692657  -0.003  0.139945  -0.000155  3.991493  0.0  0.153675  -0.000683  4.003422  -0.001  0.140883  0.131141  0.000217  3.983495  0.0
C  C36  1  0.63382599  0.87946242  0.07115197  1  0.192512  0.003142  3.692565  0.003  0.140038  0.000157  3.991371  0.0  0.153759  0.000681  4.003305  0.001  0.140924  0.131236  -0.000217  3.983385  0.0
C  C37  1  0.86617339  0.62053817  0.57115391  1  0.192474  -0.003141  3.692629  -0.003  0.140004  -0.000155  3.991435  0.0  0.153729  -0.000683  4.003368  -0.001  0.14088  0.131205  0.000217  3.983441  0.0
C  C38  1  0.68322377  0.26263376  0.94001265  1  0.174408  0.004152  3.617805  0.004  0.098671  0.000263  3.88177  0.0  0.115343  0.001029  3.892453  0.001  0.161343  0.08815  -0.0003  3.87474  0.0
C  C39  1  0.81678039  0.23736588  0.44001518  1  0.174492  -0.004155  3.617843  -0.004  0.098783  -0.000263  3.881837  0.0  0.115456  -0.001031  3.892526  -0.001  0.161381  0.08826  0.000299  3.874798  0.0
C  C40  1  0.31677931  0.73736668  0.05998704  1  0.17453  0.004153  3.6177  0.004  0.098782  0.000264  3.881667  0.0  0.115454  0.001029  3.89235  0.001  0.161397  0.08826  -0.000299  3.874642  0.0
C  C41  1  0.18321937  0.76263594  0.55998637  1  0.174449  -0.004154  3.617824  -0.004  0.09872  -0.000263  3.881808  0.0  0.115394  -0.00103  3.892491  -0.001  0.161361  0.088199  0.0003  3.874772  0.0
C  C42  1  0.76335441  0.02459004  0.87829967  1  -0.083061  -4.5e-05  3.643109  0.0  -0.155897  -0.000372  3.876595  0.0  -0.153445  -0.00031  3.88589  0.0  -0.046211  -0.157169  -0.000402  3.870344  0.0
C  C43  1  0.73664541  0.47541078  0.37830047  1  -0.083135  4.6e-05  3.64303  0.0  -0.155813  0.000372  3.876434  0.0  -0.153369  0.000311  3.885709  0.0  -0.046229  -0.157165  0.000402  3.87029  0.0
C  C44  1  0.23664668  0.97540904  0.12169878  1  -0.083049  -4.6e-05  3.643033  0.0  -0.155864  -0.000371  3.876513  0.0  -0.153408  -0.00031  3.885794  0.0  -0.046194  -0.157133  -0.000402  3.870261  0.0
C  C45  1  0.26335171  0.52459106  0.62170109  1  -0.083091  4.6e-05  3.643024  0.0  -0.155865  0.000371  3.876533  0.0  -0.153427  0.00031  3.885867  0.0  -0.046196  -0.157115  0.000402  3.870219  0.0
C  C46  1  0.81585827  0.03454116  0.78769157  1  0.149639  -0.008923  3.708911  -0.009  0.162176  -0.002724  3.950778  -0.003  0.16774  -0.002958  3.972163  -0.003  0.014576  0.158514  -0.002551  3.936154  -0.003
C  C47  1  0.68413536  0.46545801  0.28769344  1  0.149702  0.008915  3.708908  0.009  0.162144  0.002725  3.950853  0.003  0.167708  0.002957  3.972241  0.003  0.014558  0.158508  0.002551  3.936244  0.003
C  C48  1  0.18414082  0.96545656  0.21230688  1  0.149706  -0.00891  3.708837  -0.009  0.162133  -0.002725  3.950811  -0.003  0.167696  -0.002957  3.9722  -0.003  0.014556  0.158473  -0.00255  3.936197  -0.003
C  C49  1  0.31586174  0.53454109  0.71230873  1  0.149722  0.008918  3.708963  0.009  0.162157  0.002725  3.950957  0.003  0.167722  0.002957  3.972335  0.003  0.014566  0.158489  0.002551  3.936327  0.003
C  C50  1  0.70866399  0.06410110  0.72351511  1  -0.170162  0.0112  3.687683  0.012  -0.19119  0.004345  3.939307  0.005  -0.199842  0.003868  3.95915  0.005  -0.087464  -0.185541  0.004768  3.925973  0.006
C  C51  1  0.79133918  0.43589780  0.22351489  1  -0.170195  -0.011191  3.687612  -0.012  -0.191229  -0.004346  3.939269  -0.005  -0.199882  -0.003868  3.959115  -0.005  -0.087433  -0.185576  -0.004768  3.925941  -0.006
C  C52  1  0.29133510  0.93589662  0.27648396  1  -0.17013  0.011184  3.687711  0.012  -0.191133  0.004346  3.939342  0.005  -0.199786  0.003867  3.959187  0.005  -0.087398  -0.185485  0.004767  3.926016  0.006
C  C53  1  0.20865924  0.56409856  0.77648543  1  -0.170162  -0.011193  3.687678  -0.012  -0.191171  -0.004346  3.939347  -0.005  -0.199822  -0.003867  3.959189  -0.005  -0.087429  -0.185523  -0.004768  3.92602  -0.006
C  C54  1  0.76751038  0.06332746  0.64133741  1  0.147589  -0.00674  3.685734  -0.007  0.116524  -0.000298  3.949518  -0.001  0.127443  -0.001597  3.967576  -0.002  0.049299  0.109451  0.000712  3.937766  0.0
C  C55  1  0.73248677  0.43667256  0.14133948  1  0.147595  0.006729  3.685852  0.007  0.116552  0.000298  3.949587  0.001  0.127474  0.001595  3.967646  0.002  0.049333  0.109482  -0.000713  3.937847  0.0
C  C56  1  0.23248739  0.93667027  0.35866041  1  0.147499  -0.006724  3.685872  -0.007  0.116464  -0.000298  3.949599  -0.001  0.127384  -0.001595  3.967659  -0.002  0.049281  0.109398  0.000712  3.937847  0.0
C  C57  1  0.26750967  0.56332517  0.85866145  1  0.147565  0.006735  3.685889  0.007  0.116508  0.000298  3.94963  0.001  0.127427  0.001596  3.967691  0.002  0.049293  0.109433  -0.000713  3.937885  0.0
C  C58  1  0.03522340  0.01585733  0.68332528  1  0.126404  -0.006393  3.716824  -0.007  0.099881  -0.000472  3.967964  -0.001  0.109244  -0.001673  3.987952  -0.003  0.038314  0.093907  0.000458  3.954818  0.0
C  C59  1  0.46476862  0.48414219  0.18332932  1  0.126466  0.006384  3.716618  0.007  0.099938  0.000472  3.967752  0.001  0.109299  0.001672  3.987739  0.003  0.038348  0.093966  -0.000459  3.954618  0.0
C  C60  1  0.96477436  0.98414040  0.31667316  1  0.126418  -0.00638  3.716828  -0.007  0.099864  -0.000472  3.967978  -0.001  0.109228  -0.001672  3.987968  -0.003  0.038286  0.093892  0.000458  3.954843  0.0
C  C61  1  0.53522782  0.51585828  0.81667348  1  0.126404  0.006387  3.71664  0.007  0.099864  0.000472  3.967765  0.001  0.109225  0.001672  3.987752  0.003  0.038287  0.093889  -0.000458  3.95462  0.0
C  C62  1  0.98286684  0.00994403  0.76614932  1  -0.167232  0.010192  3.696718  0.011  -0.182681  0.003784  3.93754  0.004  -0.191588  0.003417  3.959231  0.004  -0.086858  -0.176918  0.00414  3.923084  0.005
C  C63  1  0.51713903  0.49005364  0.26614938  1  -0.16707  -0.010174  3.69679  -0.011  -0.182522  -0.003782  3.937646  -0.004  -0.191427  -0.003415  3.959345  -0.004  -0.086755  -0.176754  -0.004138  3.923187  -0.005
C  C64  1  0.01713091  0.99005096  0.23384850  1  -0.167242  0.010176  3.696707  0.011  -0.182618  0.003785  3.937545  0.004  -0.191523  0.003416  3.959236  0.004  -0.086808  -0.176857  0.004139  3.923104  0.005
C  C65  1  0.48286339  0.50994817  0.73385031  1  -0.16706  -0.01018  3.696713  -0.011  -0.182488  -0.003783  3.937552  -0.004  -0.191394  -0.003415  3.959249  -0.004  -0.086749  -0.176724  -0.004139  3.923095  -0.005
N  N66  1  0.63129300  0.10303942  0.90106724  1  0.049289  -0.002489  3.562567  -0.003  0.174844  -0.001603  3.740023  -0.002  0.164156  -0.001267  3.763785  -0.002  -0.135613  0.181001  -0.001837  3.725088  -0.002
N  N67  1  0.86871250  0.39696145  0.40106980  1  0.049332  0.00249  3.562492  0.003  0.174767  0.001603  3.740051  0.002  0.164078  0.001268  3.763818  0.002  -0.135621  0.180944  0.001837  3.725133  0.002
N  N68  1  0.36871074  0.89696238  0.09893183  1  0.049194  -0.002487  3.562487  -0.003  0.174797  -0.001604  3.739879  -0.002  0.164108  -0.001268  3.763641  -0.002  -0.135636  0.180953  -0.001837  3.724953  -0.002
N  N69  1  0.13128794  0.60304173  0.59893176  1  0.049278  0.002489  3.562526  0.003  0.174821  0.001604  3.740017  0.002  0.164132  0.001269  3.763773  0.002  -0.135616  0.180967  0.001837  3.725077  0.002
N  N70  1  0.42944017  0.00986135  0.89331790  1  -0.259893  -0.008855  2.823542  -0.01  -0.263675  -0.003682  3.091767  -0.004  -0.271564  -0.002544  3.104514  -0.003  -0.221547  -0.257858  -0.004928  3.082825  -0.006
N  N71  1  0.07056137  0.49013747  0.39332000  1  -0.259886  0.008855  2.823612  0.01  -0.263639  0.00368  3.091885  0.004  -0.271525  0.002546  3.104626  0.003  -0.221563  -0.257824  0.004927  3.082941  0.006
N  N72  1  0.57056424  0.99013908  0.10668055  1  -0.259935  -0.008856  2.823441  -0.01  -0.263736  -0.003682  3.091678  -0.004  -0.271625  -0.002543  3.104423  -0.003  -0.221588  -0.257917  -0.004927  3.082746  -0.006
N  N73  1  0.92943840  0.50986435  0.60668156  1  -0.259932  0.008856  2.823515  0.01  -0.263725  0.00368  3.091775  0.004  -0.27161  0.002545  3.104518  0.003  -0.221598  -0.25791  0.004927  3.082837  0.006
N  N74  1  0.51773418  0.27774960  0.95831913  1  -0.377441  -0.074083  3.330228  -0.091  -0.333476  -0.050199  3.650987  -0.065  -0.366982  -0.041551  3.670595  -0.057  -0.370538  -0.312726  -0.055283  3.638199  -0.07
N  N75  1  0.98226699  0.22225422  0.45831913  1  -0.377515  0.074092  3.330262  0.091  -0.333642  0.050201  3.651132  0.065  -0.367163  0.041552  3.670753  0.057  -0.370574  -0.312886  0.055283  3.638357  0.07
N  N76  1  0.48226890  0.72225084  0.04167994  1  -0.377547  -0.074085  3.330178  -0.091  -0.33361  -0.050201  3.650976  -0.065  -0.367114  -0.041552  3.670582  -0.057  -0.370572  -0.312855  -0.055281  3.638194  -0.07
N  N77  1  0.01773344  0.77774897  0.54168119  1  -0.377522  0.07409  3.330223  0.091  -0.333591  0.050201  3.651006  0.065  -0.367104  0.041551  3.670619  0.057  -0.370559  -0.312851  0.055285  3.638236  0.07
N  N78  1  0.92722701  0.03833429  0.62141646  1  -0.295359  0.091553  3.315723  0.112  -0.248388  0.062268  3.60074  0.082  -0.28172  0.050644  3.627897  0.07  -0.337822  -0.228159  0.069264  3.583954  0.088
N  N79  1  0.57277841  0.46166426  0.12141549  1  -0.295357  -0.091543  3.315417  -0.112  -0.248379  -0.062269  3.600419  -0.082  -0.281708  -0.050644  3.627575  -0.07  -0.337824  -0.228141  -0.06926  3.583628  -0.088
N  N80  1  0.07277075  0.96166344  0.37858261  1  -0.295315  0.091534  3.315777  0.112  -0.248333  0.062266  3.60078  0.082  -0.281668  0.050641  3.627944  0.07  -0.337806  -0.228105  0.069255  3.583998  0.088
N  N81  1  0.42722268  0.53833482  0.87858607  1  -0.295399  -0.091545  3.315641  -0.112  -0.248386  -0.062268  3.600609  -0.082  -0.281715  -0.050645  3.627766  -0.07  -0.337822  -0.228146  -0.069263  3.583808  -0.088
Cl  Cl82  1  0.90379044  0.70633281  0.96279555  1  -0.680875  -0.002342  0.684692  -0.004  -0.640594  0.000871  0.909298  0.0  -0.654361  0.001284  0.889001  0.0  -0.374923  -0.629531  0.000211  0.923114  -0.001
Cl  Cl83  1  0.59620957  0.79366774  0.46279730  1  -0.680853  0.002345  0.684689  0.004  -0.640576  -0.000871  0.909299  0.0  -0.654349  -0.001285  0.889011  0.0  -0.374918  -0.629523  -0.000211  0.923117  0.001
Cl  Cl84  1  0.09621130  0.29366490  0.03720476  1  -0.680885  -0.002341  0.684713  -0.004  -0.640599  0.000871  0.909313  0.0  -0.654366  0.001284  0.889017  0.0  -0.374924  -0.629536  0.000212  0.923128  -0.001
Cl  Cl85  1  0.40378887  0.20633409  0.53720363  1  -0.68087  0.002346  0.684694  0.004  -0.640585  -0.000871  0.90928  0.0  -0.654353  -0.001284  0.888988  0.0  -0.374925  -0.629532  -0.000211  0.9231  0.001
