# generated using pymatgen
data_CdH12C12Br2(NF)2
_symmetry_space_group_name_H-M   'P 1'
_cell_length_a   6.87203905
_cell_length_b   13.23985149
_cell_length_c   15.63038232
_cell_angle_alpha   90.00056442
_cell_angle_beta   89.99957765
_cell_angle_gamma   89.99971982
_symmetry_Int_Tables_number   1
_chemical_formula_structural   CdH12C12Br2(NF)2
_chemical_formula_sum   'Cd4 H48 C48 Br8 N8 F8'
_cell_volume   1422.12684192
_cell_formula_units_Z   4
loop_
 _symmetry_equiv_pos_site_id
 _symmetry_equiv_pos_as_xyz
  1  'x, y, z'
loop_
 _atom_site_type_symbol
 _atom_site_label
 _atom_site_symmetry_multiplicity
 _atom_site_fract_x
 _atom_site_fract_y
 _atom_site_fract_z
 _atom_site_occupancy
 _atom_site_hle17_bader_spin_density
 _atom_site_hle17_ddec_charge
 _atom_site_hle17_ddec_spin_density
 _atom_site_hle17_ddec_sum_bond_order
 _atom_site_hle17_magmom
 _atom_site_hse06_10hf_bader_spin_density
 _atom_site_hse06_10hf_ddec_charge
 _atom_site_hse06_10hf_ddec_spin_density
 _atom_site_hse06_10hf_ddec_sum_bond_order
 _atom_site_hse06_10hf_magmom
 _atom_site_hse06_bader_spin_density
 _atom_site_hse06_ddec_charge
 _atom_site_hse06_ddec_spin_density
 _atom_site_hse06_ddec_sum_bond_order
 _atom_site_hse06_magmom
 _atom_site_pbe_bader_spin_density
 _atom_site_pbe_cm5_charge
 _atom_site_pbe_ddec_charge
 _atom_site_pbe_ddec_spin_density
 _atom_site_pbe_ddec_sum_bond_order
 _atom_site_pbe_magmom
Cd  Cd0  1  0.24999336  0.99999765  0.05902725  1  0  0.891488  0  1.889908  0  0  0.742845  0  2.314058  0  0  0.787998  0  2.278975  0  0  0.546963  0.711194  0  2.337723  0
Cd  Cd1  1  0.24999702  0.49999947  0.94097993  1  0  0.8915  0  1.889916  0  0  0.742856  0  2.314065  0  0  0.788012  0  2.278978  0  0  0.546939  0.711206  0  2.337733  0
Cd  Cd2  1  0.74999655  0.00000153  0.94097705  1  0  0.891449  0  1.890092  0  0  0.742806  0  2.314237  0  0  0.787966  0  2.279135  0  0  0.546945  0.711156  0  2.3379  0
Cd  Cd3  1  0.74999724  0.50000123  0.05902757  1  0  0.891469  0  1.889945  0  0  0.742804  0  2.3141  0  0  0.78796  0  2.279013  0  0  0.546948  0.711154  0  2.337764  0
H  H4  1  0.94662384  0.00064776  0.41408368  1  0  0.127858  0  0.955381  0  0  0.131293  0  1.023372  0  0  0.135613  0  1.019951  0  0  0.103857  0.127841  0  1.026393  0
H  H5  1  0.94662295  0.49934847  0.58592863  1  0  0.127825  0  0.955788  0  0  0.131308  0  1.023695  0  0  0.135635  0  1.020263  0  0  0.103941  0.127856  0  1.026718  0
H  H6  1  0.55337776  0.99934979  0.41407502  1  0  0.127798  0  0.95552  0  0  0.131271  0  1.023483  0  0  0.135594  0  1.020058  0  0  0.103926  0.12782  0  1.026504  0
H  H7  1  0.55338013  0.50065185  0.58592607  1  0  0.127828  0  0.955529  0  0  0.131322  0  1.023465  0  0  0.135649  0  1.020035  0  0  0.103928  0.12787  0  1.026487  0
H  H8  1  0.05337333  0.99935596  0.58591295  1  0  0.127913  0  0.955408  0  0  0.131379  0  1.023365  0  0  0.135704  0  1.019935  0  0  0.103858  0.127926  0  1.026387  0
H  H9  1  0.05338005  0.50065450  0.41407951  1  0  0.127825  0  0.955397  0  0  0.131297  0  1.023354  0  0  0.135627  0  1.019924  0  0  0.103906  0.127845  0  1.026377  0
H  H10  1  0.44662960  0.00064788  0.58591585  1  0  0.127852  0  0.95541  0  0  0.131298  0  1.023386  0  0  0.135617  0  1.019963  0  0  0.103882  0.127847  0  1.026405  0
H  H11  1  0.44662578  0.49935489  0.41408207  1  0  0.127922  0  0.955326  0  0  0.13134  0  1.023352  0  0  0.135663  0  1.019921  0  0  0.103912  0.127886  0  1.026373  0
H  H12  1  0.34928393  0.75299067  0.39310811  1  0  0.121344  0  0.963065  0  0  0.125714  0  1.031401  0  0  0.128952  0  1.029866  0  0  0.102857  0.12325  0  1.03285  0
H  H13  1  0.34927343  0.74700167  0.60689620  1  0  0.121195  0  0.963116  0  0  0.125641  0  1.03137  0  0  0.128874  0  1.029843  0  0  0.10281  0.123174  0  1.032816  0
H  H14  1  0.15072517  0.24700261  0.39310313  1  0  0.121344  0  0.963213  0  0  0.125748  0  1.031499  0  0  0.128987  0  1.029962  0  0  0.102887  0.123284  0  1.032949  0
H  H15  1  0.15072625  0.25300015  0.60689191  1  0  0.121375  0  0.963215  0  0  0.125795  0  1.031462  0  0  0.129035  0  1.029922  0  0  0.102883  0.123331  0  1.032913  0
H  H16  1  0.65072344  0.24700474  0.60689300  1  0  0.121315  0  0.963204  0  0  0.125692  0  1.03151  0  0  0.128931  0  1.029976  0  0  0.102854  0.123229  0  1.032961  0
H  H17  1  0.65072230  0.25300054  0.39310939  1  0  0.121314  0  0.963218  0  0  0.12577  0  1.031451  0  0  0.129005  0  1.029915  0  0  0.102858  0.123306  0  1.032904  0
H  H18  1  0.84928511  0.75299808  0.60689734  1  0  0.121249  0  0.96333  0  0  0.12568  0  1.031596  0  0  0.128919  0  1.030058  0  0  0.102868  0.123217  0  1.033043  0
H  H19  1  0.84928257  0.74700432  0.39310280  1  0  0.121358  0  0.96321  0  0  0.125756  0  1.031522  0  0  0.128996  0  1.029982  0  0  0.102855  0.123293  0  1.032972  0
H  H20  1  0.30988065  0.75443013  0.23415045  1  0  0.099086  0  0.972178  0  0  0.107165  0  1.03728  0  0  0.109861  0  1.036797  0  0  0.0937  0.105246  0  1.037699  0
H  H21  1  0.30986458  0.74556683  0.76585334  1  0  0.09914  0  0.972257  0  0  0.107231  0  1.037348  0  0  0.10993  0  1.036864  0  0  0.093713  0.105315  0  1.037764  0
H  H22  1  0.19011511  0.24556959  0.23414662  1  0  0.099121  0  0.972  0  0  0.107239  0  1.037076  0  0  0.109939  0  1.036589  0  0  0.093735  0.105321  0  1.037494  0
H  H23  1  0.19012660  0.25443156  0.76585086  1  0  0.099128  0  0.972135  0  0  0.107241  0  1.037199  0  0  0.10994  0  1.036713  0  0  0.093728  0.105323  0  1.037618  0
H  H24  1  0.69010925  0.24556905  0.76585065  1  0  0.099091  0  0.972113  0  0  0.10721  0  1.037181  0  0  0.109909  0  1.036694  0  0  0.093699  0.105291  0  1.037602  0
H  H25  1  0.69010932  0.25443840  0.23415096  1  0  0.099136  0  0.972205  0  0  0.107258  0  1.037246  0  0  0.109958  0  1.036757  0  0  0.093712  0.105339  0  1.037666  0
H  H26  1  0.80988498  0.75443337  0.76585513  1  0  0.099124  0  0.972069  0  0  0.107229  0  1.037151  0  0  0.109926  0  1.036669  0  0  0.093728  0.105312  0  1.037567  0
H  H27  1  0.80988076  0.74556762  0.23414385  1  0  0.09908  0  0.972114  0  0  0.107182  0  1.037194  0  0  0.109879  0  1.036712  0  0  0.093695  0.105263  0  1.037612  0
H  H28  1  0.91259305  0.00469374  0.25472744  1  0  0.100745  0  0.960666  0  0  0.109692  0  1.024749  0  0  0.112706  0  1.023577  0  0  0.096611  0.107569  0  1.025595  0
H  H29  1  0.91259679  0.49529955  0.74528562  1  0  0.100777  0  0.960813  0  0  0.109762  0  1.024817  0  0  0.112765  0  1.023668  0  0  0.096648  0.107639  0  1.025663  0
H  H30  1  0.58739814  0.99530194  0.25471992  1  0  0.100746  0  0.960896  0  0  0.109751  0  1.024888  0  0  0.112752  0  1.023737  0  0  0.096647  0.107627  0  1.025734  0
H  H31  1  0.58740651  0.50469432  0.74528042  1  0  0.10078  0  0.960901  0  0  0.109746  0  1.024924  0  0  0.112765  0  1.023754  0  0  0.096663  0.107623  0  1.025769  0
H  H32  1  0.08739976  0.99530620  0.74526791  1  0  0.10076  0  0.960715  0  0  0.109749  0  1.024754  0  0  0.112761  0  1.023594  0  0  0.096588  0.107626  0  1.025599  0
H  H33  1  0.08739457  0.50469888  0.25472381  1  0  0.100706  0  0.960769  0  0  0.109699  0  1.024807  0  0  0.11271  0  1.023646  0  0  0.096593  0.107575  0  1.025652  0
H  H34  1  0.41259759  0.00469724  0.74527223  1  0  0.100681  0  0.960849  0  0  0.109675  0  1.024887  0  0  0.112686  0  1.023725  0  0  0.096563  0.107551  0  1.025733  0
H  H35  1  0.41259358  0.49530184  0.25472644  1  0  0.100747  0  0.960772  0  0  0.109762  0  1.024775  0  0  0.112765  0  1.023625  0  0  0.096614  0.107638  0  1.025621  0
H  H36  1  0.94021200  0.89446200  0.12712256  1  0  0.287326  0  0.94309  0  0  0.273037  0  1.010267  0  0  0.279192  0  1.006105  0  0  0.265229  0.268435  0  1.013593  0
H  H37  1  0.94021000  0.60553790  0.87288303  1  0  0.287357  0  0.943126  0  0  0.273107  0  1.01025  0  0  0.279263  0  1.006087  0  0  0.265226  0.268503  0  1.01358  0
H  H38  1  0.55977988  0.10553823  0.12711671  1  0  0.287354  0  0.943124  0  0  0.27309  0  1.010211  0  0  0.279245  0  1.00605  0  0  0.265239  0.268488  0  1.013539  0
H  H39  1  0.55978970  0.39446048  0.87288021  1  0  0.287416  0  0.943082  0  0  0.273116  0  1.010231  0  0  0.279272  0  1.006066  0  0  0.265226  0.268513  0  1.013559  0
H  H40  1  0.05978809  0.10553567  0.87287342  1  0  0.28737  0  0.943104  0  0  0.273074  0  1.010272  0  0  0.279229  0  1.00611  0  0  0.265234  0.268473  0  1.013595  0
H  H41  1  0.05978281  0.39446355  0.12712319  1  0  0.287376  0  0.943101  0  0  0.273074  0  1.010278  0  0  0.279231  0  1.006114  0  0  0.265265  0.268473  0  1.013604  0
H  H42  1  0.44021584  0.89446700  0.87287544  1  0  0.287404  0  0.943152  0  0  0.273082  0  1.010319  0  0  0.279237  0  1.006159  0  0  0.265262  0.26848  0  1.013647  0
H  H43  1  0.44020893  0.60553870  0.12712089  1  0  0.287427  0  0.943096  0  0  0.273127  0  1.010235  0  0  0.279283  0  1.006072  0  0  0.265218  0.268519  0  1.013577  0
H  H44  1  0.11812024  0.81135707  0.11693697  1  0  0.301444  0  0.913384  0  0  0.28674  0  0.979206  0  0  0.293439  0  0.974108  0  0  0.272139  0.281897  0  0.982982  0
H  H45  1  0.11811728  0.68864416  0.88307000  1  0  0.301488  0  0.913501  0  0  0.28678  0  0.979325  0  0  0.29348  0  0.974228  0  0  0.272176  0.281937  0  0.983099  0
H  H46  1  0.38186732  0.18864884  0.11693013  1  0  0.301455  0  0.913368  0  0  0.286743  0  0.979226  0  0  0.293444  0  0.974125  0  0  0.272126  0.281898  0  0.983006  0
H  H47  1  0.38187629  0.31135259  0.88306737  1  0  0.30149  0  0.91332  0  0  0.286791  0  0.979146  0  0  0.293493  0  0.974042  0  0  0.272128  0.281947  0  0.982926  0
H  H48  1  0.88187549  0.18864438  0.88306093  1  0  0.301527  0  0.913306  0  0  0.286813  0  0.979138  0  0  0.293515  0  0.974036  0  0  0.272145  0.281968  0  0.982919  0
H  H49  1  0.88187263  0.31135956  0.11693879  1  0  0.301529  0  0.913312  0  0  0.286811  0  0.979139  0  0  0.293513  0  0.974036  0  0  0.272168  0.281967  0  0.98292  0
H  H50  1  0.61812259  0.81135865  0.88306266  1  0  0.301417  0  0.913403  0  0  0.286675  0  0.979253  0  0  0.293375  0  0.974156  0  0  0.272111  0.281832  0  0.983027  0
H  H51  1  0.61811506  0.68864433  0.11693118  1  0  0.301462  0  0.913403  0  0  0.286759  0  0.97923  0  0  0.293459  0  0.974131  0  0  0.272123  0.281916  0  0.983005  0
C  C52  1  0.02409439  0.94684510  0.37397491  1  0  -0.16561  0  3.771218  0  0  -0.191627  0  4.032047  0  0  -0.194249  0  4.050795  0  0  -0.09943  -0.189791  0  4.019774  0
C  C53  1  0.02408977  0.55314352  0.62603045  1  0  -0.165691  0  3.77123  0  0  -0.191772  0  4.032078  0  0  -0.194386  0  4.050807  0  0  -0.099547  -0.189939  0  4.01981  0
C  C54  1  0.47589756  0.05315853  0.37396663  1  0  -0.165697  0  3.772168  0  0  -0.191779  0  4.033005  0  0  -0.194402  0  4.051751  0  0  -0.099555  -0.189942  0  4.020725  0
C  C55  1  0.47590377  0.44684946  0.62602864  1  0  -0.165845  0  3.771544  0  0  -0.191913  0  4.032418  0  0  -0.194536  0  4.051166  0  0  -0.09961  -0.190078  0  4.020145  0
C  C56  1  0.97590861  0.05315937  0.62602044  1  0  -0.16576  0  3.771266  0  0  -0.191798  0  4.03212  0  0  -0.194424  0  4.050873  0  0  -0.099415  -0.189962  0  4.019846  0
C  C57  1  0.97590450  0.44684962  0.37397066  1  0  -0.165739  0  3.771366  0  0  -0.191804  0  4.032234  0  0  -0.194425  0  4.050975  0  0  -0.09958  -0.189972  0  4.019967  0
C  C58  1  0.52410253  0.94684066  0.62603000  1  0  -0.165799  0  3.771737  0  0  -0.191822  0  4.032614  0  0  -0.194442  0  4.051362  0  0  -0.099526  -0.189983  0  4.020333  0
C  C59  1  0.52410069  0.55316256  0.37397247  1  0  -0.16568  0  3.771503  0  0  -0.191691  0  4.032368  0  0  -0.194307  0  4.051104  0  0  -0.099482  -0.189856  0  4.020094  0
C  C60  1  0.25285841  0.80686810  0.36210669  1  0  -0.161116  0  3.763445  0  0  -0.18739  0  4.021754  0  0  -0.189335  0  4.039734  0  0  -0.099388  -0.186098  0  4.009943  0
C  C61  1  0.25284935  0.69312297  0.63790113  1  0  -0.161165  0  3.763567  0  0  -0.187473  0  4.021859  0  0  -0.189423  0  4.039859  0  0  -0.099363  -0.186183  0  4.010076  0
C  C62  1  0.24713957  0.19313464  0.36209647  1  0  -0.161229  0  3.763303  0  0  -0.187578  0  4.021627  0  0  -0.18952  0  4.039603  0  0  -0.099461  -0.186294  0  4.009838  0
C  C63  1  0.24713962  0.30686562  0.63789826  1  0  -0.161359  0  3.763354  0  0  -0.18765  0  4.021689  0  0  -0.189593  0  4.039665  0  0  -0.099476  -0.186364  0  4.009895  0
C  C64  1  0.74713441  0.19313033  0.63789378  1  0  -0.161187  0  3.763617  0  0  -0.187439  0  4.021906  0  0  -0.189399  0  4.039907  0  0  -0.099426  -0.186146  0  4.010089  0
C  C65  1  0.74713474  0.30687244  0.36210573  1  0  -0.161124  0  3.763546  0  0  -0.187482  0  4.021836  0  0  -0.189439  0  4.039853  0  0  -0.099418  -0.18619  0  4.01002  0
C  C66  1  0.75286634  0.80686228  0.63790400  1  0  -0.161097  0  3.763291  0  0  -0.187443  0  4.021618  0  0  -0.189384  0  4.039595  0  0  -0.099481  -0.186153  0  4.009809  0
C  C67  1  0.75286774  0.69313281  0.36209837  1  0  -0.161302  0  3.76329  0  0  -0.187651  0  4.021639  0  0  -0.189595  0  4.039619  0  0  -0.09956  -0.186356  0  4.009817  0
C  C68  1  0.23050770  0.80841370  0.27340640  1  0  -0.145127  0  3.731508  0  0  -0.158566  0  3.97873  0  0  -0.163066  0  4.000611  0  0  -0.099191  -0.155211  0  3.96359  0
C  C69  1  0.23049425  0.69157818  0.72660021  1  0  -0.145286  0  3.731782  0  0  -0.158721  0  3.979006  0  0  -0.163218  0  4.000888  0  0  -0.09922  -0.155369  0  3.963853  0
C  C70  1  0.26949613  0.19157289  0.27340314  1  0  -0.145174  0  3.732042  0  0  -0.158587  0  3.979333  0  0  -0.163087  0  4.001212  0  0  -0.099239  -0.15523  0  3.964186  0
C  C71  1  0.26950486  0.30842278  0.72659600  1  0  -0.145159  0  3.732094  0  0  -0.158597  0  3.979287  0  0  -0.163098  0  4.001166  0  0  -0.099188  -0.155242  0  3.964145  0
C  C72  1  0.76948366  0.19157869  0.72659278  1  0  -0.14515  0  3.731829  0  0  -0.158631  0  3.97907  0  0  -0.163125  0  4.000947  0  0  -0.099258  -0.155277  0  3.963933  0
C  C73  1  0.76948546  0.30842780  0.27340474  1  0  -0.145212  0  3.732037  0  0  -0.158641  0  3.979304  0  0  -0.16314  0  4.001177  0  0  -0.09917  -0.155285  0  3.964165  0
C  C74  1  0.73050395  0.80842629  0.72659605  1  0  -0.145217  0  3.732224  0  0  -0.158649  0  3.979469  0  0  -0.163152  0  4.001354  0  0  -0.09925  -0.155292  0  3.964322  0
C  C75  1  0.73051123  0.69157490  0.27339935  1  0  -0.145091  0  3.731827  0  0  -0.158483  0  3.979073  0  0  -0.162986  0  4.000957  0  0  -0.0991  -0.155126  0  3.963932  0
C  C76  1  0.10553169  0.87820747  0.23486657  1  0  0.255763  0  3.801928  0  0  0.251161  0  4.048122  0  0  0.257309  0  4.071456  0  0  0.068561  0.246951  0  4.032055  0
C  C77  1  0.10552698  0.62178397  0.76514044  1  0  0.256299  0  3.801923  0  0  0.251567  0  4.048258  0  0  0.257715  0  4.071593  0  0  0.068734  0.247358  0  4.03219  0
C  C78  1  0.39445388  0.12179001  0.23486425  1  0  0.255992  0  3.801484  0  0  0.25121  0  4.047951  0  0  0.257357  0  4.071283  0  0  0.068673  0.247002  0  4.031882  0
C  C79  1  0.39446275  0.37820912  0.76513321  1  0  0.25594  0  3.802143  0  0  0.251294  0  4.048383  0  0  0.257441  0  4.071721  0  0  0.068623  0.247084  0  4.032315  0
C  C80  1  0.89445676  0.12178870  0.76512622  1  0  0.255798  0  3.801797  0  0  0.25117  0  4.048033  0  0  0.257317  0  4.071365  0  0  0.068685  0.246959  0  4.031967  0
C  C81  1  0.89445565  0.37821521  0.23486898  1  0  0.255767  0  3.802056  0  0  0.25104  0  4.048414  0  0  0.257188  0  4.071749  0  0  0.068596  0.24683  0  4.032347  0
C  C82  1  0.60554475  0.87820993  0.76513494  1  0  0.255729  0  3.801952  0  0  0.251059  0  4.048225  0  0  0.257207  0  4.071562  0  0  0.068629  0.246849  0  4.032159  0
C  C83  1  0.60554607  0.62178855  0.23486342  1  0  0.256018  0  3.80162  0  0  0.251295  0  4.048021  0  0  0.257443  0  4.071355  0  0  0.068655  0.247084  0  4.031954  0
C  C84  1  0.00468314  0.94819432  0.28527974  1  0  -0.143561  0  3.727486  0  0  -0.155318  0  3.971492  0  0  -0.160257  0  3.994418  0  0  -0.097237  -0.151603  0  3.95547  0
C  C85  1  0.00467557  0.55179662  0.71473336  1  0  -0.143644  0  3.727314  0  0  -0.155368  0  3.971273  0  0  -0.160307  0  3.994227  0  0  -0.097218  -0.151652  0  3.955252  0
C  C86  1  0.49533214  0.05179316  0.28527907  1  0  -0.143516  0  3.72714  0  0  -0.155275  0  3.971188  0  0  -0.160206  0  3.994135  0  0  -0.097247  -0.151561  0  3.955169  0
C  C87  1  0.49533102  0.44820571  0.71472574  1  0  -0.143468  0  3.727316  0  0  -0.155232  0  3.97131  0  0  -0.160177  0  3.994237  0  0  -0.097189  -0.151519  0  3.955291  0
C  C88  1  0.99532132  0.05180335  0.71471113  1  0  -0.143534  0  3.727258  0  0  -0.155331  0  3.971281  0  0  -0.160275  0  3.994229  0  0  -0.097303  -0.151616  0  3.955257  0
C  C89  1  0.99531869  0.44820332  0.28527862  1  0  -0.14336  0  3.72746  0  0  -0.15514  0  3.971504  0  0  -0.16008  0  3.994446  0  0  -0.097195  -0.151426  0  3.955483  0
C  C90  1  0.50467231  0.94820527  0.71471692  1  0  -0.143321  0  3.727086  0  0  -0.155118  0  3.971106  0  0  -0.160053  0  3.994037  0  0  -0.097159  -0.151406  0  3.955088  0
C  C91  1  0.50467198  0.55179876  0.28527793  1  0  -0.143634  0  3.72699  0  0  -0.15545  0  3.97107  0  0  -0.16038  0  3.994003  0  0  -0.097308  -0.151737  0  3.955052  0
C  C92  1  0.14773313  0.87575448  0.41038235  1  0  0.291768  0  3.784463  0  0  0.272611  0  4.076072  0  0  0.282305  0  4.085278  0  0  0.086311  0.26507  0  4.070971  0
C  C93  1  0.14773280  0.62423609  0.58962772  1  0  0.292045  0  3.783986  0  0  0.27282  0  4.075682  0  0  0.282519  0  4.08489  0  0  0.08628  0.265277  0  4.070569  0
C  C94  1  0.35228441  0.12423673  0.41037635  1  0  0.291922  0  3.784288  0  0  0.272847  0  4.075806  0  0  0.28253  0  4.085028  0  0  0.086354  0.265307  0  4.070704  0
C  C95  1  0.35227880  0.37576175  0.58962444  1  0  0.292154  0  3.784058  0  0  0.272913  0  4.075775  0  0  0.282604  0  4.084985  0  0  0.086368  0.265368  0  4.070677  0
C  C96  1  0.85227569  0.12424772  0.58961748  1  0  0.291877  0  3.784321  0  0  0.272719  0  4.075918  0  0  0.282395  0  4.085152  0  0  0.086373  0.265176  0  4.070825  0
C  C97  1  0.85227165  0.37576233  0.41037978  1  0  0.291892  0  3.784045  0  0  0.272751  0  4.075674  0  0  0.282441  0  4.084881  0  0  0.086377  0.265202  0  4.070585  0
C  C98  1  0.64772732  0.87576245  0.58962092  1  0  0.292007  0  3.784084  0  0  0.27286  0  4.075711  0  0  0.282548  0  4.084921  0  0  0.086439  0.265324  0  4.070601  0
C  C99  1  0.64772420  0.62423970  0.41038050  1  0  0.29191  0  3.784293  0  0  0.272781  0  4.075884  0  0  0.282473  0  4.085091  0  0  0.086398  0.265241  0  4.070785  0
Br  Br100  1  0.58894850  0.88086758  0.07451592  1  0  -0.530767  0  1.014028  0  0  -0.470155  0  1.307988  0  0  -0.488299  0  1.286732  0  0  -0.254971  -0.457005  0  1.322672  0
Br  Br101  1  0.58896149  0.61913397  0.92549210  1  0  -0.530744  0  1.013997  0  0  -0.470151  0  1.307943  0  0  -0.488299  0  1.286697  0  0  -0.254945  -0.457  0  1.322626  0
Br  Br102  1  0.91105591  0.11914790  0.07448920  1  0  -0.530757  0  1.014122  0  0  -0.470131  0  1.308058  0  0  -0.488297  0  1.286846  0  0  -0.254948  -0.456969  0  1.322718  0
Br  Br103  1  0.91107370  0.38084690  0.92549059  1  0  -0.530781  0  1.01395  0  0  -0.470157  0  1.307881  0  0  -0.488318  0  1.286662  0  0  -0.254953  -0.456995  0  1.322542  0
Br  Br104  1  0.41106469  0.11914445  0.92548391  1  0  -0.530755  0  1.013957  0  0  -0.470139  0  1.307911  0  0  -0.48828  0  1.286655  0  0  -0.254958  -0.456984  0  1.322581  0
Br  Br105  1  0.41106334  0.38084860  0.07450645  1  0  -0.530793  0  1.01404  0  0  -0.470162  0  1.307971  0  0  -0.488325  0  1.286751  0  0  -0.254955  -0.456999  0  1.322633  0
Br  Br106  1  0.08895290  0.88086639  0.92548183  1  0  -0.530758  0  1.013992  0  0  -0.470138  0  1.307943  0  0  -0.488283  0  1.286689  0  0  -0.254955  -0.456993  0  1.322634  0
Br  Br107  1  0.08895694  0.61913340  0.07451372  1  0  -0.530767  0  1.014095  0  0  -0.470142  0  1.308022  0  0  -0.488288  0  1.286772  0  0  -0.254939  -0.456992  0  1.32271  0
N  N108  1  0.08185098  0.87939051  0.14407293  1  0  -0.658059  0  3.191854  0  0  -0.59884  0  3.41855  0  0  -0.620209  0  3.419594  0  0  -0.614576  -0.583744  0  3.417826  0
N  N109  1  0.08184766  0.62060854  0.85593288  1  0  -0.658363  0  3.192115  0  0  -0.599028  0  3.418617  0  0  -0.620393  0  3.419647  0  0  -0.614678  -0.583933  0  3.417899  0
N  N110  1  0.41814631  0.12060816  0.14406668  1  0  -0.658278  0  3.19187  0  0  -0.598916  0  3.418488  0  0  -0.620281  0  3.419522  0  0  -0.614626  -0.583823  0  3.417772  0
N  N111  1  0.41815364  0.37939015  0.85592878  1  0  -0.658292  0  3.191719  0  0  -0.599006  0  3.418377  0  0  -0.620374  0  3.419411  0  0  -0.61457  -0.58391  0  3.417661  0
N  N112  1  0.91815202  0.12060867  0.85592562  1  0  -0.658237  0  3.191729  0  0  -0.598952  0  3.418343  0  0  -0.620322  0  3.419384  0  0  -0.614619  -0.583858  0  3.417624  0
N  N113  1  0.91814952  0.37939215  0.14407398  1  0  -0.658202  0  3.191877  0  0  -0.598865  0  3.418504  0  0  -0.620232  0  3.419543  0  0  -0.614631  -0.583771  0  3.417784  0
N  N114  1  0.58184651  0.87939555  0.85592675  1  0  -0.658138  0  3.191987  0  0  -0.598776  0  3.418715  0  0  -0.620147  0  3.419763  0  0  -0.614584  -0.583679  0  3.417989  0
N  N115  1  0.58184499  0.62060677  0.14406849  1  0  -0.658324  0  3.191884  0  0  -0.598946  0  3.418497  0  0  -0.620311  0  3.41953  0  0  -0.614558  -0.583848  0  3.417778  0
F  F116  1  0.16814119  0.87426402  0.49784594  1  0  -0.226807  0  1.207035  0  0  -0.166959  0  1.370407  0  0  -0.177984  0  1.361961  0  0  -0.097937  -0.158423  0  1.376272  0
F  F117  1  0.16813068  0.62573180  0.50215767  1  0  -0.226971  0  1.206648  0  0  -0.167106  0  1.370034  0  0  -0.178133  0  1.361586  0  0  -0.098042  -0.158573  0  1.375902  0
F  F118  1  0.33187488  0.12573275  0.49784130  1  0  -0.226824  0  1.206854  0  0  -0.167029  0  1.37022  0  0  -0.178036  0  1.361763  0  0  -0.09797  -0.158499  0  1.376091  0
F  F119  1  0.33186493  0.37426804  0.50215956  1  0  -0.226967  0  1.206861  0  0  -0.167077  0  1.370246  0  0  -0.1781  0  1.361798  0  0  -0.098035  -0.158532  0  1.376105  0
F  F120  1  0.83186327  0.12574197  0.50215580  1  0  -0.226763  0  1.206952  0  0  -0.166978  0  1.370388  0  0  -0.17796  0  1.361912  0  0  -0.097956  -0.158446  0  1.376257  0
F  F121  1  0.83187086  0.37426965  0.49784536  1  0  -0.226865  0  1.206872  0  0  -0.167009  0  1.370222  0  0  -0.17803  0  1.361776  0  0  -0.097993  -0.158456  0  1.376072  0
F  F122  1  0.66814558  0.87426492  0.50215597  1  0  -0.22688  0  1.206919  0  0  -0.167046  0  1.370299  0  0  -0.178062  0  1.361849  0  0  -0.098021  -0.158518  0  1.376166  0
F  F123  1  0.66812933  0.62573643  0.49784539  1  0  -0.226845  0  1.206883  0  0  -0.166999  0  1.370251  0  0  -0.178021  0  1.361799  0  0  -0.097979  -0.158464  0  1.376113  0
