# generated using pymatgen
data_ZnH3C11Br2N(O2F)2
_symmetry_space_group_name_H-M   'P 1'
_cell_length_a   9.83721356
_cell_length_b   11.01881605
_cell_length_c   11.00742398
_cell_angle_alpha   89.88224783
_cell_angle_beta   89.45212186
_cell_angle_gamma   90.66697722
_symmetry_Int_Tables_number   1
_chemical_formula_structural   ZnH3C11Br2N(O2F)2
_chemical_formula_sum   'Zn2 H6 C22 Br4 N2 O8 F4'
_cell_volume   1193.00544453
_cell_formula_units_Z   2
loop_
 _symmetry_equiv_pos_site_id
 _symmetry_equiv_pos_as_xyz
  1  'x, y, z'
loop_
 _atom_site_type_symbol
 _atom_site_label
 _atom_site_symmetry_multiplicity
 _atom_site_fract_x
 _atom_site_fract_y
 _atom_site_fract_z
 _atom_site_occupancy
 _atom_site_pbe_bader_charge
 _atom_site_pbe_bader_spin_density
 _atom_site_pbe_cm5_charge
 _atom_site_pbe_ddec_charge
 _atom_site_pbe_ddec_spin_density
 _atom_site_pbe_ddec_sum_bond_order
 _atom_site_pbe_magmom
Zn  Zn0  1  0.35564472  0.49792987  0.49879399  1  1.289978  0  0.676875  0.839124  0  2.41951  0
Zn  Zn1  1  0.64227551  0.50195308  0.49657934  1  1.306945  0  0.6704  0.864739  0  2.345069  0
H  H2  1  0.73454285  0.49984228  0.10997588  1  0.117788  0  0.110702  0.116893  0  0.99565  0
H  H3  1  0.73653457  0.51448395  0.88432439  1  0.112954  0  0.111228  0.117528  0  0.993662  0
H  H4  1  0.67204138  0.12100428  0.43312990  1  0.120739  0  0.107857  0.119321  0  0.99645  0
H  H5  1  0.67185913  0.89351992  0.41812137  1  0.116692  0  0.110174  0.12024  0  0.985845  0
H  H6  1  0.13704191  0.67730771  0.56291119  1  0.206104  0  0.133997  0.149562  0  0.999203  0
H  H7  1  0.13297651  0.32061218  0.43564364  1  0.20124  0  0.138633  0.152652  0  0.974938  0
C  C8  1  0.47558126  0.26431853  0.51850401  1  1.550473  0  0.219591  0.620206  0  4.15335  0
C  C9  1  0.47725869  0.73556902  0.49006426  1  1.586696  0  0.219106  0.620389  0  4.155318  0
C  C10  1  0.93632003  0.59610215  0.53290162  1  1.068314  0  0.26161  0.431913  0  4.036771  0
C  C11  1  0.93435142  0.40495697  0.45850610  1  1.055235  0  0.262947  0.432623  0  4.036507  0
C  C12  1  0.07782441  0.59823281  0.53501263  1  0.647537  0  0.057389  -0.086689  0  3.886131  0
C  C13  1  0.07559251  0.40038016  0.46185616  1  0.663185  0  0.0574  -0.087813  0  3.891937  0
C  C14  1  0.51973503  0.48633701  0.26386545  1  1.550242  0  0.217013  0.598885  0  4.172154  0
C  C15  1  0.52397883  0.51513824  0.73092809  1  1.552314  0  0.217698  0.600382  0  4.168108  0
C  C16  1  0.39799625  0.49351942  0.06073737  1  0.023241  0  -0.012405  0.009383  0  3.924221  0
C  C17  1  0.39919493  0.50292630  0.93427308  1  -0.020019  0  -0.011733  0.010768  0  3.925679  0
C  C18  1  0.51761249  0.49224724  0.12837221  1  0.02373  0  -0.000256  -0.026327  0  3.904064  0
C  C19  1  0.51994277  0.51029163  0.86642612  1  0.084406  0  0.000412  -0.026484  0  3.906512  0
C  C20  1  0.63901970  0.50038202  0.06066361  1  0.010103  0  -0.06666  -0.073976  0  3.918674  0
C  C21  1  0.64018654  0.50889942  0.93385527  1  0.007578  0  -0.065167  -0.071097  0  3.918081  0
C  C22  1  0.24706061  0.50080772  0.92311085  1  0.002257  0  0.005142  0.095888  0  3.640968  0
C  C23  1  0.24577461  0.48627616  0.07143295  1  -0.006105  0  0.007148  0.102436  0  3.632882  0
C  C24  1  0.58704635  0.06668936  0.46797800  1  -0.088636  0  -0.084609  -0.089461  0  3.992608  0
C  C25  1  0.58684555  0.94107887  0.45954510  1  0.023344  0  -0.08511  -0.088675  0  3.994343  0
C  C26  1  0.47658195  0.87102090  0.50315560  1  0.040339  0  -0.017689  -0.11281  0  3.974594  0
C  C27  1  0.47685356  0.12818119  0.52020489  1  0.141597  0  -0.019031  -0.113308  0  3.975311  0
C  C28  1  0.36845680  0.93203726  0.55825215  1  0.458984  0  0.096637  0.159593  0  4.043891  0
C  C29  1  0.36863627  0.05852380  0.56686399  1  0.535735  0  0.096849  0.159998  0  4.054971  0
Br  Br30  1  0.17165609  0.65237925  0.86113264  1  -0.049916  0  -0.001612  -0.073537  0  1.42695  0
Br  Br31  1  0.17623426  0.33043425  0.13353080  1  -0.059279  0  -0.007121  -0.080759  0  1.401409  0
Br  Br32  1  0.17056950  0.36586219  0.83062702  1  -0.036848  0  0.000258  -0.057085  0  1.441458  0
Br  Br33  1  0.15921229  0.61610400  0.16370391  1  -0.054089  0  -0.008696  -0.069598  0  1.41794  0
N  N34  1  0.14399777  0.49870077  0.49973410  1  -1.198554  0  -0.288754  -0.094907  0  3.562018  0
N  N35  1  0.86394499  0.50106969  0.49443586  1  -1.243804  0  -0.29023  -0.349127  0  3.416036  0
O  O36  1  0.35965588  0.31415637  0.51325319  1  -1.153474  0  -0.31696  -0.546262  0  2.356399  0
O  O37  1  0.36213729  0.68191685  0.48557689  1  -1.161267  0  -0.318701  -0.54911  0  2.361553  0
O  O38  1  0.59014192  0.31866645  0.51860937  1  -1.170457  0  -0.315948  -0.556779  0  2.320624  0
O  O39  1  0.59267038  0.68537479  0.48344414  1  -1.163511  0  -0.315292  -0.555223  0  2.320536  0
O  O40  1  0.40507429  0.48204547  0.31747556  1  -1.160352  0  -0.309283  -0.540913  0  2.393645  0
O  O41  1  0.40971450  0.51527518  0.67824598  1  -1.162423  0  -0.309751  -0.54488  0  2.39515  0
O  O42  1  0.63617500  0.48762370  0.31393473  1  -1.155153  0  -0.319939  -0.545618  0  2.321852  0
O  O43  1  0.64078371  0.51710793  0.67987040  1  -1.146493  0  -0.31848  -0.541044  0  2.316722  0
F  F44  1  0.26030194  0.87217450  0.60829463  1  -0.629361  0  -0.096478  -0.120881  0  1.398657  0
F  F45  1  0.26106333  0.10962648  0.62384792  1  -0.621388  0  -0.100088  -0.119642  0  1.385882  0
F  F46  1  0.86733183  0.69257346  0.57009049  1  -0.604436  0  -0.048652  -0.097165  0  1.358769  0
F  F47  1  0.86348468  0.30994434  0.41756936  1  -0.612183  0  -0.050419  -0.103352  0  1.361709  0
