# generated using pymatgen
data_AlH2C11Cl5O5F3
_symmetry_space_group_name_H-M   'P 1'
_cell_length_a   7.17458816
_cell_length_b   16.52123401
_cell_length_c   16.62217757
_cell_angle_alpha   100.77137158
_cell_angle_beta   90.00012297
_cell_angle_gamma   89.99981943
_symmetry_Int_Tables_number   1
_chemical_formula_structural   AlH2C11Cl5O5F3
_chemical_formula_sum   'Al4 H8 C44 Cl20 O20 F12'
_cell_volume   1935.56260318
_cell_formula_units_Z   4
loop_
 _symmetry_equiv_pos_site_id
 _symmetry_equiv_pos_as_xyz
  1  'x, y, z'
loop_
 _atom_site_type_symbol
 _atom_site_label
 _atom_site_symmetry_multiplicity
 _atom_site_fract_x
 _atom_site_fract_y
 _atom_site_fract_z
 _atom_site_occupancy
 _atom_site_pbe_bader_charge
 _atom_site_pbe_bader_spin_density
 _atom_site_pbe_cm5_charge
 _atom_site_pbe_ddec_charge
 _atom_site_pbe_ddec_spin_density
 _atom_site_pbe_ddec_sum_bond_order
 _atom_site_pbe_magmom
Al  Al0  1  0.16123234  0.50143845  0.49452843  1  2.509448  0  0.418804  1.667341  0  2.441793  0
Al  Al1  1  0.66123320  0.49856061  0.50547163  1  2.509467  0  0.418807  1.66729  0  2.441834  0
Al  Al2  1  0.60492833  0.99493801  0.99807991  1  2.506791  0  0.423847  1.658724  0  2.468512  0
Al  Al3  1  0.10493005  0.00506260  0.00191828  1  2.506814  0  0.423944  1.658723  0  2.468417  0
H  H4  1  0.18682799  0.83442673  0.31320387  1  0.135726  0  0.107176  0.139303  0  1.019493  0
H  H5  1  0.68683213  0.16557256  0.68679437  1  0.135701  0  0.107187  0.139303  0  1.019444  0
H  H6  1  0.99184331  0.62324341  0.76912202  1  0.141736  0  0.087836  0.090554  0  1.083857  0
H  H7  1  0.49184486  0.37675584  0.23087828  1  0.141739  0  0.087845  0.090551  0  1.08388  0
H  H8  1  0.41951856  0.60555780  0.49310685  1  0.591256  0  0.314763  0.399182  0  0.912421  0
H  H9  1  0.91952158  0.39444516  0.50690626  1  0.591158  0  0.314712  0.399159  0  0.912439  0
H  H10  1  0.34272866  0.89323263  0.00592782  1  0.584655  0  0.332067  0.417941  0  0.87247  0
H  H11  1  0.84272775  0.10676760  0.99406686  1  0.584595  0  0.332076  0.417921  0  0.872479  0
C  C12  1  0.41646249  0.38539786  0.39065334  1  1.647764  0  0.265406  0.662377  0  3.998179  0
C  C13  1  0.91645884  0.61460138  0.60934630  1  1.647846  0  0.265394  0.662299  0  3.998318  0
C  C14  1  0.39924238  0.42053911  0.60375756  1  1.613736  0  0.27276  0.678942  0  4.038124  0
C  C15  1  0.89922958  0.57946159  0.39624328  1  1.613933  0  0.27271  0.678843  0  4.038305  0
C  C16  1  0.88096213  0.86425607  0.16378258  1  0.068668  0  -0.025491  -0.263072  0  3.951853  0
C  C17  1  0.38095860  0.13574624  0.83621703  1  0.06813  0  -0.025473  -0.263154  0  3.951668  0
C  C18  1  0.87385496  0.63121536  0.33105935  1  0.100731  0  -0.016247  -0.140485  0  3.913075  0
C  C19  1  0.37386287  0.36878779  0.66894148  1  0.100656  0  -0.01618  -0.140432  0  3.913018  0
C  C20  1  0.67412602  0.67129986  0.22385794  1  0.134023  0  0.010292  0.055215  0  4.024478  0
C  C21  1  0.17412498  0.32870259  0.77614091  1  0.133846  0  0.010262  0.055195  0  4.024293  0
C  C22  1  0.71515726  0.61865233  0.27794793  1  0.085288  0  0.010009  0.062732  0  4.01652  0
C  C23  1  0.21516255  0.38135021  0.72204850  1  0.0854  0  0.010047  0.062817  0  4.016332  0
C  C24  1  0.99123984  0.69708708  0.32604866  1  0.091656  0  0.027609  0.096463  0  3.957352  0
C  C25  1  0.49124686  0.30291411  0.67395225  1  0.091753  0  0.027596  0.09646  0  3.957146  0
C  C26  1  0.95284428  0.75340006  0.27246335  1  0.019561  0  -0.002758  0.073964  0  4.006571  0
C  C27  1  0.45284359  0.24660262  0.72753876  1  0.019407  0  -0.002745  0.073977  0  4.006495  0
C  C28  1  0.79258691  0.73986451  0.21948237  1  0.058343  0  -0.0141  -0.080607  0  3.973198  0
C  C29  1  0.29258918  0.26013814  0.78051840  1  0.058256  0  -0.014128  -0.080614  0  3.973077  0
C  C30  1  0.76638159  0.79680824  0.16550538  1  0.502075  0  0.121439  0.277907  0  3.964843  0
C  C31  1  0.26638313  0.20319603  0.83449416  1  0.50326  0  0.121367  0.277902  0  3.964811  0
C  C32  1  0.03161731  0.87564427  0.22011697  1  0.487309  0  0.113554  0.317716  0  4.059104  0
C  C33  1  0.53160966  0.12435643  0.77988117  1  0.487932  0  0.113524  0.317716  0  4.058664  0
C  C34  1  0.06848804  0.82243572  0.27198501  1  0.075501  0  -0.112601  -0.284115  0  4.025327  0
C  C35  1  0.56848951  0.17756467  0.72801499  1  0.075734  0  -0.112548  -0.284091  0  4.025094  0
C  C36  1  0.72149952  0.81416794  0.74718512  1  1.164965  0  0.18892  0.393996  0  3.908099  0
C  C37  1  0.22151231  0.18582983  0.25281498  1  1.165465  0  0.188906  0.393895  0  3.908178  0
C  C38  1  0.76355768  0.75881742  0.66193457  1  0.675223  0  0.108222  0.209219  0  3.879122  0
C  C39  1  0.26356072  0.24118201  0.33806495  1  0.67581  0  0.108169  0.20903  0  3.879328  0
C  C40  1  0.88413515  0.73626236  0.84023595  1  0.697542  0  0.130972  0.337359  0  3.75107  0
C  C41  1  0.38413717  0.26373461  0.15976427  1  0.697526  0  0.130942  0.337314  0  3.750893  0
C  C42  1  0.07165174  0.82976154  0.75866530  1  0.256806  0  0.053863  0.154472  0  3.6934  0
C  C43  1  0.57166205  0.17023775  0.24133531  1  0.256627  0  0.053842  0.154193  0  3.693615  0
C  C44  1  0.88901867  0.82091946  0.80893209  1  0.016166  0  -0.024887  -0.259301  0  3.702052  0
C  C45  1  0.38902981  0.17907909  0.19106691  1  0.016366  0  -0.024879  -0.258967  0  3.701688  0
C  C46  1  0.90944368  0.69371821  0.67884917  1  0.038855  0  -0.017707  -0.14154  0  3.663615  0
C  C47  1  0.40944896  0.30628175  0.32115107  1  0.038652  0  -0.017734  -0.141434  0  3.663437  0
C  C48  1  0.87374996  0.66337646  0.76336725  1  0.081737  0  -0.065274  -0.071961  0  3.744185  0
C  C49  1  0.37375322  0.33662271  0.23663174  1  0.081786  0  -0.065267  -0.071907  0  3.744089  0
C  C50  1  0.09786524  0.74303832  0.69102301  1  0.237206  0  0.055019  0.147414  0  3.654921  0
C  C51  1  0.59787386  0.25696154  0.30897762  1  0.237436  0  0.054991  0.147402  0  3.655261  0
C  C52  1  0.36225404  0.08238797  0.89947712  1  1.634904  0  0.279194  0.699538  0  4.050158  0
C  C53  1  0.86226803  0.91761436  0.10052248  1  1.634944  0  0.279152  0.699288  0  4.050379  0
C  C54  1  0.35971810  0.10743644  0.11586322  1  1.672388  0  0.269214  0.679404  0  4.017498  0
C  C55  1  0.85971657  0.89256056  0.88413698  1  1.672026  0  0.269396  0.67981  0  4.01716  0
Cl  Cl56  1  0.55762671  0.72300794  0.61374064  1  -0.123428  0  0.005158  -0.067816  0  1.976097  0
Cl  Cl57  1  0.05763670  0.27699344  0.38625812  1  -0.124053  0  0.005211  -0.067738  0  1.976206  0
Cl  Cl58  1  0.67658766  0.59986837  0.76805691  1  -0.160019  0  -0.015593  -0.022942  0  1.569378  0
Cl  Cl59  1  0.17659044  0.40013030  0.23194439  1  -0.160015  0  -0.015588  -0.022956  0  1.569403  0
Cl  Cl60  1  0.27457356  0.85082375  0.81584145  1  -0.083645  0  0.019467  -0.012294  0  1.977904  0
Cl  Cl61  1  0.77458514  0.14917624  0.18416114  1  -0.083614  0  0.019492  -0.012218  0  1.977983  0
Cl  Cl62  1  0.04467136  0.92063880  0.71417794  1  -0.147117  0  -0.022448  -0.07391  0  1.558448  0
Cl  Cl63  1  0.54468115  0.07936014  0.28582387  1  -0.147155  0  -0.022479  -0.073906  0  1.558507  0
Cl  Cl64  1  0.17789461  0.76547139  0.59625166  1  -0.129792  0  -0.011749  -0.061118  0  1.839916  0
Cl  Cl65  1  0.67790107  0.23452909  0.40374964  1  -0.129777  0  -0.011737  -0.061107  0  1.839999  0
Cl  Cl66  1  0.26240741  0.67799752  0.72693905  1  -0.124963  0  0.011238  -0.050531  0  1.935647  0
Cl  Cl67  1  0.76241121  0.32200274  0.27306169  1  -0.124987  0  0.01125  -0.050515  0  1.935728  0
Cl  Cl68  1  0.07452792  0.72101103  0.90525645  1  -0.171258  0  -0.022248  -0.107751  0  1.470717  0
Cl  Cl69  1  0.57452837  0.27898901  0.09474172  1  -0.171353  0  -0.022261  -0.107779  0  1.470649  0
Cl  Cl70  1  0.47586648  0.65222555  0.16533174  1  -0.156644  0  0.005574  -0.048048  0  1.616346  0
Cl  Cl71  1  0.97586724  0.34777644  0.83466365  1  -0.156583  0  0.005594  -0.048032  0  1.616396  0
Cl  Cl72  1  0.57058620  0.53578636  0.27757579  1  -0.158  0  0.025152  -0.025796  0  1.791551  0
Cl  Cl73  1  0.07058392  0.46421397  0.72241748  1  -0.157956  0  0.025112  -0.025879  0  1.791508  0
Cl  Cl74  1  0.18683695  0.71648779  0.38707290  1  -0.175333  0  0.03146  -0.024781  0  1.64328  0
Cl  Cl75  1  0.68684686  0.28351208  0.61292840  1  -0.175299  0  0.031492  -0.024758  0  1.643219  0
O  O76  1  0.56267324  0.44323005  0.58860435  1  -1.231308  0  -0.227468  -0.580282  0  2.363797  0
O  O77  1  0.06266321  0.55676913  0.41139564  1  -1.231386  0  -0.227453  -0.580243  0  2.363905  0
O  O78  1  0.26005621  0.41930537  0.40714955  1  -1.241286  0  -0.229217  -0.582042  0  2.492787  0
O  O79  1  0.76005133  0.58069576  0.59284936  1  -1.241364  0  -0.229206  -0.582011  0  2.492847  0
O  O80  1  0.24913746  0.43410199  0.56779356  1  -1.249859  0  -0.233377  -0.5955  0  2.406923  0
O  O81  1  0.74912772  0.56589734  0.43220534  1  -1.249972  0  -0.233337  -0.595419  0  2.406949  0
O  O82  1  0.07274770  0.59104873  0.57798512  1  -1.251534  0  -0.234319  -0.59518  0  2.441739  0
O  O83  1  0.57275159  0.40895153  0.42201427  1  -1.251533  0  -0.234325  -0.595246  0  2.441693  0
O  O84  1  0.41222917  0.54921228  0.50193558  1  -1.401408  0  -0.459253  -0.968516  0  2.070498  0
O  O85  1  0.91223313  0.45078707  0.49806467  1  -1.401324  0  -0.459189  -0.968469  0  2.070462  0
O  O86  1  0.19388421  0.08863925  0.09312681  1  -1.229701  0  -0.226752  -0.563275  0  2.314729  0
O  O87  1  0.69386174  0.91135490  0.90687633  1  -1.22945  0  -0.226848  -0.563563  0  2.314349  0
O  O88  1  0.51831610  0.05889633  0.92303208  1  -1.244748  0  -0.227988  -0.59358  0  2.389331  0
O  O89  1  0.01830725  0.94110351  0.07696788  1  -1.244846  0  -0.227944  -0.593467  0  2.38977  0
O  O90  1  0.50832317  0.07832252  0.08258172  1  -1.25292  0  -0.225874  -0.588342  0  2.524224  0
O  O91  1  0.00830321  0.92167541  0.91741762  1  -1.252748  0  -0.225973  -0.588442  0  2.524455  0
O  O92  1  0.70051229  0.93298391  0.07562414  1  -1.245324  0  -0.228364  -0.588468  0  2.319487  0
O  O93  1  0.20051525  0.06702116  0.92437596  1  -1.245517  0  -0.228295  -0.588529  0  2.319745  0
O  O94  1  0.35206241  0.94956562  0.99717601  1  -1.388409  0  -0.456336  -0.97277  0  2.061696  0
O  O95  1  0.85206267  0.05043494  0.00282052  1  -1.388279  0  -0.456348  -0.972737  0  2.061689  0
F  F96  1  0.62791223  0.78328565  0.10978519  1  -0.611694  0  -0.082625  -0.111805  0  1.439242  0
F  F97  1  0.12791395  0.21671712  0.89021179  1  -0.612573  0  -0.082602  -0.111823  0  1.439349  0
F  F98  1  0.73308967  0.73581624  0.89164650  1  -0.596182  0  -0.1119  -0.156375  0  1.415415  0
F  F99  1  0.23309144  0.26418175  0.10835484  1  -0.596293  0  -0.111864  -0.156361  0  1.415377  0
F  F100  1  0.14346462  0.94189363  0.22437751  1  -0.615956  0  -0.080036  -0.106359  0  1.396307  0
F  F101  1  0.64345603  0.05810079  0.77561702  1  -0.616288  0  -0.080094  -0.106411  0  1.396078  0
F  F102  1  0.58152237  0.77475718  0.77932586  1  -0.623638  0  -0.094634  -0.161695  0  1.666685  0
F  F103  1  0.08153054  0.22524126  0.22067353  1  -0.623866  0  -0.094626  -0.161714  0  1.666663  0
F  F104  1  0.65639445  0.88874746  0.73671629  1  -0.606257  0  -0.099575  -0.159921  0  1.446549  0
F  F105  1  0.15640503  0.11125111  0.26328438  1  -0.606257  0  -0.099552  -0.159883  0  1.446592  0
F  F106  1  0.83247283  0.80886078  0.61042885  1  -0.609656  0  -0.120289  -0.159471  0  1.505654  0
F  F107  1  0.33247927  0.19113891  0.38957256  1  -0.609746  0  -0.120253  -0.159396  0  1.505627  0
