# generated using pymatgen
data_Cd3H34C40(NO4)4
_symmetry_space_group_name_H-M   'P 1'
_cell_length_a   14.81967182
_cell_length_b   15.69719494
_cell_length_c   16.08861674
_cell_angle_alpha   107.39344855
_cell_angle_beta   100.74780921
_cell_angle_gamma   100.75786376
_symmetry_Int_Tables_number   1
_chemical_formula_structural   Cd3H34C40(NO4)4
_chemical_formula_sum   'Cd9 H102 C120 N12 O48'
_cell_volume   3389.54841196
_cell_formula_units_Z   3
loop_
 _symmetry_equiv_pos_site_id
 _symmetry_equiv_pos_as_xyz
  1  'x, y, z'
loop_
 _atom_site_type_symbol
 _atom_site_label
 _atom_site_symmetry_multiplicity
 _atom_site_fract_x
 _atom_site_fract_y
 _atom_site_fract_z
 _atom_site_occupancy
 _atom_site_pbe_bader_charge
 _atom_site_pbe_bader_spin_density
 _atom_site_pbe_cm5_charge
 _atom_site_pbe_ddec_charge
 _atom_site_pbe_ddec_spin_density
 _atom_site_pbe_ddec_sum_bond_order
 _atom_site_pbe_magmom
Cd  Cd0  1  0.75149264  0.96607822  0.54000836  1  1.323541  0  0.776753  1.020196  0  2.035535  0
Cd  Cd1  1  0.24850758  0.03392494  0.45999310  1  1.323522  0  0.776786  1.020246  0  2.035467  0
Cd  Cd2  1  0.57824147  0.04171784  0.12120325  1  1.331675  0  0.783724  1.028563  0  2.059914  0
Cd  Cd3  1  0.42175614  0.95828326  0.87879650  1  1.331727  0  0.783724  1.028556  0  2.059904  0
Cd  Cd4  1  0.64726541  0.00461868  0.33765235  1  1.391336  0  0.809636  1.117373  0  2.163737  0
Cd  Cd5  1  0.35273771  0.99537748  0.66234660  1  1.391253  0  0.809667  1.117407  0  2.163621  0
Cd  Cd6  1  0.90881096  0.05105230  0.79068200  1  1.328416  0  0.779934  1.025738  0  2.068253  0
Cd  Cd7  1  0.09119262  0.94894599  0.20932073  1  1.328425  0  0.779941  1.025741  0  2.068302  0
Cd  Cd8  1  0.00000320  0.99999928  0.00000109  1  1.39927  0  0.811431  1.125748  0  2.127301  0
H  H9  1  0.23572676  0.56631569  0.28213348  1  0.454574  0  0.320808  0.272448  0  0.941996  0
H  H10  1  0.76427860  0.43368316  0.71786417  1  0.454647  0  0.320818  0.272399  0  0.942206  0
H  H11  1  0.47316209  0.71138178  0.43106535  1  0.130411  0  0.11112  0.134436  0  1.016611  0
H  H12  1  0.52684790  0.28861630  0.56893182  1  0.130639  0  0.111139  0.134334  0  1.016712  0
H  H13  1  0.19837560  0.69429217  0.26770435  1  0.121024  0  0.110667  0.123483  0  0.99021  0
H  H14  1  0.80162817  0.30570681  0.73229860  1  0.120925  0  0.110677  0.123485  0  0.990159  0
H  H15  1  0.41545891  0.95040547  0.37565774  1  0.12734  0  0.107914  0.114449  0  1.023264  0
H  H16  1  0.58454713  0.04959212  0.62434718  1  0.127421  0  0.107927  0.114408  0  1.023179  0
H  H17  1  0.32397928  0.40465316  0.43907224  1  0.062855  0  0.110677  0.116139  0  0.982736  0
H  H18  1  0.67601918  0.59534941  0.56093368  1  0.062969  0  0.110686  0.116166  0  0.982743  0
H  H19  1  0.24501092  0.23527437  0.36040601  1  0.131424  0  0.110978  0.123496  0  1.011548  0
H  H20  1  0.75498587  0.76473040  0.63960512  1  0.131561  0  0.111041  0.123596  0  1.011485  0
H  H21  1  0.16667308  0.28282273  0.11073650  1  0.105248  0  0.105137  0.107992  0  1.0279  0
H  H22  1  0.83331392  0.71717382  0.88926916  1  0.104881  0  0.105142  0.107962  0  1.028021  0
H  H23  1  0.24368673  0.44975570  0.18701897  1  0.027195  0  0.099099  0.093207  0  1.02606  0
H  H24  1  0.75630517  0.55024355  0.81298781  1  0.027108  0  0.099068  0.093161  0  1.026179  0
H  H25  1  0.09200515  0.41619262  0.42024306  1  0.431665  0  0.313949  0.26188  0  0.9713  0
H  H26  1  0.90798390  0.58380641  0.57974875  1  0.432011  0  0.313884  0.261779  0  0.97156  0
H  H27  1  0.84632662  0.28178134  0.28565849  1  0.141611  0  0.109363  0.124771  0  1.044445  0
H  H28  1  0.15366383  0.71821234  0.71434401  1  0.141762  0  0.109336  0.124692  0  1.044452  0
H  H29  1  0.12164106  0.28722533  0.43708725  1  0.117345  0  0.107116  0.115604  0  1.014166  0
H  H30  1  0.87835183  0.71277862  0.56291290  1  0.117374  0  0.10709  0.115582  0  1.014097  0
H  H31  1  0.91357506  0.02817014  0.29316910  1  0.067593  0  0.10812  0.116969  0  1.020867  0
H  H32  1  0.08642401  0.97182526  0.70682259  1  0.067432  0  0.108121  0.116882  0  1.020988  0
H  H33  1  0.92164762  0.59732845  0.34716946  1  0.090081  0  0.102879  0.10293  0  1.02798  0
H  H34  1  0.07834134  0.40267343  0.65282745  1  0.09017  0  0.10293  0.103005  0  1.027916  0
H  H35  1  0.01627914  0.76346562  0.39541435  1  0.083174  0  0.103023  0.100724  0  1.046343  0
H  H36  1  0.98371501  0.23653273  0.60458270  1  0.082854  0  0.102982  0.100655  0  1.046421  0
H  H37  1  0.25837635  0.69506708  0.52320227  1  0.113857  0  0.107286  0.110831  0  1.022876  0
H  H38  1  0.74161559  0.30492574  0.47679222  1  0.114003  0  0.107321  0.110842  0  1.023031  0
H  H39  1  0.16923432  0.53360997  0.47682314  1  0.029965  0  0.101502  0.091666  0  1.01963  0
H  H40  1  0.83075684  0.46638416  0.52316656  1  0.029761  0  0.101531  0.091667  0  1.019575  0
H  H41  1  0.43114669  0.27558529  0.37115823  1  0.091881  0  0.112134  0.131401  0  1.014567  0
H  H42  1  0.56885148  0.72441507  0.62883957  1  0.091864  0  0.112143  0.131419  0  1.014616  0
H  H43  1  0.45488365  0.32248291  0.28690658  1  0.055649  0  0.097468  0.10956  0  0.991952  0
H  H44  1  0.54512365  0.67751035  0.71308811  1  0.055292  0  0.097506  0.109594  0  0.991975  0
H  H45  1  0.52964158  0.37166473  0.40006299  1  0.096209  0  0.109144  0.133867  0  1.004723  0
H  H46  1  0.47036033  0.62833418  0.59993458  1  0.096208  0  0.10914  0.133891  0  1.004689  0
H  H47  1  0.68953115  0.24447269  0.32183481  1  0.10692  0  0.11127  0.13263  0  1.024282  0
H  H48  1  0.31047028  0.75552207  0.67816155  1  0.107023  0  0.111267  0.132656  0  1.024334  0
H  H49  1  0.66956811  0.35653624  0.36691930  1  0.037517  0  0.106662  0.119061  0  0.98927  0
H  H50  1  0.33043658  0.64345934  0.63308729  1  0.037562  0  0.106664  0.119138  0  0.989181  0
H  H51  1  0.63351528  0.29497550  0.24782660  1  0.057715  0  0.106245  0.129859  0  0.981679  0
H  H52  1  0.36648194  0.70502500  0.75217788  1  0.057582  0  0.106258  0.129832  0  0.981636  0
H  H53  1  0.40578370  0.03631986  0.27316527  1  0.106843  0  0.101731  0.165168  0  0.995189  0
H  H54  1  0.59421130  0.96367715  0.72683471  1  0.10689  0  0.101719  0.165177  0  0.995168  0
H  H55  1  0.36545117  0.13107491  0.25532930  1  0.057966  0  0.102478  0.161699  0  0.987132  0
H  H56  1  0.63455116  0.86892537  0.74466810  1  0.058054  0  0.102481  0.161737  0  0.987082  0
H  H57  1  0.40704658  0.13254567  0.36650235  1  0.138134  0  0.105195  0.175259  0  1.028483  0
H  H58  1  0.59294749  0.86745271  0.63349656  1  0.13805  0  0.105164  0.175239  0  1.028494  0
H  H59  1  0.63837365  0.77811816  0.27924823  1  0.112983  0  0.107164  0.128818  0  1.036579  0
H  H60  1  0.36162653  0.22188908  0.72074996  1  0.112838  0  0.107186  0.128873  0  1.036633  0
H  H61  1  0.67071938  0.67090402  0.23975820  1  0.038799  0  0.104452  0.117364  0  0.978761  0
H  H62  1  0.32927395  0.32909925  0.76024311  1  0.038875  0  0.104392  0.117408  0  0.978679  0
H  H63  1  0.66973238  0.74454729  0.17433938  1  0.062961  0  0.10026  0.117068  0  1.003587  0
H  H64  1  0.33026747  0.25545651  0.82565907  1  0.063061  0  0.100285  0.117133  0  1.003585  0
H  H65  1  0.91993494  0.78488149  0.27154796  1  0.092324  0  0.11198  0.139078  0  1.003795  0
H  H66  1  0.08006321  0.21512014  0.72844333  1  0.092324  0  0.111952  0.139017  0  1.003762  0
H  H67  1  0.82451915  0.69015109  0.19795021  1  0.143005  0  0.110666  0.140722  0  1.029571  0
H  H68  1  0.17547589  0.30984997  0.80204463  1  0.143115  0  0.110672  0.140727  0  1.029544  0
H  H69  1  0.86472017  0.69872010  0.31207957  1  0.019068  0  0.101568  0.112184  0  1.011027  0
H  H70  1  0.13528074  0.30127944  0.68791361  1  0.018923  0  0.101537  0.11214  0  1.011024  0
H  H71  1  0.91606618  0.97962570  0.45919076  1  0.083379  0  0.102361  0.164201  0  1.001516  0
H  H72  1  0.08393650  0.02037801  0.54080576  1  0.083422  0  0.102352  0.164139  0  1.00161  0
H  H73  1  0.95370740  0.92776601  0.36211831  1  0.118539  0  0.104814  0.17164  0  1.031975  0
H  H74  1  0.04629414  0.07223355  0.63787624  1  0.118534  0  0.104836  0.171692  0  1.031882  0
H  H75  1  0.93921925  0.86861607  0.43849056  1  0.059987  0  0.102351  0.156767  0  1.005814  0
H  H76  1  0.06078360  0.13138631  0.56150875  1  0.059949  0  0.102348  0.156736  0  1.005882  0
H  H77  1  0.41306920  0.43325927  0.09237300  1  0.460334  0  0.319968  0.2712  0  0.941423  0
H  H78  1  0.58693863  0.56674374  0.90762751  1  0.460439  0  0.319961  0.271125  0  0.941345  0
H  H79  1  0.18076420  0.28632667  0.93570147  1  0.132347  0  0.114515  0.132798  0  1.014769  0
H  H80  1  0.81923928  0.71367776  0.06429728  1  0.131768  0  0.114534  0.132809  0  1.014691  0
H  H81  1  0.45618600  0.30095851  0.09510999  1  0.116811  0  0.106852  0.112147  0  1.020561  0
H  H82  1  0.54381226  0.69904620  0.90489894  1  0.116897  0  0.106797  0.112072  0  1.020511  0
H  H83  1  0.25026274  0.03884780  0.95850359  1  0.103477  0  0.109083  0.118761  0  1.012351  0
H  H84  1  0.74974077  0.96115583  0.04148935  1  0.103371  0  0.109104  0.118889  0  1.012253  0
H  H85  1  0.35010016  0.57695508  0.91234661  1  0.065943  0  0.106819  0.109854  0  0.993517  0
H  H86  1  0.64990982  0.42304864  0.08765703  1  0.065926  0  0.106796  0.109844  0  0.993458  0
H  H87  1  0.43027925  0.74740323  0.98002451  1  0.130063  0  0.106376  0.112119  0  1.034417  0
H  H88  1  0.56972621  0.25259917  0.01997847  1  0.130117  0  0.106382  0.112142  0  1.034397  0
H  H89  1  0.46927274  0.72956096  0.24471416  1  0.148306  0  0.104304  0.104948  0  1.043722  0
H  H90  1  0.53073454  0.27043997  0.75528507  1  0.148178  0  0.104281  0.104809  0  1.0437  0
H  H91  1  0.39376932  0.56101711  0.17911292  1  0.05528  0  0.097264  0.091854  0  1.027601  0
H  H92  1  0.60623620  0.43898449  0.82088362  1  0.055185  0  0.097285  0.091883  0  1.027598  0
H  H93  1  0.71569637  0.21852542  0.02528202  1  0.104144  0  0.110379  0.127817  0  1.027373  0
H  H94  1  0.28430425  0.78147223  0.97472054  1  0.104167  0  0.110386  0.127839  0  1.027315  0
H  H95  1  0.80224407  0.32613710  0.05748386  1  0.052709  0  0.103694  0.11532  0  0.982338  0
H  H96  1  0.19775335  0.67386127  0.94251761  1  0.052627  0  0.103682  0.115358  0  0.982179  0
H  H97  1  0.78860307  0.26834649  0.13700028  1  0.09392  0  0.108423  0.131723  0  1.004409  0
H  H98  1  0.21139940  0.73165248  0.86300053  1  0.093945  0  0.108414  0.131761  0  1.004363  0
H  H99  1  0.00427298  0.22126863  0.06750202  1  0.124515  0  0.107637  0.130574  0  1.04065  0
H  H100  1  0.99572855  0.77873578  0.93249382  1  0.124481  0  0.10756  0.130482  0  1.040849  0
H  H101  1  0.95781037  0.24147783  0.16411364  1  0.052673  0  0.102059  0.122323  0  1.003447  0
H  H102  1  0.04219295  0.75851621  0.83588230  1  0.052607  0  0.102073  0.122341  0  1.003423  0
H  H103  1  0.97095821  0.32708109  0.11192623  1  0.064275  0  0.104155  0.114469  0  0.97772  0
H  H104  1  0.02903867  0.67292082  0.88807980  1  0.064252  0  0.104164  0.114446  0  0.977664  0
H  H105  1  0.73773279  0.03445147  0.85229487  1  0.077593  0  0.099804  0.155432  0  1.020711  0
H  H106  1  0.26227071  0.96555295  0.14770326  1  0.077635  0  0.099781  0.155395  0  1.020798  0
H  H107  1  0.71141313  0.14414325  0.88526211  1  0.065647  0  0.101513  0.158544  0  0.991599  0
H  H108  1  0.28859242  0.85586115  0.11473644  1  0.065527  0  0.101549  0.158559  0  0.991578  0
H  H109  1  0.69050048  0.06866077  0.94687756  1  0.12329  0  0.104275  0.178466  0  1.016669  0
H  H110  1  0.30950034  0.93134366  0.05311877  1  0.123146  0  0.104245  0.178396  0  1.016775  0
C  C111  1  0.45416881  0.83610672  0.40737359  1  -0.019569  0  -0.011039  -0.005195  0  3.955613  0
C  C112  1  0.54583854  0.16389214  0.59262572  1  -0.020377  0  -0.011213  -0.005438  0  3.955651  0
C  C113  1  0.42446490  0.74317758  0.39931351  1  0.010104  0  -0.079844  -0.178189  0  3.872388  0
C  C114  1  0.57554290  0.25682060  0.60068695  1  0.010919  0  -0.079748  -0.177909  0  3.872404  0
C  C115  1  0.33254535  0.69142724  0.34764891  1  0.319457  0  0.095392  0.240495  0  4.048862  0
C  C116  1  0.66746211  0.30856953  0.65234987  1  0.319645  0  0.095283  0.240301  0  4.049036  0
C  C117  1  0.27038214  0.73346302  0.30752552  1  -0.003678  0  -0.082621  -0.18813  0  3.931465  0
C  C118  1  0.72962309  0.26653589  0.69247523  1  -0.004132  0  -0.082612  -0.188007  0  3.931332  0
C  C119  1  0.29916625  0.82691060  0.31886054  1  -0.047682  0  -0.02016  -0.024638  0  4.006966  0
C  C120  1  0.70084099  0.17308831  0.68114187  1  -0.047156  0  -0.020186  -0.024837  0  4.007116  0
C  C121  1  0.39167216  0.87808360  0.36796580  1  0.001315  0  -0.075113  -0.099001  0  3.921226  0
C  C122  1  0.60833371  0.12191533  0.63203633  1  0.001076  0  -0.075076  -0.098817  0  3.92109  0
C  C123  1  0.28623670  0.43882495  0.31959217  1  -0.017975  0  -0.020391  -0.042883  0  4.028522  0
C  C124  1  0.71376032  0.56117485  0.68041209  1  -0.018233  0  -0.020423  -0.043024  0  4.028469  0
C  C125  1  0.28754335  0.37737320  0.36740149  1  -0.0779  0  -0.082843  -0.104747  0  3.971956  0
C  C126  1  0.71245155  0.62262667  0.63260421  1  -0.077018  0  -0.082819  -0.10463  0  3.971884  0
C  C127  1  0.24465633  0.28330635  0.32349450  1  -0.057454  0  -0.076907  -0.090796  0  3.95754  0
C  C128  1  0.75533793  0.71669429  0.67651501  1  -0.058334  0  -0.07698  -0.091035  0  3.957839  0
C  C129  1  0.19992815  0.24929433  0.23088453  1  0.031844  0  -0.011007  -0.024364  0  3.929666  0
C  C130  1  0.80006397  0.75070356  0.76912379  1  0.031987  0  -0.011041  -0.024306  0  3.929565  0
C  C131  1  0.19958639  0.31033780  0.18288507  1  -0.038868  0  -0.082646  -0.079618  0  3.973298  0
C  C132  1  0.80040431  0.68966217  0.81712227  1  -0.038326  0  -0.082523  -0.079454  0  3.973364  0
C  C133  1  0.24237416  0.40415003  0.22662378  1  -0.088136  0  -0.098745  -0.134156  0  4.020452  0
C  C134  1  0.75762223  0.59585055  0.77338428  1  -0.088401  0  -0.098791  -0.134149  0  4.020625  0
C  C135  1  0.33547448  0.53911213  0.36822482  1  1.413825  0  0.234178  0.463954  0  4.151607  0
C  C136  1  0.66453066  0.46088683  0.63177841  1  1.415038  0  0.234183  0.463992  0  4.151343  0
C  C137  1  0.55475419  0.88967501  0.45599287  1  1.546582  0  0.207497  0.584306  0  4.163601  0
C  C138  1  0.44525425  0.11032318  0.54400898  1  1.546191  0  0.207633  0.584604  0  4.163463  0
C  C139  1  0.22992159  0.87165936  0.27990971  1  1.526334  0  0.197842  0.562394  0  4.216353  0
C  C140  1  0.77008300  0.12834033  0.72009485  1  1.526353  0  0.197881  0.56266  0  4.216161  0
C  C141  1  0.15116333  0.14808101  0.18251168  1  1.596613  0  0.217612  0.597028  0  4.189943  0
C  C142  1  0.84883426  0.85191884  0.81749582  1  1.596236  0  0.217816  0.597211  0  4.189736  0
C  C143  1  0.86975856  0.14941145  0.28512991  1  -0.051877  0  -0.012408  -0.007933  0  3.966778  0
C  C144  1  0.13023826  0.85058407  0.71486632  1  -0.052046  0  -0.012455  -0.007978  0  3.966651  0
C  C145  1  0.89593166  0.24579261  0.30882642  1  -0.022294  0  -0.082928  -0.188683  0  3.89999  0
C  C146  1  0.10406036  0.75420095  0.69117140  1  -0.022287  0  -0.082801  -0.188421  0  3.899623  0
C  C147  1  0.98717875  0.29610865  0.36352424  1  0.340384  0  0.099149  0.246639  0  4.030604  0
C  C148  1  0.01281352  0.70389043  0.63647324  1  0.340218  0  0.099063  0.246456  0  4.030645  0
C  C149  1  0.05081474  0.24936524  0.39366968  1  -0.027317  0  -0.085598  -0.193632  0  3.941678  0
C  C150  1  0.94918292  0.75063583  0.60632883  1  -0.027381  0  -0.085577  -0.193545  0  3.94168  0
C  C151  1  0.02570375  0.15318867  0.36720400  1  -0.042445  0  -0.018749  -0.021629  0  3.999228  0
C  C152  1  0.97429737  0.84681234  0.63279396  1  -0.042492  0  -0.018695  -0.021657  0  3.999228  0
C  C153  1  0.93424100  0.10304405  0.31379162  1  0.084808  0  -0.079217  -0.105381  0  3.907215  0
C  C154  1  0.06575799  0.89695139  0.68620193  1  0.085293  0  -0.079256  -0.105336  0  3.907395  0
C  C155  1  0.03748381  0.55366445  0.40701511  1  -0.042694  0  -0.022694  -0.044445  0  4.004298  0
C  C156  1  0.96250658  0.44633457  0.59297760  1  -0.042388  0  -0.022625  -0.044207  0  4.00413  0
C  C157  1  0.99587734  0.62024830  0.38558351  1  0.022078  0  -0.086324  -0.10046  0  3.976989  0
C  C158  1  0.00411563  0.37975279  0.61441153  1  0.02192  0  -0.086446  -0.100731  0  3.977056  0
C  C159  1  0.04791632  0.71176723  0.41252023  1  -0.124362  0  -0.081622  -0.088942  0  3.966742  0
C  C160  1  0.95208036  0.28823242  0.58747521  1  -0.123752  0  -0.081543  -0.088741  0  3.966635  0
C  C161  1  0.14261671  0.73935254  0.46297693  1  0.066819  0  -0.011542  -0.018078  0  3.935004  0
C  C162  1  0.85737908  0.26064362  0.53701552  1  0.066496  0  -0.011484  -0.018147  0  3.934976  0
C  C163  1  0.18452932  0.67328664  0.48464331  1  -0.077256  0  -0.083058  -0.084658  0  3.964658  0
C  C164  1  0.81546051  0.32670826  0.51535006  1  -0.077086  0  -0.083024  -0.084528  0  3.964797  0
C  C165  1  0.13305171  0.58160089  0.45677489  1  -0.070541  0  -0.092245  -0.117817  0  4.003884  0
C  C166  1  0.86693927  0.41839331  0.54321915  1  -0.070832  0  -0.092389  -0.117992  0  4.004041  0
C  C167  1  0.97553108  0.45662582  0.37437931  1  1.370478  0  0.233043  0.464354  0  4.139077  0
C  C168  1  0.02446258  0.54337323  0.62561782  1  1.371351  0  0.233006  0.464261  0  4.139664  0
C  C169  1  0.77222447  0.09513377  0.22702718  1  1.56062  0  0.209081  0.587951  0  4.184001  0
C  C170  1  0.22777164  0.90486178  0.77296952  1  1.560486  0  0.209009  0.587748  0  4.18433  0
C  C171  1  0.09834693  0.10538307  0.39451654  1  1.539985  0  0.20259  0.56887  0  4.207713  0
C  C172  1  0.90165264  0.89461727  0.60548092  1  1.53999  0  0.202625  0.568929  0  4.207445  0
C  C173  1  0.19915190  0.83884957  0.49639941  1  1.590965  0  0.213634  0.589307  0  4.205664  0
C  C174  1  0.80084604  0.16114527  0.50359811  1  1.590656  0  0.213622  0.589323  0  4.20576  0
C  C175  1  0.48750360  0.30716712  0.34635647  1  0.239676  0  -0.132974  -0.276461  0  3.90058  0
C  C176  1  0.51249922  0.69283043  0.65364279  1  0.239926  0  -0.133025  -0.276534  0  3.900643  0
C  C177  1  0.64113022  0.28795437  0.31460625  1  0.288204  0  -0.134586  -0.269452  0  3.882756  0
C  C178  1  0.35887299  0.71204049  0.68539735  1  0.288285  0  -0.134607  -0.269553  0  3.882746  0
C  C179  1  0.51768728  0.15398622  0.29875979  1  1.354854  0  0.251238  0.543086  0  4.00014  0
C  C180  1  0.48231411  0.84600934  0.70124300  1  1.354848  0  0.25117  0.542913  0  4.000078  0
C  C181  1  0.41838669  0.11142438  0.29845504  1  -0.125297  0  -0.243639  -0.520984  0  3.883886  0
C  C182  1  0.58161163  0.88857466  0.70154617  1  -0.125223  0  -0.24359  -0.520982  0  3.883834  0
C  C183  1  0.68431954  0.74331979  0.24344486  1  0.26059  0  -0.136025  -0.265324  0  3.89605  0
C  C184  1  0.31567872  0.25668335  0.75655370  1  0.260583  0  -0.136063  -0.265581  0  3.896149  0
C  C185  1  0.85290502  0.73858270  0.26718655  1  0.238068  0  -0.134237  -0.279302  0  3.869917  0
C  C186  1  0.14709398  0.26141758  0.73280767  1  0.238249  0  -0.134122  -0.279121  0  3.86988  0
C  C187  1  0.80732030  0.87123347  0.35784861  1  1.344118  0  0.250048  0.541793  0  4.005309  0
C  C188  1  0.19268118  0.12876893  0.64215042  1  1.343483  0  0.250032  0.541783  0  4.005255  0
C  C189  1  0.90983613  0.91394133  0.40692355  1  -0.091625  0  -0.248508  -0.531786  0  3.899366  0
C  C190  1  0.09016487  0.08605895  0.59307233  1  -0.091638  0  -0.248519  -0.531742  0  3.899373  0
C  C191  1  0.20610496  0.15771925  0.94287898  1  0.000341  0  -0.010878  -0.005654  0  3.960375  0
C  C192  1  0.79389830  0.84228654  0.05711822  1  0.000358  0  -0.010706  -0.00544  0  3.960201  0
C  C193  1  0.23176362  0.25340131  0.96226024  1  0.050691  0  -0.077061  -0.177789  0  3.893325  0
C  C194  1  0.76823719  0.74660673  0.03774452  1  0.051198  0  -0.077167  -0.177932  0  3.893125  0
C  C195  1  0.32215858  0.30563242  0.01739030  1  0.285397  0  0.093206  0.234113  0  4.058695  0
C  C196  1  0.67784296  0.69437074  0.98261268  1  0.283511  0  0.093346  0.234238  0  4.058314  0
C  C197  1  0.38580519  0.26147431  0.05172215  1  -0.110842  0  -0.085844  -0.194436  0  3.949762  0
C  C198  1  0.61419805  0.73853227  0.94828086  1  -0.10938  0  -0.085792  -0.194225  0  3.949574  0
C  C199  1  0.36139589  0.16550167  0.02903609  1  0.069915  0  -0.016822  -0.015375  0  3.995282  0
C  C200  1  0.63860543  0.83450565  0.97096796  1  0.070969  0  -0.016855  -0.015695  0  3.995653  0
C  C201  1  0.27072198  0.11343196  0.97537740  1  -0.014247  0  -0.075017  -0.100747  0  3.90217  0
C  C202  1  0.72928211  0.88657453  0.02462140  1  -0.014563  0  -0.075116  -0.100905  0  3.902249  0
C  C203  1  0.36943425  0.55779466  0.04061452  1  -0.028604  0  -0.018185  -0.036167  0  4.023112  0
C  C204  1  0.63057187  0.44220978  0.95938726  1  -0.028986  0  -0.018141  -0.036167  0  4.023158  0
C  C205  1  0.37834094  0.61113656  0.98505219  1  0.02732  0  -0.08621  -0.10693  0  3.981508  0
C  C206  1  0.62167048  0.38886710  0.01494987  1  0.027398  0  -0.086153  -0.106851  0  3.981278  0
C  C207  1  0.42181835  0.70544610  0.02255187  1  -0.098173  0  -0.080507  -0.09211  0  3.971316  0
C  C208  1  0.57818497  0.29455559  0.97744798  1  -0.098107  0  -0.08055  -0.092167  0  3.971379  0
C  C209  1  0.45539376  0.74812158  0.11636612  1  -0.016615  0  -0.012566  -0.026586  0  3.929364  0
C  C210  1  0.54460828  0.25187602  0.88363548  1  -0.016592  0  -0.012535  -0.02666  0  3.929628  0
C  C211  1  0.44486699  0.69527535  0.17197353  1  -0.139563  0  -0.080423  -0.076229  0  3.960084  0
C  C212  1  0.55513934  0.30472289  0.82802913  1  -0.139701  0  -0.080408  -0.076012  0  3.959914  0
C  C213  1  0.40291344  0.60067852  0.13452787  1  -0.049131  0  -0.095416  -0.126238  0  3.99709  0
C  C214  1  0.59708988  0.39932317  0.86547198  1  -0.048488  0  -0.095451  -0.126308  0  3.997072  0
C  C215  1  0.32047140  0.45719633  0.99684127  1  1.394495  0  0.238393  0.472194  0  4.14103  0
C  C216  1  0.67953250  0.54280540  0.00316120  1  1.394695  0  0.238377  0.472173  0  4.141156  0
C  C217  1  0.10727008  0.10327544  0.88870180  1  1.55636  0  0.209417  0.589319  0  4.183278  0
C  C218  1  0.89273545  0.89673100  0.11129542  1  1.556478  0  0.209453  0.589301  0  4.183474  0
C  C219  1  0.43467457  0.12010327  0.05968881  1  1.532792  0  0.200408  0.569608  0  4.198628  0
C  C220  1  0.56532717  0.87990339  0.94031701  1  1.532538  0  0.20048  0.569915  0  4.198214  0
C  C221  1  0.50426004  0.84988012  0.15794580  1  1.591364  0  0.217033  0.592183  0  4.195682  0
C  C222  1  0.49574395  0.15011954  0.84205676  1  1.591627  0  0.217101  0.592271  0  4.19597  0
C  C223  1  0.78691030  0.25848506  0.06628125  1  0.228366  0  -0.131868  -0.270457  0  3.891877  0
C  C224  1  0.21309067  0.74151118  0.93371976  1  0.228358  0  -0.131793  -0.27046  0  3.89162  0
C  C225  1  0.83879351  0.13392000  0.96835348  1  1.323866  0  0.249538  0.536665  0  4.002269  0
C  C226  1  0.16120825  0.86608102  0.03164586  1  1.323974  0  0.249498  0.536597  0  4.002333  0
C  C227  1  0.95374477  0.25239721  0.09927149  1  0.226119  0  -0.136849  -0.267179  0  3.886699  0
C  C228  1  0.04625615  0.74760592  0.90072949  1  0.226284  0  -0.136833  -0.26709  0  3.886798  0
C  C229  1  0.73875970  0.09349115  0.90998515  1  -0.097679  0  -0.246119  -0.525711  0  3.889429  0
C  C230  1  0.26124255  0.90651120  0.09001217  1  -0.097533  0  -0.246048  -0.525562  0  3.889515  0
N  N231  1  0.29922752  0.59622287  0.32875042  1  -1.270424  0  -0.403837  -0.388277  0  3.626197  0
N  N232  1  0.70077873  0.40377182  0.67124630  1  -1.270426  0  -0.403891  -0.388297  0  3.626304  0
N  N233  1  0.02173983  0.39206007  0.38825451  1  -1.221994  0  -0.399221  -0.370431  0  3.602142  0
N  N234  1  0.97824575  0.60793700  0.61173979  1  -1.222491  0  -0.399153  -0.370293  0  3.602146  0
N  N235  1  0.54866747  0.24584593  0.32356711  1  -1.213942  0  -0.269112  -0.004749  0  3.642242  0
N  N236  1  0.45133472  0.75415035  0.67643791  1  -1.214054  0  -0.269013  -0.004624  0  3.642097  0
N  N237  1  0.78338398  0.79003589  0.29062074  1  -1.20226  0  -0.270175  0.001005  0  3.628672  0
N  N238  1  0.21661433  0.20996723  0.70937658  1  -1.201917  0  -0.270169  0.001025  0  3.62866  0
N  N239  1  0.35226360  0.40227289  0.04217187  1  -1.26978  0  -0.401811  -0.385295  0  3.596151  0
N  N240  1  0.64773993  0.59773026  0.95783277  1  -1.269887  0  -0.401881  -0.385287  0  3.595975  0
N  N241  1  0.85787191  0.21024279  0.04081705  1  -1.163942  0  -0.269473  -0.000294  0  3.638221  0
N  N242  1  0.14212912  0.78975826  0.95918340  1  -1.163929  0  -0.269468  -0.000374  0  3.638345  0
O  O243  1  0.60671096  0.85454293  0.50140305  1  -1.148138  0  -0.315218  -0.533443  0  2.191905  0
O  O244  1  0.39329551  0.14545322  0.49859846  1  -1.147887  0  -0.315245  -0.533533  0  2.191947  0
O  O245  1  0.58635181  0.96932213  0.45075193  1  -1.178465  0  -0.335783  -0.604095  0  2.32079  0
O  O246  1  0.41365465  0.03067684  0.54925282  1  -1.178266  0  -0.335823  -0.604202  0  2.320642  0
O  O247  1  0.15589219  0.82276809  0.21798066  1  -1.148615  0  -0.322301  -0.529411  0  2.131283  0
O  O248  1  0.84411279  0.17723298  0.78202435  1  -1.148773  0  -0.322305  -0.529494  0  2.131161  0
O  O249  1  0.24834620  0.96067336  0.31061062  1  -1.15446  0  -0.331031  -0.583292  0  2.323264  0
O  O250  1  0.75165629  0.03932638  0.68939476  1  -1.154521  0  -0.330997  -0.583388  0  2.323258  0
O  O251  1  0.10323011  0.12636522  0.10144477  1  -1.169175  0  -0.321012  -0.573064  0  2.345978  0
O  O252  1  0.89677205  0.87363311  0.89855892  1  -1.169052  0  -0.321039  -0.573107  0  2.346075  0
O  O253  1  0.16270969  0.09496226  0.22724146  1  -1.152714  0  -0.319416  -0.559747  0  2.334865  0
O  O254  1  0.83728414  0.90503623  0.77276365  1  -1.152381  0  -0.319563  -0.559881  0  2.334648  0
O  O255  1  0.40277624  0.56663634  0.43641455  1  -1.135821  0  -0.293368  -0.473385  0  2.095453  0
O  O256  1  0.59722387  0.43336123  0.56358353  1  -1.137295  0  -0.293319  -0.473339  0  2.095312  0
O  O257  1  0.73058243  0.12882008  0.17228887  1  -1.143531  0  -0.315641  -0.540287  0  2.232162  0
O  O258  1  0.26940913  0.87117698  0.82771103  1  -1.143592  0  -0.315597  -0.540229  0  2.232183  0
O  O259  1  0.73472095  0.01823277  0.23385957  1  -1.183775  0  -0.339507  -0.602772  0  2.26738  0
O  O260  1  0.26527893  0.98176131  0.76613629  1  -1.183633  0  -0.339444  -0.602602  0  2.267507  0
O  O261  1  0.17514574  0.15313808  0.45395160  1  -1.151426  0  -0.321277  -0.537171  0  2.180437  0
O  O262  1  0.82485416  0.84686287  0.54604237  1  -1.151467  0  -0.321327  -0.537193  0  2.180215  0
O  O263  1  0.08096994  0.01731307  0.35806613  1  -1.172659  0  -0.330249  -0.585751  0  2.325839  0
O  O264  1  0.91902616  0.98268529  0.64193381  1  -1.172658  0  -0.33027  -0.585782  0  2.325801  0
O  O265  1  0.27275690  0.85964951  0.56128939  1  -1.156154  0  -0.326446  -0.564463  0  2.314874  0
O  O266  1  0.72723828  0.14034616  0.43871338  1  -1.155901  0  -0.32645  -0.564494  0  2.315056  0
O  O267  1  0.16915381  0.89214580  0.45840760  1  -1.161972  0  -0.32177  -0.560257  0  2.274762  0
O  O268  1  0.83084462  0.10785115  0.54159307  1  -1.16207  0  -0.321793  -0.560296  0  2.274778  0
O  O269  1  0.88950066  0.43741098  0.33732124  1  -1.128774  0  -0.302948  -0.480056  0  2.083739  0
O  O270  1  0.11048354  0.56258892  0.66267602  1  -1.129344  0  -0.302885  -0.479972  0  2.084307  0
O  O271  1  0.57211206  0.10240038  0.27424068  1  -1.196747  0  -0.334958  -0.605781  0  2.425899  0
O  O272  1  0.42788692  0.89759382  0.72576062  1  -1.196675  0  -0.334988  -0.605725  0  2.425856  0
O  O273  1  0.74392366  0.91145923  0.38104281  1  -1.186651  0  -0.330285  -0.595318  0  2.404754  0
O  O274  1  0.25607671  0.08854182  0.61895687  1  -1.186543  0  -0.33029  -0.595354  0  2.404779  0
O  O275  1  0.05966996  0.13995909  0.84111588  1  -1.136422  0  -0.314236  -0.535288  0  2.22699  0
O  O276  1  0.94033383  0.86004879  0.15888323  1  -1.136391  0  -0.314274  -0.535335  0  2.227105  0
O  O277  1  0.07458014  0.02362971  0.89248154  1  -1.183807  0  -0.338962  -0.603669  0  2.279867  0
O  O278  1  0.92541797  0.97637475  0.10751361  1  -1.183992  0  -0.338975  -0.603598  0  2.279875  0
O  O279  1  0.51316531  0.16955564  0.11493398  1  -1.166231  0  -0.312427  -0.537919  0  2.202767  0
O  O280  1  0.48683391  0.83045455  0.88507413  1  -1.166195  0  -0.312468  -0.538058  0  2.202635  0
O  O281  1  0.41675497  0.03120236  0.02895767  1  -1.158376  0  -0.331141  -0.587413  0  2.323075  0
O  O282  1  0.58325329  0.96880483  0.97104529  1  -1.15842  0  -0.331214  -0.587544  0  2.322997  0
O  O283  1  0.50680875  0.89553779  0.10489878  1  -1.153495  0  -0.319658  -0.557713  0  2.327275  0
O  O284  1  0.49318500  0.10446199  0.89510106  1  -1.153367  0  -0.319705  -0.557744  0  2.327469  0
O  O285  1  0.53859442  0.87996864  0.24295832  1  -1.178704  0  -0.321659  -0.569893  0  2.366788  0
O  O286  1  0.46141410  0.12002749  0.75704361  1  -1.179149  0  -0.321698  -0.569951  0  2.36692  0
O  O287  1  0.25692783  0.42711976  0.92563353  1  -1.133746  0  -0.289521  -0.475706  0  2.124891  0
O  O288  1  0.74307445  0.57287851  0.07436705  1  -1.133886  0  -0.289539  -0.47572  0  2.124895  0
O  O289  1  0.90442465  0.09538143  0.94834368  1  -1.191873  0  -0.325937  -0.592499  0  2.358737  0
O  O290  1  0.09557668  0.90461823  0.05165646  1  -1.191945  0  -0.325987  -0.592547  0  2.35873  0
