# generated using pymatgen
data_CoH24C18(SN7)2
_symmetry_space_group_name_H-M   'P 1'
_cell_length_a   7.76096632
_cell_length_b   9.05058439
_cell_length_c   9.92034386
_cell_angle_alpha   114.05681888
_cell_angle_beta   91.15100094
_cell_angle_gamma   92.78984375
_symmetry_Int_Tables_number   1
_chemical_formula_structural   CoH24C18(SN7)2
_chemical_formula_sum   'Co1 H24 C18 S2 N14'
_cell_volume   634.92977144
_cell_formula_units_Z   1
loop_
 _symmetry_equiv_pos_site_id
 _symmetry_equiv_pos_as_xyz
  1  'x, y, z'
loop_
 _atom_site_type_symbol
 _atom_site_label
 _atom_site_symmetry_multiplicity
 _atom_site_fract_x
 _atom_site_fract_y
 _atom_site_fract_z
 _atom_site_occupancy
 _atom_site_hle17_ddec_charge
 _atom_site_hle17_ddec_spin_density
 _atom_site_hle17_ddec_sum_bond_order
 _atom_site_hle17_magmom
 _atom_site_hse06_10hf_ddec_charge
 _atom_site_hse06_10hf_ddec_spin_density
 _atom_site_hse06_10hf_ddec_sum_bond_order
 _atom_site_hse06_10hf_magmom
 _atom_site_hse06_ddec_charge
 _atom_site_hse06_ddec_spin_density
 _atom_site_hse06_ddec_sum_bond_order
 _atom_site_hse06_magmom
 _atom_site_pbe_cm5_charge
 _atom_site_pbe_ddec_charge
 _atom_site_pbe_ddec_spin_density
 _atom_site_pbe_ddec_sum_bond_order
 _atom_site_pbe_magmom
Co  Co0  1  0.50000057  0.50000007  0.99999938  1  0.65774  -1.11716  2.854677  -0.997  0.652483  -1.005785  3.288698  -0.925  0.709078  -1.0111  3.223419  -0.94  0.723301  0.620842  -0.993459  3.32817  -0.905
H  H1  1  0.47442262  0.78812172  0.32034203  1  0.097758  -2.2e-05  0.912537  0.0  0.11114  6.2e-05  0.965655  0.0  0.112355  4.1e-05  0.963956  0.0  0.139642  0.110039  8.3e-05  0.967248  0.0
H  H2  1  0.52557709  0.21187806  0.67965803  1  0.097755  -2.3e-05  0.91254  0.0  0.111138  6.2e-05  0.965656  0.0  0.112353  4e-05  0.963958  0.0  0.13964  0.110037  8.3e-05  0.96725  0.0
H  H3  1  0.32132480  0.29258009  0.16577191  1  0.113996  0.00019  0.926328  -0.001  0.120128  0.000248  0.994882  0.0  0.122512  0.000175  0.99132  0.0  0.143208  0.117801  0.000289  0.998282  0.0
H  H4  1  0.67867618  0.70741969  0.83422918  1  0.11399  0.000189  0.92634  -0.001  0.120127  0.000248  0.994879  0.0  0.122511  0.000175  0.991316  0.0  0.143212  0.1178  0.000289  0.99828  0.0
H  H5  1  0.28507682  0.48928532  0.58355638  1  0.092788  8.1e-05  0.908672  0.0  0.108291  5.6e-05  0.970479  0.0  0.109063  4.1e-05  0.970491  0.0  0.11854  0.107814  5.8e-05  0.970165  0.0
H  H6  1  0.71492282  0.51071326  0.41644321  1  0.092795  8.1e-05  0.908662  0.0  0.108302  5.5e-05  0.970466  0.0  0.109069  4.1e-05  0.970484  0.0  0.118545  0.107826  5.8e-05  0.970152  0.0
H  H7  1  0.27720105  0.29690319  0.43207404  1  0.076075  1.9e-05  0.924879  0.0  0.092523  2.9e-05  0.98724  0.0  0.092655  1.1e-05  0.987642  0.0  0.112993  0.092267  3.1e-05  0.986973  0.0
H  H8  1  0.72279867  0.70309659  0.56792602  1  0.076074  1.9e-05  0.924879  0.0  0.09252  2.8e-05  0.987246  0.0  0.092652  1.1e-05  0.987647  0.0  0.112994  0.092264  3.1e-05  0.986979  0.0
H  H9  1  0.98518507  0.35295790  0.34909822  1  0.068861  0.000175  0.944503  0.0  0.083968  7.9e-05  1.013677  0.0  0.084474  6.2e-05  1.014236  0.0  0.08823  0.083367  0.000101  1.013494  0.0
H  H10  1  0.01481474  0.64704311  0.65090129  1  0.06888  0.000174  0.944519  0.0  0.083987  7.9e-05  1.013681  0.0  0.084493  6.3e-05  1.014241  0.0  0.088245  0.083387  0.000101  1.013498  0.0
H  H11  1  0.98906020  0.34270164  0.52336768  1  0.079057  -1.4e-05  0.964599  0.0  0.09269  -6e-06  1.0337  0.0  0.093399  -5e-06  1.03475  0.0  0.093628  0.092232  -1e-05  1.032171  0.0
H  H12  1  0.01093962  0.65729937  0.47663183  1  0.079073  -1.5e-05  0.964592  0.0  0.092694  -6e-06  1.033705  0.0  0.093402  -4e-06  1.034754  0.0  0.093619  0.092234  -1e-05  1.032177  0.0
H  H13  1  0.15702249  0.89609612  0.48031933  1  0.076786  -1.8e-05  0.953766  0.0  0.090898  -1.4e-05  1.02321  0.0  0.092244  -1.2e-05  1.022841  0.0  0.092882  0.090064  -2.5e-05  1.022973  0.0
H  H14  1  0.84297584  0.10390244  0.51968124  1  0.076768  -1.8e-05  0.953709  0.0  0.090881  -1.5e-05  1.023142  0.0  0.092228  -1.2e-05  1.02277  0.0  0.092863  0.090047  -2.5e-05  1.022905  0.0
H  H15  1  0.16844221  0.10381804  0.51496202  1  0.067942  -2e-06  0.942758  0.0  0.088314  -1.4e-05  1.001207  0.0  0.088705  -1.2e-05  1.002217  0.0  0.09284  0.088166  -3.1e-05  0.99996  0.0
H  H16  1  0.83155614  0.89618053  0.48503754  1  0.067939  -3e-06  0.942751  0.0  0.088298  -1.4e-05  1.001195  0.0  0.088689  -1.2e-05  1.002205  0.0  0.092834  0.088151  -3.1e-05  0.999948  0.0
H  H17  1  0.00148040  0.04164915  0.27662946  1  0.0814  0.000218  0.928551  0.0  0.099822  9.3e-05  0.991715  0.0  0.100043  7.7e-05  0.992175  0.0  0.109288  0.099592  4e-05  0.991294  0.0
H  H18  1  0.99851938  0.95835184  0.72337206  1  0.081377  0.000216  0.928578  0.0  0.099797  9.2e-05  0.991743  0.0  0.100019  7.6e-05  0.992202  0.0  0.109276  0.09957  4e-05  0.991324  0.0
H  H19  1  0.19359731  0.93652905  0.24760265  1  0.080466  2.9e-05  0.943145  0.0  0.095519  2.2e-05  1.007658  0.0  0.095519  2.2e-05  1.008028  0.0  0.106725  0.095646  1.4e-05  1.007383  0.0
H  H20  1  0.80640232  0.06346952  0.75239694  1  0.080484  2.9e-05  0.943083  0.0  0.095526  2.2e-05  1.007611  0.0  0.095524  2.2e-05  1.007981  0.0  0.106731  0.095654  1.4e-05  1.007338  0.0
H  H21  1  0.89151183  0.42132719  0.12518925  1  0.086314  0.000188  0.960957  0.0  0.09386  6.1e-05  1.027708  0.0  0.095189  7.1e-05  1.026336  0.0  0.124376  0.092259  5.3e-05  1.029483  0.0
H  H22  1  0.10848659  0.57867259  0.87481077  1  0.086307  0.000188  0.96095  0.0  0.093851  6.2e-05  1.027704  0.0  0.09518  7.1e-05  1.026332  0.0  0.124375  0.09225  5.3e-05  1.029479  0.0
H  H23  1  0.73569404  0.86705793  0.14235135  1  0.104045  8.9e-05  0.978108  0.0  0.111082  4.1e-05  1.048911  0.0  0.11377  4.6e-05  1.045477  0.0  0.124085  0.108669  6e-05  1.051962  0.0
H  H24  1  0.26430568  0.13294186  0.85764871  1  0.104041  8.9e-05  0.978109  0.0  0.11108  4.2e-05  1.048911  0.0  0.113767  4.6e-05  1.045477  0.0  0.124083  0.108666  6e-05  1.051962  0.0
C  C25  1  0.42392611  0.67303973  0.31731305  1  0.190454  0.007202  3.704701  0.005  0.133089  0.002905  4.014328  0.002  0.146731  0.002218  4.02503  0.002  0.146303  0.12392  0.003389  4.007109  0.002
C  C26  1  0.57607361  0.32696006  0.68268700  1  0.190434  0.007203  3.704744  0.005  0.133067  0.002906  4.014367  0.002  0.146709  0.002213  4.025069  0.002  0.146289  0.123898  0.003389  4.007147  0.002
C  C27  1  0.34631412  0.42086598  0.23449962  1  0.171122  0.014178  3.578368  0.009  0.097605  0.005672  3.841901  0.004  0.114423  0.004009  3.851575  0.003  0.168977  0.087163  0.006271  3.835622  0.004
C  C28  1  0.65368826  0.57913502  0.76550096  1  0.171118  0.014181  3.578354  0.009  0.097617  0.005675  3.841889  0.004  0.114436  0.004005  3.851562  0.003  0.168954  0.087171  0.006272  3.835612  0.004
C  C29  1  0.23221899  0.41992109  0.47034521  1  -0.006696  3.3e-05  3.618583  0.0  -0.084328  5e-05  3.882417  0.0  -0.080296  3.3e-05  3.893289  0.0  -0.046232  -0.086337  4.1e-05  3.874233  0.0
C  C30  1  0.76778209  0.58007991  0.52965534  1  -0.006673  3.4e-05  3.618539  0.0  -0.0843  5.1e-05  3.882369  0.0  -0.080263  3.3e-05  3.893241  0.0  -0.0462  -0.08631  4.1e-05  3.874185  0.0
C  C31  1  0.03514918  0.41602310  0.46455279  1  -0.129924  9.2e-05  3.676913  0.0  -0.170361  8.4e-05  3.938067  0.0  -0.172041  5.8e-05  3.952573  0.0  -0.167082  -0.169287  0.000135  3.928076  0.0
C  C32  1  0.96485192  0.58397791  0.53544675  1  -0.129908  9.5e-05  3.676904  0.0  -0.170324  8.3e-05  3.938028  0.0  -0.172003  5.9e-05  3.952533  0.0  -0.16707  -0.16925  0.000135  3.928039  0.0
C  C33  1  0.08675455  0.99043634  0.46346999  1  -0.132366  -2.7e-05  3.69648  0.0  -0.175865  -4.1e-05  3.964947  0.0  -0.177176  -3.2e-05  3.978093  0.0  -0.167202  -0.17446  -3.5e-05  3.954447  0.0
C  C34  1  0.91324509  0.00956224  0.53652960  1  -0.132412  -2.5e-05  3.696439  0.0  -0.17584  -4.1e-05  3.964833  0.0  -0.177149  -3.1e-05  3.977975  0.0  -0.167177  -0.174433  -3.5e-05  3.95434  0.0
C  C35  1  0.06803106  0.94880885  0.29862733  1  -0.016008  -0.000463  3.645683  -0.001  -0.092974  -0.00042  3.902797  -0.001  -0.088803  -0.000318  3.914602  -0.001  -0.052552  -0.095558  -0.000535  3.894607  -0.001
C  C36  1  0.93196994  0.05119093  0.70137276  1  -0.015987  -0.000462  3.645685  -0.001  -0.092961  -0.000419  3.902787  -0.001  -0.088784  -0.000319  3.914579  -0.001  -0.052552  -0.095557  -0.000535  3.894611  -0.001
C  C37  1  0.88943460  0.54928425  0.14854523  1  0.188427  0.005233  3.703825  0.003  0.14284  0.001587  3.99418  0.0  0.153523  0.001746  4.007841  0.001  0.140056  0.136341  0.001337  3.984013  0.0
C  C38  1  0.11056519  0.45071675  0.85145528  1  0.18844  0.005232  3.703775  0.003  0.142852  0.001586  3.994135  0.0  0.153535  0.001748  4.007796  0.001  0.140052  0.136352  0.001337  3.98397  0.0
C  C39  1  0.80678253  0.77264097  0.15526081  1  0.139175  0.008064  3.650478  0.005  0.069337  0.002606  3.912738  0.001  0.082152  0.002764  3.925006  0.001  0.151604  0.061989  0.00221  3.903698  0.0
C  C40  1  0.19321717  0.22735880  0.84474025  1  0.139189  0.008065  3.65044  0.005  0.069348  0.002606  3.912698  0.001  0.082162  0.002761  3.924967  0.001  0.151615  0.061999  0.00221  3.903657  0.0
C  C41  1  0.65965532  0.20623188  0.00938236  1  0.268697  0.026931  4.042451  0.018  0.261996  0.009393  4.352322  0.006  0.287113  0.009254  4.362189  0.006  0.131725  0.244574  0.009026  4.347071  0.005
C  C42  1  0.34034308  0.79376789  0.99061867  1  0.268708  0.026934  4.042444  0.018  0.262004  0.009391  4.352322  0.006  0.28712  0.009262  4.362193  0.006  0.131732  0.244581  0.009026  4.347072  0.005
S  S43  1  0.78184513  0.08527884  0.04523676  1  -0.403841  0.023831  2.03142  0.011  -0.407519  0.006275  2.336654  0.002  -0.420215  0.005828  2.326992  0.002  -0.205103  -0.39797  0.006185  2.344401  0.002
S  S44  1  0.21815321  0.91471973  0.95476280  1  -0.403844  0.023831  2.031426  0.011  -0.407525  0.006273  2.336666  0.002  -0.420221  0.005832  2.327006  0.002  -0.205105  -0.397976  0.006186  2.344413  0.002
N  N45  1  0.41779649  0.53227378  0.19255098  1  -0.305065  0.010248  3.38009  0.005  -0.269251  0.005684  3.696397  0.003  -0.298091  0.005858  3.712449  0.004  -0.342242  -0.250789  0.004901  3.684747  0.003
N  N46  1  0.58220323  0.46772600  0.80744907  1  -0.305039  0.01025  3.380048  0.005  -0.269223  0.005685  3.696346  0.003  -0.298063  0.00586  3.712397  0.004  -0.342229  -0.250759  0.004901  3.684694  0.003
N  N47  1  0.36176314  0.65459412  0.43361369  1  -0.285401  -0.000372  2.860134  -0.001  -0.293323  0.000161  3.139392  0.0  -0.300873  9.1e-05  3.150273  0.0  -0.230588  -0.287675  0.000251  3.13153  0.0
N  N48  1  0.63823656  0.34540565  0.56638737  1  -0.285396  -0.000372  2.860191  -0.001  -0.293311  0.00016  3.139452  0.0  -0.300859  9.4e-05  3.150334  0.0  -0.230587  -0.287663  0.000251  3.13159  0.0
N  N49  1  0.31272501  0.49355895  0.37870732  1  0.043108  0.000301  3.556293  0.0  0.165554  0.00063  3.742383  0.0  0.155094  0.000433  3.766156  0.0  -0.13185  0.170691  0.000957  3.728713  0.001
N  N50  1  0.68727729  0.50644083  0.62129280  1  0.043093  0.000301  3.556267  0.0  0.165508  0.000629  3.742384  0.0  0.155043  0.000436  3.766168  0.0  -0.131861  0.170645  0.000957  3.728714  0.001
N  N51  1  0.75554080  0.61595994  0.10700126  1  -0.354856  -0.03395  3.224381  -0.059  -0.317781  -0.029878  3.523338  -0.05  -0.339498  -0.024742  3.537826  -0.043  -0.327858  -0.303068  -0.034699  3.51235  -0.056
N  N52  1  0.24445890  0.38403983  0.89299979  1  -0.354852  -0.03395  3.224332  -0.059  -0.317777  -0.029877  3.523283  -0.05  -0.339495  -0.024742  3.537773  -0.043  -0.327859  -0.303064  -0.034699  3.512295  -0.056
N  N53  1  0.01953286  0.65576697  0.21988135  1  -0.266063  -0.003012  2.858892  -0.005  -0.264219  -0.001744  3.125863  -0.003  -0.272251  -0.001334  3.14151  -0.002  -0.222249  -0.257804  -0.002186  3.114141  -0.003
N  N54  1  0.98046694  0.34423403  0.78011916  1  -0.266073  -0.003012  2.858863  -0.005  -0.264227  -0.001744  3.125851  -0.003  -0.27226  -0.001332  3.141499  -0.002  -0.222247  -0.257811  -0.002186  3.114129  -0.003
N  N55  1  0.96502617  0.79723593  0.22193848  1  0.039099  -0.000512  3.57804  -0.001  0.165977  -0.000472  3.755041  -0.001  0.154534  -0.000337  3.781398  -0.001  -0.138292  0.171643  -0.000634  3.739513  -0.001
N  N56  1  0.03497354  0.20276385  0.77806157  1  0.039094  -0.000511  3.578023  -0.001  0.165973  -0.000474  3.755034  -0.001  0.154531  -0.000339  3.781389  -0.001  -0.138293  0.171642  -0.000634  3.739509  -0.001
N  N57  1  0.57732171  0.29815887  0.98129669  1  -0.49423  -0.000136  3.168305  -0.01  -0.475286  -0.000256  3.4773  -0.003  -0.498828  -0.000498  3.479128  -0.004  -0.415509  -0.461738  -0.000548  3.477625  -0.004
N  N58  1  0.42267800  0.70184092  0.01870336  1  -0.494239  -0.000136  3.168278  -0.01  -0.475293  -0.000254  3.477269  -0.003  -0.498832  -0.000505  3.479099  -0.004  -0.415517  -0.461744  -0.000548  3.477595  -0.004
