# generated using pymatgen
data_MnH10(C7O3)2
_symmetry_space_group_name_H-M   'P 1'
_cell_length_a   6.03286236
_cell_length_b   7.59265645
_cell_length_c   14.45386342
_cell_angle_alpha   102.15462798
_cell_angle_beta   89.99526470
_cell_angle_gamma   90.00518595
_symmetry_Int_Tables_number   1
_chemical_formula_structural   MnH10(C7O3)2
_chemical_formula_sum   'Mn2 H20 C28 O12'
_cell_volume   647.22416171
_cell_formula_units_Z   2
loop_
 _symmetry_equiv_pos_site_id
 _symmetry_equiv_pos_as_xyz
  1  'x, y, z'
loop_
 _atom_site_type_symbol
 _atom_site_label
 _atom_site_symmetry_multiplicity
 _atom_site_fract_x
 _atom_site_fract_y
 _atom_site_fract_z
 _atom_site_occupancy
 _atom_site_hle17_ddec_charge
 _atom_site_hle17_ddec_spin_density
 _atom_site_hle17_ddec_sum_bond_order
 _atom_site_hle17_magmom
 _atom_site_hse06_10hf_ddec_charge
 _atom_site_hse06_10hf_ddec_spin_density
 _atom_site_hse06_10hf_ddec_sum_bond_order
 _atom_site_hse06_10hf_magmom
 _atom_site_hse06_ddec_charge
 _atom_site_hse06_ddec_spin_density
 _atom_site_hse06_ddec_sum_bond_order
 _atom_site_hse06_magmom
 _atom_site_pbe_cm5_charge
 _atom_site_pbe_ddec_charge
 _atom_site_pbe_ddec_spin_density
 _atom_site_pbe_ddec_sum_bond_order
 _atom_site_pbe_magmom
Mn  Mn0  1  0.69550181  0.75001122  0.49998955  1  1.297401  4.785821  1.68448  4.657  1.146284  4.704885  2.199589  4.501  1.203953  4.756165  2.11871  4.576  0.639009  1.102163  4.647898  2.259378  4.422
Mn  Mn1  1  0.30449318  0.25000395  0.50001135  1  1.297444  4.785856  1.684433  4.657  1.146318  4.704924  2.199515  4.501  1.203984  4.756206  2.118643  4.576  0.638993  1.102197  4.647933  2.259301  4.422
H  H2  1  0.02138010  0.32623983  0.31689291  1  0.106937  -0.000711  0.939434  0.0  0.114673  -0.000629  1.001057  0.0  0.118209  -0.000657  0.998294  0.0  0.111379  0.111921  -0.00058  1.003257  0.0
H  H3  1  0.02139576  0.17373728  0.68312895  1  0.107064  -0.000719  0.939417  0.0  0.11466  -0.000629  1.001177  0.0  0.118198  -0.000657  0.998413  0.0  0.11138  0.111914  -0.000581  1.003373  0.0
H  H4  1  0.97862649  0.67375512  0.68310780  1  0.107016  -0.000714  0.939487  0.0  0.114745  -0.000629  1.001102  0.0  0.118281  -0.000657  0.99834  0.0  0.111396  0.111998  -0.00058  1.003295  0.0
H  H5  1  0.97857768  0.82625498  0.31687146  1  0.107018  -0.000719  0.93951  0.0  0.114615  -0.00063  1.001263  0.0  0.118152  -0.000657  0.998501  0.0  0.111396  0.111869  -0.000581  1.003456  0.0
H  H6  1  0.86770349  0.21327698  0.15451639  1  0.111957  6.9e-05  0.964623  0.0  0.120246  2.7e-05  1.028884  0.0  0.122813  1.9e-05  1.02958  0.0  0.103311  0.118256  4.3e-05  1.028874  0.0
H  H7  1  0.86774319  0.28672223  0.84551058  1  0.112048  7.4e-05  0.964793  0.0  0.1203  2.7e-05  1.029046  0.0  0.122857  1.9e-05  1.02977  0.0  0.103384  0.118311  4.3e-05  1.029036  0.0
H  H8  1  0.13232465  0.78672606  0.84548316  1  0.111967  6.4e-05  0.964529  0.0  0.12025  2.7e-05  1.02882  0.0  0.122818  1.9e-05  1.029515  0.0  0.103307  0.118262  4.3e-05  1.028806  0.0
H  H9  1  0.13225180  0.71326327  0.15449253  1  0.112042  7.8e-05  0.964811  0.0  0.120303  2.7e-05  1.029064  0.0  0.122859  1.9e-05  1.029789  0.0  0.103407  0.118313  4.3e-05  1.029051  0.0
H  H10  1  0.45288195  0.40211039  0.03430373  1  0.106348  1.1e-05  0.977174  0.0  0.117059  -4.3e-05  1.03745  0.0  0.120275  -3.7e-05  1.036317  0.0  0.102544  0.114818  -5.2e-05  1.038322  0.0
H  H11  1  0.45285908  0.09788976  0.96569760  1  0.106318  2.2e-05  0.977237  0.0  0.117084  -4.3e-05  1.037429  0.0  0.120301  -3.6e-05  1.036294  0.0  0.102497  0.114846  -5.2e-05  1.038303  0.0
H  H12  1  0.54710144  0.59788048  0.96570206  1  0.106245  1.7e-05  0.977184  0.0  0.116951  -4.3e-05  1.037477  0.0  0.12017  -3.7e-05  1.036339  0.0  0.102462  0.114712  -5.2e-05  1.038348  0.0
H  H13  1  0.54711768  0.90209983  0.03429698  1  0.106263  2e-05  0.977268  0.0  0.116986  -4.3e-05  1.037528  0.0  0.120205  -3.6e-05  1.03639  0.0  0.102477  0.114746  -5.2e-05  1.038401  0.0
H  H14  1  0.60208626  0.51810711  0.19626059  1  0.102154  -0.000358  0.958464  0.0  0.109584  -0.000235  1.024016  0.0  0.111978  -0.000265  1.023706  0.0  0.10464  0.107685  -0.000199  1.024598  0.0
H  H15  1  0.60204088  0.98187168  0.80374514  1  0.102139  -0.000351  0.958468  0.0  0.109624  -0.000236  1.024003  0.0  0.112027  -0.000265  1.023661  0.0  0.10462  0.107725  -0.000199  1.024586  0.0
H  H16  1  0.39792364  0.48188651  0.80373514  1  0.102174  -0.000372  0.958552  0.0  0.109612  -0.000236  1.024093  0.0  0.112007  -0.000264  1.023775  0.0  0.104648  0.107712  -0.000199  1.024674  0.0
H  H17  1  0.39794085  0.01811384  0.19625313  1  0.102112  -0.000344  0.958434  0.0  0.109579  -0.000236  1.023973  0.0  0.111974  -0.000265  1.023658  0.0  0.10463  0.107678  -0.000199  1.024556  0.0
H  H18  1  0.13428061  0.85776864  0.52128042  1  0.436532  0.000148  0.867878  0.002  0.406713  0.001467  0.929147  0.003  0.416863  0.000912  0.914454  0.003  0.302669  0.399505  0.002021  0.939549  0.004
H  H19  1  0.13426577  0.64221561  0.47866005  1  0.436199  0.000146  0.868402  0.002  0.406442  0.001465  0.929546  0.003  0.416596  0.00091  0.91485  0.003  0.302494  0.399236  0.002018  0.93994  0.004
H  H20  1  0.86573427  0.14223849  0.47871129  1  0.436546  0.000149  0.867848  0.002  0.406722  0.001467  0.929133  0.003  0.416872  0.000911  0.914439  0.003  0.302619  0.399514  0.002021  0.939534  0.004
H  H21  1  0.86575408  0.35780495  0.52134146  1  0.436583  0.000147  0.867851  0.002  0.406768  0.001465  0.9291  0.003  0.41692  0.000909  0.914405  0.003  0.302639  0.399561  0.002018  0.939497  0.004
C  C22  1  0.32151804  0.42957872  0.26664995  1  -0.098918  -0.003996  3.770568  -0.003  -0.078429  -0.003249  4.007359  -0.002  -0.090242  -0.003751  4.03084  -0.002  -0.024715  -0.070882  -0.002824  3.99219  -0.002
C  C23  1  0.32152181  0.07040307  0.73336315  1  -0.099044  -0.00402  3.77108  -0.003  -0.078626  -0.003243  4.007913  -0.002  -0.090427  -0.003748  4.031402  -0.002  -0.024868  -0.07108  -0.002819  3.992745  -0.002
C  C24  1  0.67850016  0.57042969  0.73335435  1  -0.098848  -0.004027  3.770517  -0.003  -0.078454  -0.003247  4.007518  -0.002  -0.090275  -0.00375  4.031008  -0.002  -0.024775  -0.070904  -0.002823  3.992346  -0.002
C  C25  1  0.67846820  0.92958245  0.26663581  1  -0.098908  -0.004027  3.771016  -0.003  -0.078489  -0.003243  4.007858  -0.002  -0.090298  -0.003751  4.031342  -0.002  -0.024811  -0.070944  -0.002819  3.99269  -0.002
C  C26  1  0.11463649  0.34267218  0.25471196  1  -0.018212  0.003906  3.708628  0.004  -0.043077  0.004012  3.959715  0.004  -0.039033  0.003234  3.977425  0.003  -0.070277  -0.045709  0.005463  3.948133  0.005
C  C27  1  0.11466775  0.15729996  0.74529512  1  -0.018203  0.00394  3.708222  0.004  -0.042887  0.004008  3.95928  0.004  -0.038841  0.003233  3.976982  0.003  -0.070149  -0.045526  0.005459  3.947712  0.005
C  C28  1  0.88538502  0.65732546  0.74528974  1  -0.018435  0.003936  3.708717  0.004  -0.043239  0.004009  3.959855  0.004  -0.039193  0.003233  3.97757  0.003  -0.070274  -0.045872  0.00546  3.948275  0.005
C  C29  1  0.88532393  0.84269098  0.25470030  1  -0.018175  0.003969  3.7083  0.004  -0.042842  0.004007  3.959342  0.004  -0.038795  0.003235  3.977045  0.003  -0.070132  -0.045483  0.005458  3.947773  0.005
C  C30  1  0.02885131  0.27931805  0.16479092  1  -0.184662  -0.003215  3.735302  -0.002  -0.205047  -0.001612  3.991532  -0.001  -0.212405  -0.002165  4.011757  -0.001  -0.099061  -0.20025  -0.001405  3.978406  -0.001
C  C31  1  0.02886274  0.22067960  0.83523650  1  -0.184697  -0.003267  3.734759  -0.002  -0.205065  -0.001609  3.991069  -0.001  -0.21242  -0.002164  4.011288  -0.001  -0.099146  -0.200267  -0.001402  3.977955  -0.001
C  C32  1  0.97116688  0.72068495  0.83521623  1  -0.184616  -0.003235  3.734945  -0.002  -0.20499  -0.001611  3.991195  -0.001  -0.212344  -0.002165  4.011413  -0.001  -0.099073  -0.200193  -0.001404  3.978073  -0.001
C  C33  1  0.97112894  0.77931268  0.16476045  1  -0.184719  -0.003311  3.734784  -0.002  -0.205091  -0.001608  3.991131  -0.001  -0.212441  -0.002167  4.011333  -0.001  -0.099201  -0.200295  -0.001402  3.978013  -0.001
C  C34  1  0.15015829  0.30216403  0.08553232  1  0.290606  0.003913  3.775847  0.003  0.27776  0.004585  4.039085  0.004  0.291404  0.003621  4.052923  0.003  0.08969  0.268349  0.006406  4.029513  0.005
C  C35  1  0.15016862  0.19783131  0.91447920  1  0.290449  0.003945  3.775765  0.003  0.277574  0.004577  4.039101  0.004  0.291208  0.003615  4.052943  0.003  0.089591  0.268162  0.006396  4.029536  0.005
C  C36  1  0.84983669  0.69783631  0.91446900  1  0.290624  0.003944  3.775812  0.003  0.277692  0.004581  4.039137  0.004  0.29136  0.00362  4.052972  0.003  0.089721  0.268278  0.006402  4.029565  0.005
C  C37  1  0.84981145  0.80216499  0.08551959  1  0.290477  0.003959  3.775731  0.003  0.277507  0.004576  4.039155  0.004  0.29117  0.003618  4.052988  0.003  0.089638  0.268096  0.006395  4.02958  0.005
C  C38  1  0.35844707  0.38569459  0.09599948  1  -0.211008  -0.003294  3.768653  -0.002  -0.23016  -0.00187  4.023882  -0.001  -0.237853  -0.002233  4.042831  -0.002  -0.107562  -0.22494  -0.001936  4.011081  -0.002
C  C39  1  0.35842838  0.11430374  0.90401797  1  -0.210813  -0.003362  3.76797  -0.002  -0.229966  -0.001867  4.023217  -0.001  -0.237653  -0.002232  4.042161  -0.002  -0.107401  -0.224746  -0.001934  4.010421  -0.002
C  C40  1  0.64155289  0.61429630  0.90400424  1  -0.210904  -0.003347  3.768623  -0.002  -0.230022  -0.001868  4.023845  -0.001  -0.237715  -0.002234  4.04279  -0.002  -0.107515  -0.224801  -0.001935  4.011043  -0.002
C  C41  1  0.64155335  0.88569121  0.09598205  1  -0.210812  -0.003352  3.768159  -0.002  -0.229932  -0.001866  4.023443  -0.001  -0.237619  -0.002235  4.042381  -0.002  -0.107416  -0.224714  -0.001934  4.010644  -0.002
C  C42  1  0.44223483  0.44977400  0.18655754  1  -0.034992  0.004166  3.737945  0.004  -0.058212  0.004605  3.98684  0.004  -0.054301  0.003705  4.006165  0.003  -0.079057  -0.060754  0.006271  3.974127  0.005
C  C43  1  0.44221447  0.05020406  0.81344781  1  -0.035002  0.004181  3.737285  0.004  -0.058305  0.004599  3.986257  0.004  -0.054399  0.003702  4.005589  0.003  -0.079066  -0.060839  0.006264  3.973541  0.005
C  C44  1  0.55777010  0.55022231  0.81344125  1  -0.035095  0.00421  3.737959  0.004  -0.05828  0.004603  3.986877  0.004  -0.054368  0.003705  4.006209  0.003  -0.079026  -0.06082  0.006268  3.974162  0.005
C  C45  1  0.55777223  0.94978145  0.18655323  1  -0.035015  0.004162  3.737523  0.004  -0.058263  0.004599  3.986447  0.004  -0.054357  0.003704  4.005777  0.003  -0.079122  -0.0608  0.006264  3.97373  0.005
C  C46  1  0.40660213  0.50514056  0.36298812  1  0.678996  0.016874  3.860129  0.016  0.624121  0.027494  4.150721  0.024  0.662759  0.020306  4.140709  0.018  0.22962  0.596291  0.035545  4.157325  0.03
C  C47  1  0.40661273  0.99482638  0.63701727  1  0.678642  0.016857  3.860822  0.016  0.62392  0.027487  4.15124  0.024  0.662529  0.020302  4.141271  0.018  0.229634  0.596096  0.035534  4.157834  0.03
C  C48  1  0.59341939  0.49487733  0.63700825  1  0.679334  0.016865  3.85978  0.016  0.624354  0.027491  4.150595  0.024  0.662999  0.020305  4.140575  0.018  0.229766  0.596526  0.035541  4.157196  0.03
C  C49  1  0.59339552  0.00516720  0.36298606  1  0.678635  0.016872  3.860689  0.016  0.623817  0.02749  4.151259  0.024  0.662452  0.020305  4.141254  0.018  0.229466  0.595994  0.035538  4.157852  0.03
O  O50  1  0.58229708  0.60026727  0.37204632  1  -0.639066  0.038716  2.038341  0.024  -0.575188  0.047091  2.310281  0.027  -0.60701  0.040604  2.295242  0.021  -0.301897  -0.551316  0.054132  2.320174  0.034
O  O51  1  0.58229493  0.89971472  0.62794645  1  -0.638917  0.038718  2.038387  0.024  -0.575131  0.047083  2.310337  0.027  -0.606943  0.0406  2.295302  0.021  -0.301921  -0.551258  0.054121  2.320229  0.034
O  O52  1  0.41770786  0.39975868  0.62795511  1  -0.63922  0.038721  2.038121  0.024  -0.57527  0.047086  2.310114  0.027  -0.607093  0.0406  2.295064  0.021  -0.301925  -0.551403  0.054128  2.320019  0.034
O  O53  1  0.41770834  0.10028697  0.37205364  1  -0.639011  0.038707  2.038311  0.024  -0.575197  0.047083  2.310297  0.027  -0.607019  0.040599  2.295253  0.021  -0.301923  -0.551314  0.054121  2.320164  0.034
O  O54  1  0.03748912  0.75001234  0.49993261  1  -0.871542  0.039747  1.868235  0.025  -0.80219  0.049647  2.084177  0.031  -0.828587  0.043823  2.04643  0.026  -0.579989  -0.781762  0.05514  2.110444  0.036
O  O55  1  0.96252079  0.25000421  0.50006292  1  -0.871876  0.039756  1.867829  0.025  -0.802487  0.049656  2.083821  0.031  -0.828881  0.043832  2.046071  0.026  -0.580056  -0.782059  0.05515  2.110089  0.036
O  O56  1  0.29491801  0.47752598  0.43486106  1  -0.71755  0.030855  2.136706  0.014  -0.644781  0.040638  2.407845  0.019  -0.674856  0.036364  2.387875  0.016  -0.31806  -0.622293  0.044944  2.421367  0.023
O  O57  1  0.29492984  0.02244911  0.56516167  1  -0.717263  0.030827  2.137137  0.014  -0.644514  0.040619  2.408209  0.019  -0.674584  0.036346  2.388272  0.016  -0.317905  -0.622028  0.044924  2.421724  0.023
O  O58  1  0.70508195  0.52248247  0.56513563  1  -0.717635  0.030843  2.13669  0.014  -0.644836  0.040636  2.407968  0.019  -0.67491  0.03636  2.387991  0.016  -0.318093  -0.62235  0.044942  2.421495  0.023
O  O59  1  0.70506349  0.97756196  0.43484708  1  -0.71723  0.030833  2.137048  0.014  -0.644428  0.040624  2.408167  0.019  -0.674503  0.03635  2.388211  0.016  -0.317777  -0.621945  0.044928  2.421684  0.023
O  O60  1  0.04198597  0.25000530  0.00000964  1  -0.283929  0.000349  2.349748  0.0  -0.214479  0.000925  2.572029  0.001  -0.232427  0.000705  2.571812  0.001  -0.145404  -0.201644  0.001342  2.571691  0.001
O  O61  1  0.95800077  0.74999655  0.99999090  1  -0.283951  0.000344  2.34976  0.0  -0.214386  0.000926  2.572052  0.001  -0.232402  0.000705  2.57188  0.001  -0.145431  -0.201545  0.001342  2.571714  0.001
