# generated using pymatgen
data_ZnH12C15N2O5
_symmetry_space_group_name_H-M   'P 1'
_cell_length_a   7.28939167
_cell_length_b   11.30408377
_cell_length_c   17.76709566
_cell_angle_alpha   89.99985517
_cell_angle_beta   91.29577826
_cell_angle_gamma   89.99991076
_symmetry_Int_Tables_number   1
_chemical_formula_structural   ZnH12C15N2O5
_chemical_formula_sum   'Zn4 H48 C60 N8 O20'
_cell_volume   1463.63242078
_cell_formula_units_Z   4
loop_
 _symmetry_equiv_pos_site_id
 _symmetry_equiv_pos_as_xyz
  1  'x, y, z'
loop_
 _atom_site_type_symbol
 _atom_site_label
 _atom_site_symmetry_multiplicity
 _atom_site_fract_x
 _atom_site_fract_y
 _atom_site_fract_z
 _atom_site_occupancy
 _atom_site_hle17_bader_spin_density
 _atom_site_hle17_ddec_charge
 _atom_site_hle17_ddec_spin_density
 _atom_site_hle17_ddec_sum_bond_order
 _atom_site_hle17_magmom
 _atom_site_hse06_10hf_bader_spin_density
 _atom_site_hse06_10hf_ddec_charge
 _atom_site_hse06_10hf_ddec_spin_density
 _atom_site_hse06_10hf_ddec_sum_bond_order
 _atom_site_hse06_10hf_magmom
 _atom_site_hse06_bader_spin_density
 _atom_site_hse06_ddec_charge
 _atom_site_hse06_ddec_spin_density
 _atom_site_hse06_ddec_sum_bond_order
 _atom_site_hse06_magmom
 _atom_site_pbe_bader_spin_density
 _atom_site_pbe_cm5_charge
 _atom_site_pbe_ddec_charge
 _atom_site_pbe_ddec_spin_density
 _atom_site_pbe_ddec_sum_bond_order
 _atom_site_pbe_magmom
Zn  Zn0  1  0.50000007  0.49999937  0.99999954  1  0  1.205029  0  1.674437  0  0  1.041763  0  2.124313  0  0  1.091731  0  2.062518  0  0  0.68823  1.00648  0  2.166944  0
Zn  Zn1  1  0.49999804  0.00000053  0.49999977  1  0  1.205068  0  1.674438  0  0  1.041736  0  2.124349  0  0  1.091706  0  2.062554  0  0  0.688212  1.006457  0  2.16699  0
Zn  Zn2  1  0.99999958  0.50000000  0.99999973  1  0  1.21604  0  1.703392  0  0  1.046986  0  2.162504  0  0  1.096487  0  2.09945  0  0  0.6968  1.012145  0  2.205989  0
Zn  Zn3  1  0.99999990  0.99999989  0.49999960  1  0  1.216032  0  1.703403  0  0  1.046978  0  2.162515  0  0  1.096478  0  2.099459  0  0  0.696788  1.012132  0  2.206006  0
H  H4  1  0.50445647  0.76648644  0.00702838  1  0  0.322486  0  0.928916  0  0  0.303142  0  0.990634  0  0  0.311799  0  0.983252  0  0  0.308589  0.297066  0  0.995805  0
H  H5  1  0.49554254  0.26648654  0.49297188  1  0  0.322492  0  0.928913  0  0  0.303152  0  0.990622  0  0  0.311809  0  0.98324  0  0  0.3086  0.29708  0  0.995795  0
H  H6  1  0.49554523  0.23351427  0.99297152  1  0  0.32248  0  0.9289  0  0  0.303091  0  0.990668  0  0  0.311746  0  0.983289  0  0  0.308595  0.297006  0  0.995839  0
H  H7  1  0.50445643  0.73351330  0.50702856  1  0  0.322523  0  0.928881  0  0  0.303171  0  0.9906  0  0  0.311828  0  0.983218  0  0  0.308599  0.297088  0  0.995774  0
H  H8  1  0.02026557  0.70313239  0.10873905  1  0  0.31926  0  0.938621  0  0  0.298159  0  1.00337  0  0  0.307023  0  0.996137  0  0  0.304922  0.291947  0  1.008447  0
H  H9  1  0.97973497  0.20313240  0.39126132  1  0  0.319311  0  0.938617  0  0  0.298198  0  1.003368  0  0  0.307064  0  0.99613  0  0  0.30493  0.291985  0  1.00844  0
H  H10  1  0.97973613  0.29686656  0.89126085  1  0  0.31928  0  0.938581  0  0  0.298167  0  1.003337  0  0  0.307032  0  0.9961  0  0  0.304909  0.291954  0  1.008415  0
H  H11  1  0.02026262  0.79686655  0.60873912  1  0  0.319261  0  0.938601  0  0  0.298143  0  1.003376  0  0  0.30701  0  0.996133  0  0  0.304881  0.291929  0  1.008451  0
H  H12  1  0.20610217  0.86554071  0.18604262  1  0  0.063913  0  0.916551  0  0  0.079443  0  0.974071  0  0  0.079532  0  0.975075  0  0  0.102916  0.079279  0  0.973483  0
H  H13  1  0.79389659  0.36554209  0.31395747  1  0  0.063931  0  0.916532  0  0  0.079464  0  0.974058  0  0  0.079554  0  0.975062  0  0  0.102911  0.079299  0  0.973461  0
H  H14  1  0.79389540  0.13445824  0.81395669  1  0  0.063892  0  0.916554  0  0  0.079431  0  0.974088  0  0  0.079521  0  0.975092  0  0  0.102896  0.079262  0  0.973498  0
H  H15  1  0.20610375  0.63445597  0.68604354  1  0  0.063914  0  0.916514  0  0  0.079447  0  0.97405  0  0  0.079534  0  0.975055  0  0  0.102902  0.07928  0  0.973455  0
H  H16  1  0.07984021  0.93629234  0.11234328  1  0  0.060396  0  0.956006  0  0  0.073184  0  1.020377  0  0  0.072966  0  1.022436  0  0  0.097991  0.073245  0  1.019052  0
H  H17  1  0.92015838  0.43629065  0.38765726  1  0  0.060391  0  0.956043  0  0  0.073199  0  1.020401  0  0  0.072981  0  1.022459  0  0  0.098  0.07326  0  1.019081  0
H  H18  1  0.92015737  0.06370661  0.88765659  1  0  0.060381  0  0.956056  0  0  0.073198  0  1.020413  0  0  0.07298  0  1.022473  0  0  0.09801  0.073257  0  1.019094  0
H  H19  1  0.07984196  0.56370741  0.61234376  1  0  0.060378  0  0.956061  0  0  0.073195  0  1.02042  0  0  0.072976  0  1.022478  0  0  0.098007  0.073258  0  1.019102  0
H  H20  1  0.35216920  0.97217583  0.04552097  1  0  0.053608  0  0.91891  0  0  0.069446  0  0.978411  0  0  0.070207  0  0.978088  0  0  0.09894  0.068783  0  0.978729  0
H  H21  1  0.64783205  0.47217592  0.45448009  1  0  0.053577  0  0.918906  0  0  0.069413  0  0.978416  0  0  0.070173  0  0.978094  0  0  0.098923  0.068751  0  0.97874  0
H  H22  1  0.64783113  0.02782489  0.95447948  1  0  0.053595  0  0.918916  0  0  0.069435  0  0.978417  0  0  0.070196  0  0.978094  0  0  0.098935  0.068764  0  0.978744  0
H  H23  1  0.35217105  0.52782392  0.54552207  1  0  0.053637  0  0.918968  0  0  0.069483  0  0.978446  0  0  0.070244  0  0.978123  0  0  0.098956  0.068819  0  0.978774  0
H  H24  1  0.48043701  0.91371178  0.12361405  1  0  0.05957  0  0.936015  0  0  0.07536  0  0.997778  0  0  0.075567  0  0.99826  0  0  0.102694  0.075102  0  0.997547  0
H  H25  1  0.51956301  0.41371319  0.37638654  1  0  0.05956  0  0.936037  0  0  0.075369  0  0.997783  0  0  0.075577  0  0.998262  0  0  0.102696  0.075113  0  0.99755  0
H  H26  1  0.51956195  0.08628805  0.87638583  1  0  0.059569  0  0.936012  0  0  0.075363  0  0.99777  0  0  0.07557  0  0.998252  0  0  0.102695  0.075104  0  0.997542  0
H  H27  1  0.48043871  0.58628752  0.62361505  1  0  0.059575  0  0.93597  0  0  0.075337  0  0.997766  0  0  0.075543  0  0.99825  0  0  0.102695  0.075083  0  0.997537  0
H  H28  1  0.46137147  0.69268532  0.20045333  1  0  0.10229  0  0.952316  0  0  0.112038  0  1.014277  0  0  0.114893  0  1.013581  0  0  0.104075  0.109979  0  1.014875  0
H  H29  1  0.53862909  0.19269056  0.29954649  1  0  0.102305  0  0.952235  0  0  0.112049  0  1.014217  0  0  0.114906  0  1.013518  0  0  0.104092  0.109983  0  1.01482  0
H  H30  1  0.53862884  0.30730921  0.79954487  1  0  0.102335  0  0.952219  0  0  0.112083  0  1.014189  0  0  0.11494  0  1.01349  0  0  0.104109  0.110016  0  1.014787  0
H  H31  1  0.46136988  0.80731016  0.70045451  1  0  0.102307  0  0.95224  0  0  0.112064  0  1.0142  0  0  0.114921  0  1.013501  0  0  0.104094  0.109997  0  1.014804  0
H  H32  1  0.48131631  0.80260640  0.32348252  1  0  0.110031  0  0.939012  0  0  0.119319  0  0.998731  0  0  0.12308  0  0.996658  0  0  0.106781  0.116617  0  1.00028  0
H  H33  1  0.51868259  0.30260950  0.17651599  1  0  0.110013  0  0.939042  0  0  0.119354  0  0.998709  0  0  0.123116  0  0.996634  0  0  0.106763  0.116647  0  1.000254  0
H  H34  1  0.51867847  0.19739166  0.67651339  1  0  0.110042  0  0.938988  0  0  0.119381  0  0.998661  0  0  0.123144  0  0.996583  0  0  0.106774  0.116667  0  1.000206  0
H  H35  1  0.48131641  0.69739299  0.82348671  1  0  0.110033  0  0.938974  0  0  0.119372  0  0.998649  0  0  0.123137  0  0.996571  0  0  0.106765  0.116659  0  1.000199  0
H  H36  1  0.03439853  0.48519595  0.18514365  1  0  0.112994  0  0.988357  0  0  0.118744  0  1.053662  0  0  0.122431  0  1.051832  0  0  0.101711  0.116083  0  1.055056  0
H  H37  1  0.96560408  0.98519683  0.31485853  1  0  0.113042  0  0.988321  0  0  0.118811  0  1.053616  0  0  0.1225  0  1.051785  0  0  0.101753  0.116141  0  1.055023  0
H  H38  1  0.96560184  0.51480212  0.81485905  1  0  0.113033  0  0.988337  0  0  0.118799  0  1.053636  0  0  0.122487  0  1.051807  0  0  0.101747  0.116134  0  1.055023  0
H  H39  1  0.03439349  0.01480389  0.68514078  1  0  0.112997  0  0.988372  0  0  0.118769  0  1.053669  0  0  0.122456  0  1.051841  0  0  0.101732  0.116095  0  1.055061  0
H  H40  1  0.30620971  0.46460751  0.26791621  1  0  0.085283  0  0.962681  0  0  0.094342  0  1.027153  0  0  0.096637  0  1.027125  0  0  0.095585  0.092652  0  1.027305  0
H  H41  1  0.69379705  0.96460545  0.23208491  1  0  0.085307  0  0.962655  0  0  0.094363  0  1.027135  0  0  0.096656  0  1.027102  0  0  0.095612  0.092677  0  1.027296  0
H  H42  1  0.69379204  0.53539497  0.73208707  1  0  0.085258  0  0.962713  0  0  0.094331  0  1.027172  0  0  0.096623  0  1.027141  0  0  0.095585  0.09265  0  1.027321  0
H  H43  1  0.30620187  0.03539792  0.76791272  1  0  0.085268  0  0.962761  0  0  0.094343  0  1.027213  0  0  0.096633  0  1.027183  0  0  0.095602  0.092657  0  1.02736  0
H  H44  1  0.32843829  0.57757351  0.38967991  1  0  0.077253  0  0.969959  0  0  0.086949  0  1.036048  0  0  0.089497  0  1.035395  0  0  0.094172  0.085114  0  1.036573  0
H  H45  1  0.67156668  0.07757141  0.11032070  1  0  0.077278  0  0.970032  0  0  0.08696  0  1.036121  0  0  0.089507  0  1.035467  0  0  0.094156  0.085114  0  1.03664  0
H  H46  1  0.67156070  0.42242986  0.61032223  1  0  0.077262  0  0.970022  0  0  0.086938  0  1.036123  0  0  0.089484  0  1.03547  0  0  0.094166  0.08511  0  1.03665  0
H  H47  1  0.32843361  0.92243196  0.88967694  1  0  0.077246  0  0.970082  0  0  0.08693  0  1.036166  0  0  0.089477  0  1.035515  0  0  0.094182  0.0851  0  1.036688  0
H  H48  1  0.07581181  0.70755226  0.42693983  1  0  0.10238  0  0.981308  0  0  0.110586  0  1.04477  0  0  0.113702  0  1.043288  0  0  0.099401  0.108228  0  1.046063  0
H  H49  1  0.92419146  0.20755093  0.07305999  1  0  0.102396  0  0.981281  0  0  0.110599  0  1.044745  0  0  0.113715  0  1.043264  0  0  0.099406  0.108234  0  1.046046  0
H  H50  1  0.92418577  0.29245465  0.57305948  1  0  0.102342  0  0.981469  0  0  0.110523  0  1.044959  0  0  0.113635  0  1.04349  0  0  0.099369  0.108207  0  1.046215  0
H  H51  1  0.07581436  0.79245244  0.92693994  1  0  0.10238  0  0.981377  0  0  0.11058  0  1.044842  0  0  0.113693  0  1.043367  0  0  0.099397  0.108239  0  1.046125  0
C  C52  1  0.73370110  0.62389498  0.21030907  1  0  -0.100606  0  3.713396  0  0  -0.085622  0  3.950466  0  0  -0.091477  0  3.970348  0  0  -0.013975  -0.081836  0  3.937114  0
C  C53  1  0.26630513  0.12389522  0.28969147  1  0  -0.100553  0  3.713342  0  0  -0.085587  0  3.95044  0  0  -0.091441  0  3.970324  0  0  -0.013998  -0.081822  0  3.937112  0
C  C54  1  0.26630199  0.37610308  0.78969197  1  0  -0.10066  0  3.713307  0  0  -0.085672  0  3.950392  0  0  -0.091526  0  3.970274  0  0  -0.013975  -0.081891  0  3.937021  0
C  C55  1  0.73369519  0.87610284  0.71030786  1  0  -0.100625  0  3.713351  0  0  -0.085638  0  3.950433  0  0  -0.091491  0  3.970315  0  0  -0.014049  -0.081864  0  3.93707  0
C  C56  1  0.90678724  0.67385891  0.32727931  1  0  0.044124  0  3.751158  0  0  0.054342  0  3.976936  0  0  0.054508  0  4.001574  0  0  -0.003705  0.054216  0  3.960347  0
C  C57  1  0.09321884  0.17385802  0.17271946  1  0  0.043967  0  3.751423  0  0  0.054176  0  3.977173  0  0  0.05433  0  4.001828  0  0  -0.00375  0.054047  0  3.960574  0
C  C58  1  0.09321172  0.32614270  0.67272057  1  0  0.044011  0  3.751286  0  0  0.054245  0  3.977046  0  0  0.054407  0  4.001687  0  0  -0.003679  0.054114  0  3.960448  0
C  C59  1  0.90678423  0.82614359  0.82727989  1  0  0.043978  0  3.751455  0  0  0.054205  0  3.977208  0  0  0.054363  0  4.001858  0  0  -0.003711  0.054077  0  3.960612  0
C  C60  1  0.89570785  0.61106493  0.25689232  1  0  0.037593  0  3.748092  0  0  0.048938  0  3.974325  0  0  0.048888  0  3.998982  0  0  -0.004515  0.048934  0  3.957776  0
C  C61  1  0.10429429  0.11106552  0.24310765  1  0  0.037551  0  3.748079  0  0  0.048888  0  3.974329  0  0  0.048838  0  3.99899  0  0  -0.004564  0.048888  0  3.957778  0
C  C62  1  0.10428976  0.38893225  0.74310924  1  0  0.037643  0  3.748149  0  0  0.049004  0  3.97435  0  0  0.048954  0  3.999011  0  0  -0.004557  0.049016  0  3.957758  0
C  C63  1  0.89570740  0.88893431  0.75689113  1  0  0.037619  0  3.748104  0  0  0.048942  0  3.974346  0  0  0.048891  0  3.999007  0  0  -0.004534  0.048943  0  3.95777  0
C  C64  1  0.59564154  0.74847108  0.30491612  1  0  -0.078421  0  3.758881  0  0  -0.103297  0  4.016616  0  0  -0.103745  0  4.035194  0  0  -0.086675  -0.102864  0  4.003955  0
C  C65  1  0.40435888  0.24847421  0.19508305  1  0  -0.078482  0  3.758925  0  0  -0.103424  0  4.016649  0  0  -0.103872  0  4.035224  0  0  -0.086696  -0.102988  0  4.003975  0
C  C66  1  0.40435602  0.25152699  0.69508207  1  0  -0.078464  0  3.758818  0  0  -0.103381  0  4.016559  0  0  -0.103828  0  4.035131  0  0  -0.086698  -0.102934  0  4.003874  0
C  C67  1  0.59564421  0.75152650  0.80491798  1  0  -0.07845  0  3.758794  0  0  -0.103394  0  4.016537  0  0  -0.10384  0  4.035107  0  0  -0.086691  -0.10295  0  4.003863  0
C  C68  1  0.76756512  0.82861703  0.41455970  1  0  0.690157  0  3.853672  0  0  0.634644  0  4.149781  0  0  0.670544  0  4.139214  0  0  0.22536  0.610222  0  4.156333  0
C  C69  1  0.23243786  0.32861635  0.08544105  1  0  0.690294  0  3.85347  0  0  0.634583  0  4.149882  0  0  0.670475  0  4.139327  0  0  0.225345  0.610155  0  4.156441  0
C  C70  1  0.23243110  0.17138546  0.58544073  1  0  0.690448  0  3.853557  0  0  0.634728  0  4.149994  0  0  0.670623  0  4.13943  0  0  0.225369  0.610307  0  4.15655  0
C  C71  1  0.76756521  0.67138702  0.91455886  1  0  0.690328  0  3.853494  0  0  0.634626  0  4.149917  0  0  0.670529  0  4.139341  0  0  0.225355  0.610198  0  4.156478  0
C  C72  1  0.72246425  0.57623803  0.13133643  1  0  0.685855  0  3.856451  0  0  0.631647  0  4.152971  0  0  0.667618  0  4.14243  0  0  0.222985  0.607222  0  4.159462  0
C  C73  1  0.27753251  0.07624060  0.36866524  1  0  0.686014  0  3.856222  0  0  0.631786  0  4.152706  0  0  0.667754  0  4.142164  0  0  0.223118  0.60737  0  4.159201  0
C  C74  1  0.27752924  0.42375561  0.86866510  1  0  0.686206  0  3.855991  0  0  0.631933  0  4.152542  0  0  0.667901  0  4.141998  0  0  0.223148  0.607501  0  4.159035  0
C  C75  1  0.72247193  0.92375569  0.63133411  1  0  0.686142  0  3.856019  0  0  0.63192  0  4.15248  0  0  0.667887  0  4.141936  0  0  0.223158  0.607498  0  4.158963  0
C  C76  1  0.75508786  0.74574889  0.34877350  1  0  -0.099463  0  3.718593  0  0  -0.085074  0  3.957402  0  0  -0.091247  0  3.977848  0  0  -0.013482  -0.081053  0  3.943643  0
C  C77  1  0.24491118  0.24574793  0.15122511  1  0  -0.099372  0  3.718799  0  0  -0.084875  0  3.957568  0  0  -0.091043  0  3.978017  0  0  -0.013385  -0.080846  0  3.943792  0
C  C78  1  0.24490561  0.25425183  0.65122635  1  0  -0.099481  0  3.718586  0  0  -0.085054  0  3.957471  0  0  -0.091223  0  3.977917  0  0  -0.013465  -0.08104  0  3.943705  0
C  C79  1  0.75509328  0.75425279  0.84877594  1  0  -0.099517  0  3.718786  0  0  -0.085044  0  3.957596  0  0  -0.091216  0  3.97804  0  0  -0.013478  -0.081026  0  3.943831  0
C  C80  1  0.06613621  0.65941932  0.37406641  1  0  -0.115748  0  3.742614  0  0  -0.135518  0  3.990261  0  0  -0.137685  0  4.009931  0  0  -0.095683  -0.133968  0  3.976998  0
C  C81  1  0.93386856  0.15941777  0.12593350  1  0  -0.115651  0  3.742623  0  0  -0.135406  0  3.99024  0  0  -0.137569  0  4.009913  0  0  -0.095635  -0.133857  0  3.976968  0
C  C82  1  0.93386139  0.34058317  0.62593403  1  0  -0.115625  0  3.742784  0  0  -0.135375  0  3.990427  0  0  -0.137542  0  4.010099  0  0  -0.0956  -0.133855  0  3.977158  0
C  C83  1  0.06613451  0.84058383  0.87406585  1  0  -0.115615  0  3.742681  0  0  -0.135381  0  3.990318  0  0  -0.137546  0  4.009993  0  0  -0.095599  -0.133841  0  3.977054  0
C  C84  1  0.58533141  0.68780730  0.23580865  1  0  -0.077884  0  3.762013  0  0  -0.102814  0  4.019378  0  0  -0.103429  0  4.039198  0  0  -0.087776  -0.102282  0  4.005878  0
C  C85  1  0.41466504  0.18781104  0.26419059  1  0  -0.077884  0  3.76197  0  0  -0.102823  0  4.019381  0  0  -0.103438  0  4.039201  0  0  -0.087796  -0.102288  0  4.005891  0
C  C86  1  0.41466342  0.31218811  0.76419064  1  0  -0.077896  0  3.761968  0  0  -0.102845  0  4.019384  0  0  -0.103461  0  4.039204  0  0  -0.087818  -0.102311  0  4.005863  0
C  C87  1  0.58533529  0.81218879  0.73580930  1  0  -0.077875  0  3.76198  0  0  -0.102826  0  4.019379  0  0  -0.103441  0  4.0392  0  0  -0.087779  -0.102297  0  4.005875  0
C  C88  1  0.04313923  0.53527774  0.23741859  1  0  -0.116186  0  3.722886  0  0  -0.138052  0  3.976378  0  0  -0.140577  0  3.996386  0  0  -0.093609  -0.136323  0  3.962904  0
C  C89  1  0.95686036  0.03527828  0.26258205  1  0  -0.116239  0  3.722907  0  0  -0.138118  0  3.976375  0  0  -0.140645  0  3.996385  0  0  -0.093665  -0.136389  0  3.962918  0
C  C90  1  0.95685975  0.46472121  0.76258242  1  0  -0.116253  0  3.723035  0  0  -0.138143  0  3.976516  0  0  -0.140673  0  3.996528  0  0  -0.093665  -0.136393  0  3.96302  0
C  C91  1  0.04313857  0.96472243  0.73741614  1  0  -0.116176  0  3.722892  0  0  -0.138052  0  3.976365  0  0  -0.140579  0  3.996374  0  0  -0.09367  -0.136306  0  3.962877  0
C  C92  1  0.26009402  0.70840482  0.04980718  1  0  0.734805  0  3.882398  0  0  0.660496  0  4.188871  0  0  0.695479  0  4.183878  0  0  0.335125  0.636796  0  4.191626  0
C  C93  1  0.73990376  0.20840483  0.45019260  1  0  0.734838  0  3.882404  0  0  0.660541  0  4.188837  0  0  0.695526  0  4.18384  0  0  0.335125  0.636839  0  4.191593  0
C  C94  1  0.73990492  0.29159590  0.95019158  1  0  0.734738  0  3.882512  0  0  0.660489  0  4.188882  0  0  0.695472  0  4.183887  0  0  0.335113  0.636787  0  4.191628  0
C  C95  1  0.26009521  0.79159412  0.54980785  1  0  0.734961  0  3.882282  0  0  0.660574  0  4.188843  0  0  0.695558  0  4.183846  0  0  0.335128  0.636862  0  4.191584  0
C  C96  1  0.20727086  0.58628908  0.35294830  1  0  -0.080792  0  3.818705  0  0  -0.09527  0  4.072117  0  0  -0.097101  0  4.093542  0  0  -0.0986  -0.093909  0  4.057397  0
C  C97  1  0.79273271  0.08628760  0.14705172  1  0  -0.080851  0  3.818804  0  0  -0.095321  0  4.072203  0  0  -0.097149  0  4.093623  0  0  -0.098598  -0.093952  0  4.057461  0
C  C98  1  0.79272674  0.41371341  0.64705270  1  0  -0.080805  0  3.818817  0  0  -0.095265  0  4.072216  0  0  -0.097091  0  4.093633  0  0  -0.098599  -0.093905  0  4.05753  0
C  C99  1  0.20727034  0.91371489  0.85294706  1  0  -0.080755  0  3.818744  0  0  -0.095225  0  4.072162  0  0  -0.097054  0  4.093582  0  0  -0.098594  -0.093862  0  4.057453  0
C  C100  1  0.19531752  0.52332968  0.28434240  1  0  -0.068792  0  3.789573  0  0  -0.082342  0  4.042781  0  0  -0.084316  0  4.0647  0  0  -0.095011  -0.080911  0  4.027812  0
C  C101  1  0.80468623  0.02333056  0.21565941  1  0  -0.068787  0  3.789629  0  0  -0.082335  0  4.042831  0  0  -0.084304  0  4.064745  0  0  -0.095024  -0.080911  0  4.027875  0
C  C102  1  0.80468149  0.47666839  0.71566086  1  0  -0.068779  0  3.789676  0  0  -0.082333  0  4.042878  0  0  -0.084299  0  4.06479  0  0  -0.094981  -0.080907  0  4.027923  0
C  C103  1  0.19531408  0.97667016  0.78433935  1  0  -0.068863  0  3.78965  0  0  -0.082426  0  4.042868  0  0  -0.084391  0  4.064779  0  0  -0.095034  -0.081  0  4.027906  0
C  C104  1  0.18494827  0.86912892  0.12458016  1  0  0.049664  0  3.602113  0  0  -0.006159  0  3.862268  0  0  -0.002177  0  3.874123  0  0  -0.049808  -0.008745  0  3.854122  0
C  C105  1  0.81505186  0.36912916  0.37541995  1  0  0.049655  0  3.602153  0  0  -0.00622  0  3.862341  0  0  -0.002239  0  3.874199  0  0  -0.049825  -0.008805  0  3.854186  0
C  C106  1  0.81505068  0.13087003  0.87541916  1  0  0.049729  0  3.602144  0  0  -0.006173  0  3.862367  0  0  -0.002196  0  3.874231  0  0  -0.049816  -0.008767  0  3.854229  0
C  C107  1  0.18494986  0.63086979  0.62458108  1  0  0.049699  0  3.602182  0  0  -0.006186  0  3.862403  0  0  -0.002201  0  3.874257  0  0  -0.049827  -0.008773  0  3.854256  0
C  C108  1  0.36703058  0.89545391  0.08346649  1  0  0.052728  0  3.616249  0  0  -0.005135  0  3.882034  0  0  -0.00087  0  3.892973  0  0  -0.047867  -0.007848  0  3.874419  0
C  C109  1  0.63296949  0.39545417  0.41653413  1  0  0.052814  0  3.61621  0  0  -0.005055  0  3.882004  0  0  -0.000789  0  3.892945  0  0  -0.047827  -0.007766  0  3.874391  0
C  C110  1  0.63296838  0.10454592  0.91653395  1  0  0.052794  0  3.616249  0  0  -0.005073  0  3.882053  0  0  -0.000806  0  3.892993  0  0  -0.047849  -0.007794  0  3.87444  0
C  C111  1  0.36703085  0.60454478  0.58346633  1  0  0.05272  0  3.616281  0  0  -0.005128  0  3.882087  0  0  -0.000864  0  3.893025  0  0  -0.04786  -0.007852  0  3.874477  0
N  N112  1  0.39831516  0.78674548  0.04175814  1  0  -0.497247  0  3.243464  0  0  -0.435999  0  3.496196  0  0  -0.456741  0  3.500506  0  0  -0.437307  -0.421835  0  3.492895  0
N  N113  1  0.60168517  0.28674472  0.45824153  1  0  -0.497276  0  3.243484  0  0  -0.436047  0  3.496216  0  0  -0.456787  0  3.500523  0  0  -0.437337  -0.421888  0  3.492927  0
N  N114  1  0.60168515  0.21325612  0.95824006  1  0  -0.497281  0  3.243562  0  0  -0.435999  0  3.49629  0  0  -0.456741  0  3.500602  0  0  -0.437337  -0.421814  0  3.492965  0
N  N115  1  0.39831380  0.71325423  0.54175948  1  0  -0.497359  0  3.243498  0  0  -0.436065  0  3.496238  0  0  -0.456806  0  3.500544  0  0  -0.437333  -0.421875  0  3.492917  0
N  N116  1  0.13169308  0.75401397  0.09458244  1  0  -0.487466  0  3.236475  0  0  -0.426673  0  3.487592  0  0  -0.447236  0  3.491357  0  0  -0.434617  -0.412716  0  3.484798  0
N  N117  1  0.86830458  0.25401227  0.40541670  1  0  -0.487598  0  3.23654  0  0  -0.426755  0  3.487619  0  0  -0.447324  0  3.491389  0  0  -0.434621  -0.412795  0  3.484821  0
N  N118  1  0.86830587  0.24598586  0.90541688  1  0  -0.487536  0  3.236536  0  0  -0.426706  0  3.48761  0  0  -0.447268  0  3.491379  0  0  -0.434611  -0.412753  0  3.484818  0
N  N119  1  0.13169577  0.74598579  0.59458432  1  0  -0.487567  0  3.236494  0  0  -0.426707  0  3.48763  0  0  -0.447275  0  3.491399  0  0  -0.434585  -0.412752  0  3.484832  0
O  O120  1  0.86442789  0.58832836  0.09162120  1  0  -0.655661  0  2.128549  0  0  -0.587667  0  2.384971  0  0  -0.614883  0  2.371033  0  0  -0.304123  -0.568587  0  2.39364  0
O  O121  1  0.13557433  0.08833357  0.40838050  1  0  -0.655646  0  2.128441  0  0  -0.587684  0  2.384913  0  0  -0.614885  0  2.370958  0  0  -0.304173  -0.568608  0  2.393591  0
O  O122  1  0.13557796  0.41166528  0.90838098  1  0  -0.655712  0  2.128416  0  0  -0.587741  0  2.384921  0  0  -0.614944  0  2.370966  0  0  -0.30418  -0.568675  0  2.393601  0
O  O123  1  0.86442461  0.91166361  0.59161826  1  0  -0.655662  0  2.128459  0  0  -0.587722  0  2.384972  0  0  -0.614921  0  2.371016  0  0  -0.304136  -0.568656  0  2.393643  0
O  O124  1  0.56982115  0.53257605  0.10932229  1  0  -0.62971  0  2.060384  0  0  -0.567078  0  2.325603  0  0  -0.596126  0  2.31316  0  0  -0.310387  -0.546771  0  2.333372  0
O  O125  1  0.43018392  0.03257839  0.39067726  1  0  -0.629929  0  2.060341  0  0  -0.567179  0  2.325472  0  0  -0.596239  0  2.313052  0  0  -0.310439  -0.546871  0  2.333247  0
O  O126  1  0.43018466  0.46741936  0.89067707  1  0  -0.630029  0  2.060187  0  0  -0.567278  0  2.325351  0  0  -0.596343  0  2.312935  0  0  -0.310506  -0.546979  0  2.333129  0
O  O127  1  0.56981777  0.96741879  0.60932152  1  0  -0.629986  0  2.060177  0  0  -0.567251  0  2.325325  0  0  -0.596314  0  2.312908  0  0  -0.31051  -0.546955  0  2.3331  0
O  O128  1  0.62744145  0.84182729  0.45493585  1  0  -0.657831  0  2.106589  0  0  -0.593559  0  2.363843  0  0  -0.620394  0  2.350057  0  0  -0.308542  -0.574908  0  2.372781  0
O  O129  1  0.37256012  0.34182929  0.04506431  1  0  -0.657884  0  2.106501  0  0  -0.593561  0  2.363873  0  0  -0.620393  0  2.350089  0  0  -0.308559  -0.574906  0  2.372805  0
O  O130  1  0.37255064  0.15817254  0.54506342  1  0  -0.657922  0  2.10657  0  0  -0.593597  0  2.36398  0  0  -0.620431  0  2.350196  0  0  -0.308528  -0.574953  0  2.372926  0
O  O131  1  0.62744295  0.65817143  0.95493560  1  0  -0.65787  0  2.106508  0  0  -0.593574  0  2.363898  0  0  -0.620413  0  2.35011  0  0  -0.308533  -0.574917  0  2.372833  0
O  O132  1  0.25225473  0.60657177  0.01886250  1  0  -0.677247  0  2.098027  0  0  -0.604026  0  2.38211  0  0  -0.630417  0  2.363226  0  0  -0.30474  -0.585742  0  2.394728  0
O  O133  1  0.74774468  0.10657166  0.48113746  1  0  -0.677222  0  2.097974  0  0  -0.604011  0  2.382067  0  0  -0.630404  0  2.363182  0  0  -0.304726  -0.585714  0  2.394676  0
O  O134  1  0.74774695  0.39342806  0.98113571  1  0  -0.677168  0  2.09799  0  0  -0.603979  0  2.382054  0  0  -0.630369  0  2.363168  0  0  -0.304742  -0.585716  0  2.394685  0
O  O135  1  0.25225428  0.89342729  0.51886243  1  0  -0.677283  0  2.097891  0  0  -0.604036  0  2.382021  0  0  -0.63043  0  2.363138  0  0  -0.304739  -0.585745  0  2.39463  0
O  O136  1  0.91938282  0.88344491  0.42210863  1  0  -0.631864  0  2.126705  0  0  -0.560865  0  2.393974  0  0  -0.590055  0  2.38064  0  0  -0.303311  -0.540464  0  2.402331  0
O  O137  1  0.08061998  0.38344353  0.07788921  1  0  -0.63188  0  2.126603  0  0  -0.560818  0  2.393966  0  0  -0.590008  0  2.380639  0  0  -0.303295  -0.540415  0  2.402304  0
O  O138  1  0.08061750  0.11655669  0.57789070  1  0  -0.631991  0  2.126714  0  0  -0.560908  0  2.394069  0  0  -0.590093  0  2.380732  0  0  -0.303329  -0.540518  0  2.402451  0
O  O139  1  0.91937896  0.61656073  0.92211011  1  0  -0.631923  0  2.126542  0  0  -0.560846  0  2.39386  0  0  -0.590027  0  2.380514  0  0  -0.303344  -0.540461  0  2.402252  0
