# generated using pymatgen
data_Ag2H20C23S3N4(OF)6
_symmetry_space_group_name_H-M   'P 1'
_cell_length_a   14.83066015
_cell_length_b   14.83066294
_cell_length_c   18.21793920
_cell_angle_alpha   77.10493906
_cell_angle_beta   77.10493271
_cell_angle_gamma   64.32525396
_symmetry_Int_Tables_number   1
_chemical_formula_structural   Ag2H20C23S3N4(OF)6
_chemical_formula_sum   'Ag8 H80 C92 S12 N16 O24 F24'
_cell_volume   3483.64072994
_cell_formula_units_Z   4
loop_
 _symmetry_equiv_pos_site_id
 _symmetry_equiv_pos_as_xyz
  1  'x, y, z'
loop_
 _atom_site_type_symbol
 _atom_site_label
 _atom_site_symmetry_multiplicity
 _atom_site_fract_x
 _atom_site_fract_y
 _atom_site_fract_z
 _atom_site_occupancy
 _atom_site_pbe_bader_charge
 _atom_site_pbe_bader_spin_density
 _atom_site_pbe_cm5_charge
 _atom_site_pbe_ddec_charge
 _atom_site_pbe_ddec_spin_density
 _atom_site_pbe_ddec_sum_bond_order
 _atom_site_pbe_magmom
Ag  Ag0  1  0.93706898  0.66849084  0.25326216  1  0.516084  0  0.451878  0.285525  0  2.126852  0
Ag  Ag1  1  0.33151835  0.06292948  0.24674089  1  0.516189  0  0.451857  0.285432  0  2.126898  0
Ag  Ag2  1  0.06293343  0.33152367  0.74673238  1  0.516201  0  0.451859  0.285482  0  2.127016  0
Ag  Ag3  1  0.66848782  0.93706552  0.75325670  1  0.516006  0  0.451871  0.285477  0  2.126917  0
Ag  Ag4  1  0.97377835  0.47329679  0.36627171  1  0.699469  0  0.491835  0.573499  0  1.727648  0
Ag  Ag5  1  0.52671682  0.02621359  0.13372846  1  0.699459  0  0.49186  0.57357  0  1.727567  0
Ag  Ag6  1  0.02621810  0.52671264  0.63373102  1  0.699294  0  0.491829  0.573495  0  1.727599  0
Ag  Ag7  1  0.47329085  0.97377526  0.86626895  1  0.699449  0  0.491846  0.573516  0  1.727617  0
H  H8  1  0.82641635  0.50905645  0.24796640  1  0.190288  0  0.124875  0.133469  0  1.017497  0
H  H9  1  0.49095462  0.17358293  0.25202845  1  0.190246  0  0.124868  0.133406  0  1.017523  0
H  H10  1  0.17358541  0.49094534  0.75203897  1  0.190291  0  0.124839  0.133482  0  1.017441  0
H  H11  1  0.50905227  0.82641380  0.74796538  1  0.190253  0  0.124875  0.133434  0  1.017595  0
H  H12  1  0.88598129  0.45430812  0.10372230  1  0.098652  0  0.117634  0.151101  0  0.985159  0
H  H13  1  0.54569165  0.11401982  0.39627658  1  0.098605  0  0.117643  0.151069  0  0.985171  0
H  H14  1  0.11401816  0.54568695  0.89628263  1  0.098628  0  0.117664  0.151176  0  0.985077  0
H  H15  1  0.45431075  0.88597465  0.60372240  1  0.098577  0  0.117677  0.15114  0  0.985047  0
H  H16  1  0.08974843  0.19471458  0.14957419  1  0.124928  0  0.10066  0.123043  0  1.031061  0
H  H17  1  0.80528534  0.91025358  0.35043273  1  0.124764  0  0.100633  0.123047  0  1.031024  0
H  H18  1  0.91025115  0.80527993  0.85043960  1  0.124598  0  0.100605  0.122985  0  1.031192  0
H  H19  1  0.19472383  0.08974155  0.64956206  1  0.124619  0  0.100685  0.123091  0  1.031119  0
H  H20  1  0.30421586  0.51295033  0.09625684  1  0.181505  0  0.122852  0.126994  0  1.036055  0
H  H21  1  0.48705470  0.69576908  0.40373209  1  0.181407  0  0.122808  0.126903  0  1.035996  0
H  H22  1  0.69577733  0.48704766  0.90373281  1  0.181528  0  0.122784  0.12691  0  1.036023  0
H  H23  1  0.51294606  0.30421759  0.59626048  1  0.181445  0  0.122875  0.127021  0  1.035988  0
H  H24  1  0.90757767  0.25548608  0.41046939  1  0.099344  0  0.094359  0.098736  0  1.025335  0
H  H25  1  0.74451607  0.09242340  0.08954055  1  0.099559  0  0.094403  0.098818  0  1.025372  0
H  H26  1  0.09242730  0.74452573  0.58954659  1  0.099623  0  0.094455  0.098879  0  1.025459  0
H  H27  1  0.25545771  0.90759453  0.91046657  1  0.09941  0  0.094389  0.098839  0  1.025224  0
H  H28  1  0.23683429  0.46283779  0.42382805  1  0.138195  0  0.102932  0.113887  0  1.019045  0
H  H29  1  0.53717159  0.76315807  0.07617068  1  0.136579  0  0.102897  0.113827  0  1.018983  0
H  H30  1  0.76315532  0.53716677  0.57617530  1  0.13695  0  0.102939  0.113935  0  1.018989  0
H  H31  1  0.46282928  0.23683354  0.92382806  1  0.138565  0  0.102926  0.113913  0  1.018964  0
H  H32  1  0.21129471  0.41158360  0.14778077  1  0.178909  0  0.140907  0.096689  0  1.014627  0
H  H33  1  0.58841092  0.78870886  0.35222196  1  0.179033  0  0.140882  0.096613  0  1.01472  0
H  H34  1  0.78870698  0.58841052  0.85222171  1  0.178997  0  0.140919  0.096753  0  1.014732  0
H  H35  1  0.41158543  0.21128943  0.64777690  1  0.178998  0  0.140888  0.096674  0  1.014726  0
H  H36  1  0.17088580  0.54779433  0.30182521  1  0.098565  0  0.104987  0.110775  0  1.02323  0
H  H37  1  0.45221438  0.82911204  0.19816600  1  0.098729  0  0.10493  0.110685  0  1.023346  0
H  H38  1  0.82911054  0.45220878  0.69817162  1  0.098599  0  0.10498  0.110739  0  1.023286  0
H  H39  1  0.54778872  0.17088413  0.80182812  1  0.098661  0  0.104961  0.11073  0  1.023296  0
H  H40  1  0.07699356  0.25792713  0.37312023  1  0.122417  0  0.095622  0.104593  0  1.069707  0
H  H41  1  0.74207743  0.92300904  0.12688678  1  0.122544  0  0.095602  0.104521  0  1.069738  0
H  H42  1  0.92301435  0.74208268  0.62688953  1  0.122496  0  0.095662  0.104618  0  1.069659  0
H  H43  1  0.25791363  0.07700451  0.87310906  1  0.122124  0  0.095618  0.104606  0  1.069706  0
H  H44  1  0.26256126  0.71614400  0.08106866  1  0.137129  0  0.10146  0.139379  0  1.040087  0
H  H45  1  0.28385903  0.73742567  0.41892193  1  0.137346  0  0.101431  0.139285  0  1.040191  0
H  H46  1  0.73743877  0.28385404  0.91892240  1  0.13735  0  0.101462  0.139359  0  1.040153  0
H  H47  1  0.71614098  0.26256267  0.58106992  1  0.137197  0  0.101468  0.139393  0  1.040133  0
H  H48  1  0.14724299  0.46144032  0.02929563  1  0.072269  0  0.102083  0.151247  0  0.986727  0
H  H49  1  0.53854669  0.85276736  0.47070121  1  0.072099  0  0.102068  0.151194  0  0.986787  0
H  H50  1  0.85275636  0.53855120  0.97070287  1  0.072338  0  0.102076  0.151262  0  0.986731  0
H  H51  1  0.46145193  0.14723554  0.52929632  1  0.071879  0  0.102084  0.15123  0  0.986823  0
H  H52  1  0.06922013  0.40882935  0.00922314  1  0.059925  0  0.102099  0.154004  0  0.984932  0
H  H53  1  0.59116152  0.93078470  0.49077731  1  0.059837  0  0.102146  0.154048  0  0.984857  0
H  H54  1  0.93077326  0.59116678  0.99078221  1  0.059941  0  0.102129  0.154  0  0.984886  0
H  H55  1  0.40883787  0.06921652  0.50922149  1  0.059867  0  0.10213  0.154037  0  0.984876  0
H  H56  1  0.16538755  0.33532494  0.06729043  1  0.109539  0  0.101106  0.154348  0  1.0243  0
H  H57  1  0.66466658  0.83461692  0.43270887  1  0.109717  0  0.101035  0.154234  0  1.024278  0
H  H58  1  0.83460955  0.66466959  0.93270902  1  0.10959  0  0.101091  0.154322  0  1.024215  0
H  H59  1  0.33533582  0.16538583  0.56728796  1  0.109719  0  0.101055  0.15423  0  1.024333  0
H  H60  1  0.82732416  0.22243192  0.31904182  1  0.046892  0  0.100448  0.09781  0  1.005316  0
H  H61  1  0.77756946  0.17268062  0.18096756  1  0.046839  0  0.10043  0.097848  0  1.005261  0
H  H62  1  0.17267633  0.77758038  0.68097823  1  0.046645  0  0.100421  0.097756  0  1.00537  0
H  H63  1  0.22240209  0.82733688  0.81904228  1  0.04704  0  0.100413  0.097805  0  1.00535  0
H  H64  1  0.92150354  0.18713817  0.18911351  1  0.046468  0  0.099961  0.093426  0  1.015484  0
H  H65  1  0.81285874  0.07849966  0.31089648  1  0.046352  0  0.099976  0.093452  0  1.015333  0
H  H66  1  0.07849689  0.81285405  0.81090825  1  0.046019  0  0.099987  0.09352  0  1.015534  0
H  H67  1  0.18713389  0.92149952  0.68910732  1  0.046668  0  0.100017  0.093531  0  1.01525  0
H  H68  1  0.29638131  0.27759678  0.45780053  1  0.127022  0  0.105356  0.113875  0  1.01713  0
H  H69  1  0.72241667  0.70361384  0.04219521  1  0.127617  0  0.105375  0.113931  0  1.017181  0
H  H70  1  0.70361881  0.72240757  0.54219533  1  0.127442  0  0.105372  0.113876  0  1.017207  0
H  H71  1  0.27758643  0.29637681  0.95779999  1  0.127486  0  0.105325  0.113852  0  1.017118  0
H  H72  1  0.28515056  0.17526078  0.37061868  1  0.077438  0  0.096427  0.092872  0  1.023523  0
H  H73  1  0.82474676  0.71485162  0.12938014  1  0.077283  0  0.096438  0.092947  0  1.023475  0
H  H74  1  0.71485938  0.82474373  0.62937470  1  0.07732  0  0.096458  0.092922  0  1.023515  0
H  H75  1  0.17525633  0.28514317  0.87061426  1  0.077135  0  0.096429  0.092972  0  1.023484  0
H  H76  1  0.98176863  0.83524510  0.19916966  1  0.065842  0  0.083597  0.12302  0  1.058153  0
H  H77  1  0.16475743  0.01823470  0.30083924  1  0.065674  0  0.083588  0.122979  0  1.058164  0
H  H78  1  0.01823917  0.16475839  0.80083366  1  0.065733  0  0.083588  0.122964  0  1.058209  0
H  H79  1  0.83524054  0.98176514  0.69916615  1  0.065781  0  0.083607  0.123005  0  1.058183  0
H  H80  1  0.04268143  0.87478638  0.11021310  1  0.061795  0  0.097577  0.148269  0  0.976275  0
H  H81  1  0.12521714  0.95732218  0.38979559  1  0.061906  0  0.097607  0.148324  0  0.976361  0
H  H82  1  0.95732714  0.12521680  0.88979068  1  0.061994  0  0.097573  0.148313  0  0.976204  0
H  H83  1  0.87478232  0.04267843  0.61020826  1  0.061993  0  0.097594  0.148296  0  0.976189  0
H  H84  1  0.09272483  0.85520878  0.19468840  1  0.058802  0  0.091211  0.141819  0  1.005092  0
H  H85  1  0.14478317  0.90728576  0.30531898  1  0.059147  0  0.091244  0.1419  0  1.005072  0
H  H86  1  0.90729053  0.14478335  0.80531621  1  0.059422  0  0.091241  0.141875  0  1.005045  0
H  H87  1  0.85521024  0.09271660  0.69468570  1  0.059202  0  0.091253  0.141889  0  1.005077  0
C  C88  1  0.18827361  0.41038418  0.26743729  1  -0.016108  0  -0.015217  -0.013989  0  3.971588  0
C  C89  1  0.58962102  0.81172089  0.23256074  1  -0.015957  0  -0.015149  -0.013865  0  3.971233  0
C  C90  1  0.81172351  0.58961727  0.73256191  1  -0.015972  0  -0.0152  -0.013865  0  3.971367  0
C  C91  1  0.41038060  0.18827800  0.76743534  1  -0.016365  0  -0.015219  -0.013964  0  3.97129  0
C  C92  1  0.89984330  0.48891215  0.21254077  1  0.425934  0  0.023841  0.032867  0  3.976507  0
C  C93  1  0.51109533  0.10015591  0.28745588  1  0.42598  0  0.02381  0.032823  0  3.976569  0
C  C94  1  0.10015844  0.51108686  0.78746405  1  0.426077  0  0.023869  0.032854  0  3.976515  0
C  C95  1  0.48891388  0.89983926  0.71254165  1  0.425896  0  0.023815  0.03281  0  3.97664  0
C  C96  1  0.93113194  0.46226673  0.13911651  1  -0.000821  0  -0.109594  -0.266959  0  3.980357  0
C  C97  1  0.53773550  0.06886893  0.36088083  1  -0.000547  0  -0.109536  -0.266766  0  3.980305  0
C  C98  1  0.06886903  0.53772911  0.86088797  1  -0.000779  0  -0.109639  -0.267037  0  3.980432  0
C  C99  1  0.46226992  0.93112914  0.63911632  1  -0.000839  0  -0.109637  -0.266962  0  3.980229  0
C  C100  1  0.04929948  0.20786240  0.20664615  1  -0.018331  0  -0.098821  -0.136036  0  3.975872  0
C  C101  1  0.79213702  0.95070271  0.29336194  1  -0.01848  0  -0.098925  -0.13625  0  3.976101  0
C  C102  1  0.95070392  0.79213131  0.79336981  1  -0.018716  0  -0.098869  -0.136128  0  3.976004  0
C  C103  1  0.20786160  0.04929810  0.70663545  1  -0.018047  0  -0.098881  -0.13624  0  3.976056  0
C  C104  1  0.23918890  0.57478496  0.11956236  1  0.29116  0  0.02715  -0.018545  0  3.907445  0
C  C105  1  0.42521663  0.76080049  0.38043022  1  0.290904  0  0.027192  -0.018336  0  3.907102  0
C  C106  1  0.76080966  0.42521304  0.88043229  1  0.290932  0  0.027198  -0.018414  0  3.907255  0
C  C107  1  0.57478415  0.23918964  0.61956277  1  0.291174  0  0.027096  -0.018581  0  3.90742  0
C  C108  1  0.94710196  0.24175403  0.35342323  1  0.011684  0  -0.092988  -0.066394  0  4.008249  0
C  C109  1  0.75824603  0.05290128  0.14658450  1  0.011822  0  -0.092903  -0.066288  0  4.00828  0
C  C110  1  0.05290528  0.75824857  0.64659464  1  0.011774  0  -0.092911  -0.066396  0  4.008297  0
C  C111  1  0.24172998  0.94711431  0.85341935  1  0.011449  0  -0.092891  -0.066281  0  4.008039  0
C  C112  1  0.23386217  0.41836464  0.38505653  1  0.037307  0  -0.075909  -0.037488  0  3.925099  0
C  C113  1  0.58164483  0.76612676  0.11494505  1  0.038582  0  -0.075769  -0.037157  0  3.924987  0
C  C114  1  0.76612818  0.58163891  0.61494578  1  0.039048  0  -0.075952  -0.037646  0  3.925064  0
C  C115  1  0.41835681  0.23386387  0.88505483  1  0.037478  0  -0.075842  -0.03746  0  3.925066  0
C  C116  1  0.15565569  0.45898701  0.18970597  1  0.632618  0  0.135996  0.08701  0  3.87364  0
C  C117  1  0.54101307  0.84434272  0.31029450  1  0.632312  0  0.135997  0.087074  0  3.873575  0
C  C118  1  0.84434068  0.54101407  0.81029400  1  0.632267  0  0.135959  0.086718  0  3.873933  0
C  C119  1  0.45898703  0.15565401  0.68970230  1  0.632803  0  0.136042  0.08699  0  3.873731  0
C  C120  1  0.19522644  0.46623915  0.31681798  1  -0.082516  0  -0.090669  -0.125146  0  3.984783  0
C  C121  1  0.53376959  0.80476650  0.18317801  1  -0.083145  0  -0.090714  -0.125282  0  3.985048  0
C  C122  1  0.80476540  0.53376445  0.68318237  1  -0.083189  0  -0.090667  -0.125086  0  3.984771  0
C  C123  1  0.46623277  0.19523000  0.81681729  1  -0.083124  0  -0.09069  -0.125151  0  3.984831  0
C  C124  1  0.09238129  0.22868122  0.25834417  1  -0.270072  0  -0.017377  0.050757  0  4.006024  0
C  C125  1  0.77132021  0.90761778  0.24166303  1  -0.270036  0  -0.017242  0.050885  0  4.005879  0
C  C126  1  0.90762354  0.77131525  0.74166548  1  -0.270009  0  -0.017257  0.050885  0  4.005927  0
C  C127  1  0.22867616  0.09238398  0.75833625  1  -0.270077  0  -0.017259  0.05099  0  4.005753  0
C  C128  1  0.04262697  0.24411202  0.33217693  1  -0.014266  0  -0.104316  -0.15742  0  4.021805  0
C  C129  1  0.75589026  0.95737778  0.16782737  1  -0.014296  0  -0.10438  -0.157381  0  4.021813  0
C  C130  1  0.95737793  0.75588935  0.66783615  1  -0.01411  0  -0.104454  -0.157484  0  4.021903  0
C  C131  1  0.24409780  0.04263564  0.83217127  1  -0.013967  0  -0.104437  -0.157658  0  4.021954  0
C  C132  1  0.11892378  0.71900242  0.15508352  1  0.485633  0  0.100955  0.269526  0  3.995718  0
C  C133  1  0.28099816  0.88107053  0.34492040  1  0.485276  0  0.100936  0.269424  0  3.995891  0
C  C134  1  0.88108166  0.28099567  0.84491472  1  0.48539  0  0.100925  0.269499  0  3.995626  0
C  C135  1  0.71900126  0.11892243  0.65508275  1  0.485981  0  0.100962  0.269567  0  3.995653  0
C  C136  1  0.65968270  0.47368354  0.44652579  1  1.640771  0  0.284707  0.508201  0  4.069316  0
C  C137  1  0.52631413  0.34032389  0.05347134  1  1.640646  0  0.284602  0.508083  0  4.069503  0
C  C138  1  0.34031291  0.52632129  0.55347305  1  1.640651  0  0.284834  0.5082  0  4.069332  0
C  C139  1  0.47368505  0.65968127  0.94651137  1  1.64052  0  0.284622  0.508313  0  4.069153  0
C  C140  1  0.03283183  0.44541759  0.12125505  1  0.332552  0  0.107074  0.215592  0  3.96606  0
C  C141  1  0.55457819  0.96717071  0.37874326  1  0.332385  0  0.107035  0.215402  0  3.966182  0
C  C142  1  0.96716911  0.55457823  0.87874725  1  0.33251  0  0.107051  0.215441  0  3.96629  0
C  C143  1  0.44542117  0.03282910  0.62125363  1  0.332578  0  0.10707  0.215492  0  3.966238  0
C  C144  1  0.21587168  0.67693392  0.11280577  1  0.012001  0  -0.119171  -0.275068  0  3.982385  0
C  C145  1  0.32306656  0.78411804  0.38718972  1  0.011841  0  -0.119149  -0.275023  0  3.982382  0
C  C146  1  0.78412841  0.32306418  0.88718966  1  0.012096  0  -0.119144  -0.275048  0  3.982241  0
C  C147  1  0.67693198  0.21587305  0.61280573  1  0.011889  0  -0.11917  -0.275068  0  3.982296  0
C  C148  1  0.10739652  0.41151232  0.05311377  1  -0.067286  0  -0.234265  -0.451497  0  3.954565  0
C  C149  1  0.58847739  0.89260853  0.44688577  1  -0.067135  0  -0.234226  -0.451333  0  3.954641  0
C  C150  1  0.89260133  0.58847913  0.94688613  1  -0.067459  0  -0.234251  -0.451432  0  3.954581  0
C  C151  1  0.41152275  0.10739307  0.55311227  1  -0.066926  0  -0.234212  -0.451329  0  3.954713  0
C  C152  1  0.90265640  0.22236951  0.30214360  1  -0.00097  0  -0.095324  -0.093074  0  4.011976  0
C  C153  1  0.77762806  0.09734529  0.19786656  1  -0.001245  0  -0.095406  -0.093368  0  4.011935  0
C  C154  1  0.09735085  0.77762895  0.69787563  1  -0.000711  0  -0.095432  -0.093166  0  4.011894  0
C  C155  1  0.22234876  0.90266660  0.80214224  1  -0.000757  0  -0.09541  -0.093285  0  4.011901  0
C  C156  1  0.04627622  0.75348142  0.41605660  1  1.641517  0  0.28839  0.50073  0  4.060365  0
C  C157  1  0.24653587  0.95372221  0.08394987  1  1.641137  0  0.288431  0.500934  0  4.060458  0
C  C158  1  0.95372247  0.24652846  0.58394450  1  1.641298  0  0.288514  0.501208  0  4.060261  0
C  C159  1  0.75348167  0.04626270  0.91604968  1  1.638292  0  0.288217  0.500647  0  4.061051  0
C  C160  1  0.95467270  0.20387783  0.22933374  1  -0.100665  0  -0.090459  -0.06667  0  4.00956  0
C  C161  1  0.79611880  0.04533080  0.27067625  1  -0.100249  0  -0.090387  -0.066477  0  4.009346  0
C  C162  1  0.04533077  0.79611527  0.77068836  1  -0.100102  0  -0.090391  -0.06664  0  4.009373  0
C  C163  1  0.20386855  0.95467745  0.72932737  1  -0.100985  0  -0.090425  -0.066567  0  4.009238  0
C  C164  1  0.22078020  0.30474203  0.28790518  1  -0.158412  0  -0.010857  0.018825  0  3.967706  0
C  C165  1  0.69526128  0.77921824  0.21209464  1  -0.159069  0  -0.01085  0.018902  0  3.967509  0
C  C166  1  0.77922147  0.69525897  0.71209377  1  -0.158309  0  -0.010881  0.018813  0  3.967648  0
C  C167  1  0.30473882  0.22078056  0.78790120  1  -0.158331  0  -0.010843  0.01892  0  3.967547  0
C  C168  1  0.26693898  0.31393047  0.40432862  1  -0.064421  0  -0.078892  -0.048377  0  3.936699  0
C  C169  1  0.68608243  0.73305022  0.09567113  1  -0.063996  0  -0.07895  -0.048543  0  3.936673  0
C  C170  1  0.73305586  0.68607465  0.59566921  1  -0.06475  0  -0.078861  -0.048249  0  3.936479  0
C  C171  1  0.31392146  0.26693808  0.90432711  1  -0.064569  0  -0.078823  -0.048252  0  3.936302  0
C  C172  1  0.26026933  0.25708401  0.35583468  1  -0.013018  0  -0.084127  -0.103095  0  3.979912  0
C  C173  1  0.74292601  0.73972352  0.14416492  1  -0.012552  0  -0.084137  -0.103252  0  3.979785  0
C  C174  1  0.73973233  0.74292113  0.64416238  1  -0.013066  0  -0.084113  -0.103187  0  3.979861  0
C  C175  1  0.25707559  0.26026845  0.85583195  1  -0.013275  0  -0.08422  -0.103411  0  3.97987  0
C  C176  1  0.05552838  0.82653440  0.16544785  1  -0.056636  0  -0.238567  -0.42934  0  3.945014  0
C  C177  1  0.17346321  0.94447569  0.33456299  1  -0.056644  0  -0.238625  -0.429412  0  3.945052  0
C  C178  1  0.94448243  0.17346301  0.83455497  1  -0.05738  0  -0.238576  -0.429348  0  3.94494  0
C  C179  1  0.82653249  0.05552371  0.66544402  1  -0.057354  0  -0.23862  -0.429405  0  3.944939  0
S  S180  1  0.21321396  0.23416503  0.22407418  1  0.117362  0  0.02628  0.056832  0  3.303613  0
S  S181  1  0.76583510  0.78678527  0.27592885  1  0.117264  0  0.026202  0.056699  0  3.303742  0
S  S182  1  0.78678546  0.76583277  0.77592748  1  0.11745  0  0.026207  0.056752  0  3.303578  0
S  S183  1  0.23416498  0.21321696  0.72406414  1  0.117291  0  0.026232  0.056741  0  3.303493  0
S  S184  1  0.95164997  0.69607949  0.44937158  1  3.2978  0  0.502971  1.034546  0  6.317836  0
S  S185  1  0.30392614  0.04835664  0.05062565  1  3.297902  0  0.503097  1.03461  0  6.31759  0
S  S186  1  0.04834940  0.30392586  0.55062423  1  3.298103  0  0.502932  1.034279  0  6.317846  0
S  S187  1  0.69607701  0.95164649  0.94937041  1  3.297435  0  0.503098  1.034804  0  6.317791  0
S  S188  1  0.71073231  0.57338558  0.41459383  1  3.245951  0  0.482549  0.979545  0  6.392003  0
S  S189  1  0.42661603  0.28926430  0.08540502  1  3.246526  0  0.482429  0.97929  0  6.391992  0
S  S190  1  0.28926327  0.42661715  0.58540322  1  3.245857  0  0.482573  0.979519  0  6.391595  0
S  S191  1  0.57338863  0.71073338  0.91459181  1  3.246558  0  0.482476  0.979495  0  6.392  0
N  N192  1  0.08583682  0.64544409  0.18678662  1  -0.736663  0  -0.272823  -0.250173  0  3.426445  0
N  N193  1  0.35455341  0.91416191  0.31321923  1  -0.736233  0  -0.272712  -0.250011  0  3.426357  0
N  N194  1  0.91416791  0.35455505  0.81321485  1  -0.736356  0  -0.272813  -0.250241  0  3.426482  0
N  N195  1  0.64544451  0.08583513  0.68678397  1  -0.736692  0  -0.27282  -0.250184  0  3.426539  0
N  N196  1  0.15945475  0.55816787  0.16387979  1  -0.788031  0  -0.149018  0.098864  0  3.751399  0
N  N197  1  0.44183304  0.84053803  0.33611996  1  -0.788084  0  -0.149102  0.098723  0  3.751387  0
N  N198  1  0.84054616  0.44183205  0.83611897  1  -0.7881  0  -0.149004  0.09893  0  3.751541  0
N  N199  1  0.55816556  0.15945518  0.66387890  1  -0.788086  0  -0.148968  0.098853  0  3.751485  0
N  N200  1  0.97714534  0.48924526  0.23959433  1  -0.727306  0  -0.285733  -0.255123  0  3.575647  0
N  N201  1  0.51075794  0.02285403  0.26040311  1  -0.727342  0  -0.285729  -0.255078  0  3.575633  0
N  N202  1  0.02285714  0.51075342  0.76040876  1  -0.726835  0  -0.285759  -0.255109  0  3.575813  0
N  N203  1  0.48924823  0.97713959  0.73959475  1  -0.726913  0  -0.285738  -0.255049  0  3.575644  0
N  N204  1  0.05826692  0.46189897  0.18328340  1  -0.789531  0  -0.150887  0.055599  0  3.690946  0
N  N205  1  0.53809626  0.94173506  0.31671621  1  -0.789405  0  -0.150866  0.055666  0  3.690847  0
N  N206  1  0.94173476  0.53809792  0.81671800  1  -0.789697  0  -0.150823  0.055817  0  3.690892  0
N  N207  1  0.46190236  0.05826369  0.68328267  1  -0.789808  0  -0.150915  0.055648  0  3.690844  0
O  O208  1  0.63618074  0.65740243  0.45353655  1  -1.330234  0  -0.336474  -0.55444  0  2.230063  0
O  O209  1  0.34259400  0.36381024  0.04646550  1  -1.330773  0  -0.336371  -0.554359  0  2.230171  0
O  O210  1  0.36381864  0.34260223  0.54645995  1  -1.330275  0  -0.336471  -0.554457  0  2.230149  0
O  O211  1  0.65739937  0.63618035  0.95353982  1  -1.330796  0  -0.336453  -0.554436  0  2.230158  0
O  O212  1  0.85472746  0.78138630  0.44450800  1  -1.318629  0  -0.329954  -0.546987  0  2.222554  0
O  O213  1  0.21861139  0.14527565  0.05548322  1  -1.318403  0  -0.32993  -0.546917  0  2.22261  0
O  O214  1  0.14527105  0.21861027  0.55548310  1  -1.318672  0  -0.329864  -0.546836  0  2.222565  0
O  O215  1  0.78138111  0.85471857  0.94451279  1  -1.318187  0  -0.329986  -0.547057  0  2.22259  0
O  O216  1  0.71498463  0.59128545  0.33210677  1  -1.293586  0  -0.336933  -0.560426  0  2.268273  0
O  O217  1  0.40872244  0.28501078  0.16789219  1  -1.293541  0  -0.336985  -0.560384  0  2.268167  0
O  O218  1  0.28500944  0.40871789  0.66789100  1  -1.293447  0  -0.336995  -0.56044  0  2.267915  0
O  O219  1  0.59129815  0.71499020  0.83210420  1  -1.293645  0  -0.336926  -0.560462  0  2.26829  0
O  O220  1  0.98215329  0.62692857  0.39339341  1  -1.316256  0  -0.348289  -0.587249  0  2.466711  0
O  O221  1  0.37307036  0.01786304  0.10660707  1  -1.316406  0  -0.348369  -0.587354  0  2.46657  0
O  O222  1  0.01785596  0.37307009  0.60660617  1  -1.31627  0  -0.34833  -0.587278  0  2.466682  0
O  O223  1  0.62692528  0.98214734  0.89339233  1  -1.316448  0  -0.3483  -0.587309  0  2.466519  0
O  O224  1  0.80905469  0.52476306  0.44213803  1  -1.301215  0  -0.340224  -0.5583  0  2.382648  0
O  O225  1  0.47523874  0.19094030  0.05786219  1  -1.30124  0  -0.340175  -0.558212  0  2.382612  0
O  O226  1  0.19093861  0.47523367  0.55786063  1  -1.301233  0  -0.340237  -0.558305  0  2.382533  0
O  O227  1  0.52476445  0.80905527  0.94213862  1  -1.301136  0  -0.340205  -0.558272  0  2.38263  0
O  O228  1  0.97165511  0.64656172  0.52622090  1  -1.31975  0  -0.334757  -0.544063  0  2.419653  0
O  O229  1  0.35345118  0.02834635  0.97377948  1  -1.320057  0  -0.334812  -0.544062  0  2.419573  0
O  O230  1  0.02834204  0.35344874  0.47377819  1  -1.32021  0  -0.334804  -0.544011  0  2.419831  0
O  O231  1  0.64655730  0.97165675  0.02621830  1  -1.319806  0  -0.334871  -0.544165  0  2.419694  0
F  F232  1  0.03434648  0.82032781  0.46156486  1  -0.623288  0  -0.093611  -0.182822  0  1.346118  0
F  F233  1  0.17967639  0.96564653  0.03845069  1  -0.623025  0  -0.093683  -0.182889  0  1.346164  0
F  F234  1  0.96564769  0.17968185  0.53843826  1  -0.623121  0  -0.093725  -0.18296  0  1.346235  0
F  F235  1  0.82033736  0.03433300  0.96155063  1  -0.623268  0  -0.09356  -0.1828  0  1.346468  0
F  F236  1  0.56786395  0.50547220  0.42438762  1  -0.61184  0  -0.099787  -0.186627  0  1.366544  0
F  F237  1  0.49451264  0.43215035  0.07559514  1  -0.611783  0  -0.09964  -0.186509  0  1.366819  0
F  F238  1  0.43213089  0.49453015  0.57561075  1  -0.6117  0  -0.099803  -0.18662  0  1.366707  0
F  F239  1  0.50548872  0.56785587  0.92438035  1  -0.612119  0  -0.099751  -0.186654  0  1.366587  0
F  F240  1  0.72240157  0.38750608  0.41646260  1  -0.620085  0  -0.100717  -0.190496  0  1.35357  0
F  F241  1  0.61248301  0.27761899  0.08354501  1  -0.61997  0  -0.100705  -0.190454  0  1.353513  0
F  F242  1  0.27759407  0.61249670  0.58353883  1  -0.620008  0  -0.10071  -0.190453  0  1.35353  0
F  F243  1  0.38751833  0.72238997  0.91642776  1  -0.620105  0  -0.100718  -0.190546  0  1.353454  0
F  F244  1  0.64922804  0.44996240  0.52355804  1  -0.609614  0  -0.094606  -0.17585  0  1.357499  0
F  F245  1  0.55005119  0.35076296  0.97643820  1  -0.609731  0  -0.094636  -0.175867  0  1.357499  0
F  F246  1  0.35076911  0.55004945  0.47644079  1  -0.609687  0  -0.094679  -0.175866  0  1.357545  0
F  F247  1  0.44993805  0.64924193  0.02353880  1  -0.609108  0  -0.094523  -0.175842  0  1.35752  0
F  F248  1  0.03581517  0.80419370  0.34412840  1  -0.623074  0  -0.090909  -0.186253  0  1.381138  0
F  F249  1  0.19583072  0.96418311  0.15588330  1  -0.623154  0  -0.090891  -0.186364  0  1.381256  0
F  F250  1  0.96418808  0.19581851  0.65587246  1  -0.62309  0  -0.090824  -0.186317  0  1.3812  0
F  F251  1  0.80418535  0.03580798  0.84411808  1  -0.620029  0  -0.090843  -0.186283  0  1.381391  0
F  F252  1  0.14224323  0.68163920  0.41489672  1  -0.611139  0  -0.088494  -0.169322  0  1.358628  0
F  F253  1  0.31838194  0.85775860  0.08510559  1  -0.610944  0  -0.088522  -0.169398  0  1.358665  0
F  F254  1  0.85775247  0.31837194  0.58510691  1  -0.611025  0  -0.088574  -0.169515  0  1.3585  0
F  F255  1  0.68163867  0.14223549  0.91489378  1  -0.610896  0  -0.08843  -0.169288  0  1.3586  0
