# generated using pymatgen
data_SrH12C7O5
_symmetry_space_group_name_H-M   'P 1'
_cell_length_a   4.80191410
_cell_length_b   7.61564264
_cell_length_c   13.09147991
_cell_angle_alpha   104.98995824
_cell_angle_beta   97.58589984
_cell_angle_gamma   100.18798153
_symmetry_Int_Tables_number   1
_chemical_formula_structural   SrH12C7O5
_chemical_formula_sum   'Sr2 H24 C14 O10'
_cell_volume   447.14114398
_cell_formula_units_Z   2
loop_
 _symmetry_equiv_pos_site_id
 _symmetry_equiv_pos_as_xyz
  1  'x, y, z'
loop_
 _atom_site_type_symbol
 _atom_site_label
 _atom_site_symmetry_multiplicity
 _atom_site_fract_x
 _atom_site_fract_y
 _atom_site_fract_z
 _atom_site_occupancy
 _atom_site_hle17_bader_spin_density
 _atom_site_hle17_ddec_charge
 _atom_site_hle17_ddec_spin_density
 _atom_site_hle17_ddec_sum_bond_order
 _atom_site_hle17_magmom
 _atom_site_hse06_10hf_bader_spin_density
 _atom_site_hse06_10hf_ddec_charge
 _atom_site_hse06_10hf_ddec_spin_density
 _atom_site_hse06_10hf_ddec_sum_bond_order
 _atom_site_hse06_10hf_magmom
 _atom_site_hse06_bader_spin_density
 _atom_site_hse06_ddec_charge
 _atom_site_hse06_ddec_spin_density
 _atom_site_hse06_ddec_sum_bond_order
 _atom_site_hse06_magmom
 _atom_site_pbe_bader_spin_density
 _atom_site_pbe_cm5_charge
 _atom_site_pbe_ddec_charge
 _atom_site_pbe_ddec_spin_density
 _atom_site_pbe_ddec_sum_bond_order
 _atom_site_pbe_magmom
Sr  Sr0  1  0.76802024  0.26801743  0.53598419  1  0  1.630914  0  1.080443  0  0  1.492012  0  1.441198  0  0  1.528427  0  1.398489  0  0  0.948351  1.46525  0  1.471414  0
Sr  Sr1  1  0.23198990  0.73198639  0.46401893  1  0  1.630857  0  1.080517  0  0  1.492005  0  1.441176  0  0  1.528391  0  1.398521  0  0  0.948324  1.465243  0  1.471384  0
H  H2  1  0.12289201  0.54426327  0.80215863  1  0  0.11144  0  0.935228  0  0  0.124349  0  1.002891  0  0  0.127093  0  1.000855  0  0  0.108081  0.122309  0  1.00452  0
H  H3  1  0.67938615  0.25701008  0.80228781  1  0  0.110838  0  0.93553  0  0  0.124042  0  1.003042  0  0  0.126756  0  1.001159  0  0  0.108795  0.122058  0  1.004548  0
H  H4  1  0.87711651  0.45572948  0.19783659  1  0  0.111496  0  0.935136  0  0  0.124363  0  1.002807  0  0  0.127121  0  1.000749  0  0  0.108076  0.122323  0  1.004439  0
H  H5  1  0.32060439  0.74299789  0.19771576  1  0  0.110773  0  0.935614  0  0  0.123962  0  1.003106  0  0  0.126676  0  1.001221  0  0  0.108803  0.121988  0  1.004605  0
H  H6  1  0.22442523  0.76957998  0.79404602  1  0  0.09821  0  0.933727  0  0  0.116186  0  0.992137  0  0  0.117648  0  0.991984  0  0  0.101327  0.115135  0  0.992299  0
H  H7  1  0.56815921  0.02358496  0.79398936  1  0  0.096742  0  0.933184  0  0  0.115097  0  0.991611  0  0  0.116652  0  0.991427  0  0  0.101074  0.11396  0  0.99187  0
H  H8  1  0.77559192  0.23040723  0.20594724  1  0  0.09819  0  0.933771  0  0  0.116163  0  0.992167  0  0  0.117624  0  0.992017  0  0  0.101328  0.115106  0  0.992336  0
H  H9  1  0.43182574  0.97641888  0.20600872  1  0  0.096754  0  0.933189  0  0  0.115115  0  0.991555  0  0  0.116665  0  0.991382  0  0  0.101121  0.113981  0  0.991805  0
H  H10  1  0.63849575  0.56915984  0.89569443  1  0  0.064148  0  0.949684  0  0  0.084384  0  1.012198  0  0  0.084751  0  1.013081  0  0  0.089944  0.084049  0  1.011652  0
H  H11  1  0.25698224  0.32641320  0.89569035  1  0  0.064572  0  0.949974  0  0  0.084477  0  1.012757  0  0  0.08482  0  1.013675  0  0  0.090512  0.084141  0  1.012201  0
H  H12  1  0.36150522  0.43083555  0.10431153  1  0  0.06417  0  0.949716  0  0  0.084431  0  1.012225  0  0  0.084796  0  1.013111  0  0  0.089957  0.084096  0  1.011681  0
H  H13  1  0.74299075  0.67358639  0.10431107  1  0  0.064597  0  0.94994  0  0  0.0845  0  1.01276  0  0  0.084835  0  1.013686  0  0  0.090532  0.084169  0  1.012208  0
H  H14  1  0.72559312  0.80199944  0.89432830  1  0  0.053546  0  0.936632  0  0  0.072716  0  1.001241  0  0  0.073475  0  1.001068  0  0  0.084881  0.072071  0  1.001494  0
H  H15  1  0.16835218  0.09223860  0.89444743  1  0  0.053702  0  0.9365  0  0  0.07292  0  1.000965  0  0  0.073743  0  1.00073  0  0  0.084536  0.072232  0  1.001259  0
H  H16  1  0.27441186  0.19800157  0.10567567  1  0  0.053528  0  0.936652  0  0  0.072726  0  1.001267  0  0  0.073485  0  1.001094  0  0  0.084896  0.07208  0  1.00152  0
H  H17  1  0.83163273  0.90775268  0.10555024  1  0  0.053699  0  0.93652  0  0  0.072942  0  1.001001  0  0  0.073763  0  1.000762  0  0  0.084543  0.072252  0  1.001295  0
H  H18  1  0.24570415  0.64010927  0.00005007  1  0  0.053554  0  0.940803  0  0  0.073584  0  1.004306  0  0  0.074179  0  1.004572  0  0  0.084795  0.073073  0  1.004222  0
H  H19  1  0.75427892  0.35988900  0.99994629  1  0  0.053493  0  0.940773  0  0  0.073511  0  1.004298  0  0  0.074105  0  1.004564  0  0  0.084789  0.073001  0  1.004217  0
H  H20  1  0.33438717  0.87347324  0.99999644  1  0  0.057048  0  0.948064  0  0  0.078667  0  1.008462  0  0  0.078646  0  1.010081  0  0  0.086306  0.078583  0  1.007445  0
H  H21  1  0.66560385  0.12652368  0.99999857  1  0  0.057049  0  0.948106  0  0  0.078649  0  1.008514  0  0  0.078625  0  1.010138  0  0  0.086333  0.078587  0  1.007468  0
H  H22  1  0.17326168  0.08553491  0.38269335  1  0  0.421016  0  0.874518  0  0  0.39138  0  0.942886  0  0  0.401486  0  0.927873  0  0  0.313528  0.38417  0  0.953599  0
H  H23  1  0.20984167  0.29713580  0.38269750  1  0  0.419359  0  0.874307  0  0  0.389946  0  0.944255  0  0  0.400045  0  0.929255  0  0  0.312621  0.382741  0  0.954963  0
H  H24  1  0.82673914  0.91446616  0.61730584  1  0  0.421022  0  0.874516  0  0  0.391392  0  0.942866  0  0  0.401498  0  0.927853  0  0  0.313514  0.384182  0  0.953582  0
H  H25  1  0.79015493  0.70286524  0.61730300  1  0  0.419321  0  0.874357  0  0  0.389899  0  0.944332  0  0  0.399997  0  0.929335  0  0  0.312628  0.382697  0  0.955036  0
C  C26  1  0.39109467  0.56860114  0.68907999  1  0  0.737964  0  3.832311  0  0  0.690059  0  4.130815  0  0  0.723146  0  4.122466  0  0  0.23322  0.66754  0  4.13576  0
C  C27  1  0.29792534  0.12046468  0.68907686  1  0  0.733778  0  3.837278  0  0  0.686581  0  4.134887  0  0  0.719665  0  4.126681  0  0  0.230928  0.664075  0  4.139724  0
C  C28  1  0.60895592  0.43140419  0.31091999  1  0  0.738101  0  3.83163  0  0  0.690027  0  4.130338  0  0  0.723111  0  4.12199  0  0  0.233168  0.667506  0  4.135285  0
C  C29  1  0.70205700  0.87953771  0.31092545  1  0  0.733526  0  3.837646  0  0  0.686274  0  4.135268  0  0  0.719356  0  4.127068  0  0  0.230785  0.663762  0  4.140112  0
C  C30  1  0.31116528  0.64635528  0.79758913  1  0  -0.278063  0  3.681925  0  0  -0.317605  0  3.9377  0  0  -0.323106  0  3.945964  0  0  -0.161548  -0.313728  0  3.931939  0
C  C31  1  0.48596374  0.15071237  0.79755072  1  0  -0.276314  0  3.684908  0  0  -0.317062  0  3.941352  0  0  -0.322808  0  3.950021  0  0  -0.163117  -0.313102  0  3.935384  0
C  C32  1  0.68885326  0.35363606  0.20240866  1  0  -0.278176  0  3.681957  0  0  -0.31752  0  3.93762  0  0  -0.323022  0  3.94587  0  0  -0.161545  -0.313642  0  3.931861  0
C  C33  1  0.51402588  0.84929286  0.20244856  1  0  -0.276242  0  3.685079  0  0  -0.316878  0  3.941441  0  0  -0.322623  0  3.950098  0  0  -0.163142  -0.312926  0  3.935467  0
C  C34  1  0.54583364  0.69158350  0.89666188  1  0  -0.080969  0  3.714623  0  0  -0.126201  0  3.979062  0  0  -0.126076  0  3.993392  0  0  -0.170637  -0.126067  0  3.969053  0
C  C35  1  0.35052727  0.20487622  0.89662532  1  0  -0.081194  0  3.714233  0  0  -0.12597  0  3.978322  0  0  -0.125826  0  3.992731  0  0  -0.170035  -0.125831  0  3.968259  0
C  C36  1  0.45417084  0.30841606  0.10334642  1  0  -0.080992  0  3.714813  0  0  -0.126373  0  3.979372  0  0  -0.126245  0  3.993689  0  0  -0.170694  -0.126239  0  3.969368  0
C  C37  1  0.64945669  0.79512475  0.10337837  1  0  -0.08112  0  3.714386  0  0  -0.126062  0  3.978689  0  0  -0.125904  0  3.993081  0  0  -0.170069  -0.125928  0  3.968631  0
C  C38  1  0.42810765  0.75121152  0.00002000  1  0  -0.110896  0  3.696268  0  0  -0.149761  0  3.957498  0  0  -0.151106  0  3.97313  0  0  -0.167032  -0.148638  0  3.946549  0
C  C39  1  0.57187936  0.24879019  0.99998508  1  0  -0.110797  0  3.696229  0  0  -0.149645  0  3.957461  0  0  -0.150986  0  3.973094  0  0  -0.167032  -0.148536  0  3.946506  0
O  O40  1  0.63160526  0.52219120  0.68414448  1  0  -0.705179  0  1.954273  0  0  -0.639765  0  2.190992  0  0  -0.665157  0  2.180867  0  0  -0.354535  -0.622028  0  2.197504  0
O  O41  1  0.05252214  0.16195627  0.68405303  1  0  -0.702068  0  1.955533  0  0  -0.636326  0  2.191113  0  0  -0.661573  0  2.180827  0  0  -0.353168  -0.618699  0  2.197784  0
O  O42  1  0.36842938  0.47781676  0.31586506  1  0  -0.705375  0  1.95384  0  0  -0.639914  0  2.190647  0  0  -0.665314  0  2.180547  0  0  -0.354556  -0.622159  0  2.197143  0
O  O43  1  0.94746888  0.83805313  0.31594773  1  0  -0.702055  0  1.955401  0  0  -0.636304  0  2.190985  0  0  -0.661542  0  2.180696  0  0  -0.353171  -0.618676  0  2.197664  0
O  O44  1  0.20610263  0.55380498  0.60542078  1  0  -0.78856  0  2.00879  0  0  -0.71976  0  2.265349  0  0  -0.746346  0  2.253924  0  0  -0.41828  -0.700944  0  2.272751  0
O  O45  1  0.39952968  0.05170690  0.60547909  1  0  -0.787302  0  2.008989  0  0  -0.718829  0  2.265203  0  0  -0.745366  0  2.253701  0  0  -0.416836  -0.700037  0  2.272647  0
O  O46  1  0.79392550  0.44618363  0.39457324  1  0  -0.788375  0  2.008547  0  0  -0.719579  0  2.265286  0  0  -0.746164  0  2.253868  0  0  -0.418165  -0.700765  0  2.272687  0
O  O47  1  0.60046416  0.94829837  0.39451735  1  0  -0.787091  0  2.0094  0  0  -0.718544  0  2.265523  0  0  -0.745081  0  2.254028  0  0  -0.416685  -0.699751  0  2.272966  0
O  O48  1  0.21508564  0.21489445  0.42984232  1  0  -0.896351  0  1.898606  0  0  -0.845159  0  2.098304  0  0  -0.863198  0  2.066095  0  0  -0.603741  -0.832359  0  2.121047  0
O  O49  1  0.78491938  0.78510661  0.57015708  1  0  -0.896289  0  1.898576  0  0  -0.845103  0  2.098265  0  0  -0.863136  0  2.066055  0  0  -0.603711  -0.832306  0  2.121002  0
