# generated using pymatgen
data_NiTeMo3H8C10(NO6)2
_symmetry_space_group_name_H-M   'P 1'
_cell_length_a   7.74179518
_cell_length_b   9.74877243
_cell_length_c   12.32342290
_cell_angle_alpha   99.00892646
_cell_angle_beta   107.26817091
_cell_angle_gamma   101.48029903
_symmetry_Int_Tables_number   1
_chemical_formula_structural   NiTeMo3H8C10(NO6)2
_chemical_formula_sum   'Ni2 Te2 Mo6 H16 C20 N4 O24'
_cell_volume   846.96407352
_cell_formula_units_Z   2
loop_
 _symmetry_equiv_pos_site_id
 _symmetry_equiv_pos_as_xyz
  1  'x, y, z'
loop_
 _atom_site_type_symbol
 _atom_site_label
 _atom_site_symmetry_multiplicity
 _atom_site_fract_x
 _atom_site_fract_y
 _atom_site_fract_z
 _atom_site_occupancy
 _atom_site_pbe_bader_spin_density
 _atom_site_pbe_cm5_charge
 _atom_site_pbe_ddec_charge
 _atom_site_pbe_ddec_spin_density
 _atom_site_pbe_ddec_sum_bond_order
 _atom_site_pbe_magmom
Ni  Ni0  1  0.53913574  0.68204996  0.68726852  1  0  0.654492  0.706318  0  2.945312  0
Ni  Ni1  1  0.46086401  0.31794736  0.31273197  1  0  0.654512  0.706358  0  2.945112  0
Te  Te2  1  0.23734484  0.20695406  0.01614045  1  0  0.893272  1.468484  0  3.947132  0
Te  Te3  1  0.76265062  0.79304651  0.98386046  1  0  0.89331  1.468557  0  3.947113  0
Mo  Mo4  1  0.35494306  0.95058534  0.84146709  1  0  1.501854  2.125824  0  4.6277  0
Mo  Mo5  1  0.64505548  0.04941629  0.15853452  1  0  1.501875  2.125867  0  4.627653  0
Mo  Mo6  1  0.28700879  0.74950236  0.03317927  1  0  1.543929  2.242413  0  4.536934  0
Mo  Mo7  1  0.71299110  0.25049926  0.96682178  1  0  1.543948  2.242424  0  4.536923  0
Mo  Mo8  1  0.36893735  0.44956693  0.84804283  1  0  1.541278  2.184197  0  4.542047  0
Mo  Mo9  1  0.63105811  0.55043364  0.15195645  1  0  1.541246  2.184188  0  4.541981  0
H  H10  1  0.83579093  0.95412421  0.76131075  1  0  0.123971  0.113429  0  1.002073  0
H  H11  1  0.16420537  0.04587097  0.23868966  1  0  0.123946  0.113371  0  1.001961  0
H  H12  1  0.95241891  0.12771189  0.65328315  1  0  0.110652  0.145384  0  1.012811  0
H  H13  1  0.04758416  0.87228327  0.34672094  1  0  0.11067  0.145421  0  1.012806  0
H  H14  1  0.20827835  0.42954735  0.58264495  1  0  0.123383  0.102137  0  1.023341  0
H  H15  1  0.79171746  0.57045427  0.41735047  1  0  0.123402  0.102162  0  1.023302  0
H  H16  1  0.54265464  0.85019748  0.33346493  1  0  0.113663  0.135553  0  1.0231  0
H  H17  1  0.45735371  0.14980518  0.66653619  1  0  0.113625  0.135558  0  1.022994  0
H  H18  1  0.80462268  0.07106739  0.43271515  1  0  0.10966  0.112701  0  1.011931  0
H  H19  1  0.19538457  0.92893206  0.56729024  1  0  0.109636  0.112647  0  1.011962  0
H  H20  1  0.29557874  0.66289905  0.26881216  1  0  0.114755  0.134188  0  1.017917  0
H  H21  1  0.70442667  0.33710685  0.73118718  1  0  0.114751  0.13419  0  1.01792  0
H  H22  1  0.98484877  0.32495563  0.37725740  1  0  0.112427  0.135795  0  1.00523  0
H  H23  1  0.01515146  0.67504705  0.62273734  1  0  0.112415  0.135804  0  1.005144  0
H  H24  1  0.03128707  0.44362918  0.21826130  1  0  0.116825  0.13122  0  0.996578  0
H  H25  1  0.96871526  0.55637565  0.78173573  1  0  0.116831  0.131252  0  0.996607  0
C  C26  1  0.77438657  0.93785802  0.66730809  1  0  0.061459  0.124582  0  3.84804  0
C  C27  1  0.22561724  0.06213929  0.33269640  1  0  0.061488  0.124649  0  3.848035  0
C  C28  1  0.83814342  0.03238729  0.60527705  1  0  -0.074495  -0.113197  0  3.899844  0
C  C29  1  0.16185864  0.96760893  0.39472130  1  0  -0.074514  -0.113261  0  3.899933  0
C  C30  1  0.39073411  0.66148874  0.45144650  1  0  0.116472  0.143547  0  3.999413  0
C  C31  1  0.60927313  0.33851070  0.54855564  1  0  0.116495  0.143575  0  3.999318  0
C  C32  1  0.54779464  0.78921670  0.49503528  1  0  0.115678  0.144942  0  4.008761  0
C  C33  1  0.45221173  0.21077629  0.50496834  1  0  0.11559  0.144953  0  4.008694  0
C  C34  1  0.22267598  0.47703001  0.51048171  1  0  0.050696  0.086923  0  3.907662  0
C  C35  1  0.77731947  0.52297054  0.48951432  1  0  0.050658  0.086906  0  3.90759  0
C  C36  1  0.60924233  0.87743159  0.42801538  1  0  -0.070235  -0.135214  0  3.891856  0
C  C37  1  0.39076170  0.12256247  0.57198307  1  0  -0.070229  -0.135336  0  3.891901  0
C  C38  1  0.75625559  0.00060031  0.48405782  1  0  -0.062432  -0.019497  0  3.934038  0
C  C39  1  0.24374454  0.99939809  0.51594612  1  0  -0.062426  -0.019438  0  3.934059  0
C  C40  1  0.27224347  0.60899642  0.33602221  1  0  -0.063412  -0.120376  0  3.885994  0
C  C41  1  0.72776255  0.39100733  0.66397617  1  0  -0.06336  -0.120291  0  3.886058  0
C  C42  1  0.10042059  0.41975519  0.39644698  1  0  -0.074463  -0.122677  0  3.936853  0
C  C43  1  0.89958061  0.58024641  0.60354700  1  0  -0.074414  -0.122607  0  3.936703  0
C  C44  1  0.12563167  0.48614308  0.30790533  1  0  -0.053015  0.001964  0  3.903478  0
C  C45  1  0.87437067  0.51386176  0.69209413  1  0  -0.053078  0.001787  0  3.903542  0
N  N46  1  0.63359729  0.81868585  0.61334136  1  0  -0.333444  -0.220306  0  3.644242  0
N  N47  1  0.36640652  0.18131146  0.38666232  1  0  -0.333361  -0.220206  0  3.644135  0
N  N48  1  0.36522780  0.59517588  0.53735719  1  0  -0.335593  -0.21355  0  3.640792  0
N  N49  1  0.63477133  0.40482359  0.46264102  1  0  -0.335554  -0.213549  0  3.640748  0
O  O50  1  0.26720369  0.59947256  0.91124000  1  0  -0.582062  -0.853966  0  2.087135  0
O  O51  1  0.73279274  0.40052693  0.08875933  1  0  -0.582063  -0.853985  0  2.087126  0
O  O52  1  0.53541328  0.32749460  0.86260543  1  0  -0.58978  -0.886199  0  2.087373  0
O  O53  1  0.46458255  0.67250704  0.13739487  1  0  -0.589782  -0.886178  0  2.087398  0
O  O54  1  0.35848546  0.39525194  0.00791649  1  0  -0.490882  -0.832358  0  2.205626  0
O  O55  1  0.64151234  0.60474754  0.99208471  1  0  -0.490896  -0.832394  0  2.205733  0
O  O56  1  0.45417924  0.13160166  0.02038713  1  0  -0.50817  -0.930067  0  2.277667  0
O  O57  1  0.54581696  0.86840106  0.97961418  1  0  -0.508173  -0.930104  0  2.277755  0
O  O58  1  0.08863368  0.69587500  0.06742944  1  0  -0.497007  -0.652916  0  1.693606  0
O  O59  1  0.91136522  0.30412771  0.93257237  1  0  -0.497027  -0.652921  0  1.693571  0
O  O60  1  0.31040246  0.81201233  0.72279877  1  0  -0.509517  -0.691594  0  1.81366  0
O  O61  1  0.68959436  0.18798823  0.27720319  1  0  -0.509544  -0.691643  0  1.813736  0
O  O62  1  0.41189139  0.93085510  0.15049845  1  0  -0.589891  -0.862103  0  2.003718  0
O  O63  1  0.58810849  0.06914653  0.84950260  1  0  -0.589902  -0.862088  0  2.003651  0
O  O64  1  0.19942430  0.85972081  0.92423228  1  0  -0.590219  -0.871597  0  2.013443  0
O  O65  1  0.80057461  0.14028190  0.07576952  1  0  -0.590235  -0.871576  0  2.013379  0
O  O66  1  0.20860422  0.05689420  0.79159884  1  0  -0.508603  -0.692909  0  1.816917  0
O  O67  1  0.79139468  0.94310851  0.20840296  1  0  -0.508607  -0.692925  0  1.816868  0
O  O68  1  0.44358644  0.54212747  0.74978682  1  0  -0.538836  -0.72966  0  2.252307  0
O  O69  1  0.55640766  0.45787309  0.25021058  1  0  -0.538834  -0.729664  0  2.252263  0
O  O70  1  0.16116056  0.33254504  0.75946177  1  0  -0.496775  -0.626128  0  1.690107  0
O  O71  1  0.83883588  0.66745445  0.24053837  1  0  -0.496748  -0.626123  0  1.690096  0
O  O72  1  0.26125605  0.23496382  0.17410599  1  0  -0.435648  -0.665354  0  2.160185  0
O  O73  1  0.73873633  0.76503568  0.82589178  1  0  -0.435637  -0.665314  0  2.160162  0
