# generated using pymatgen
data_ZnH10C16S2(NO)4
_symmetry_space_group_name_H-M   'P 1'
_cell_length_a   7.59752041
_cell_length_b   8.63284995
_cell_length_c   13.14712268
_cell_angle_alpha   90.00365234
_cell_angle_beta   93.12968970
_cell_angle_gamma   90.00453045
_symmetry_Int_Tables_number   1
_chemical_formula_structural   ZnH10C16S2(NO)4
_chemical_formula_sum   'Zn2 H20 C32 S4 N8 O8'
_cell_volume   861.01070914
_cell_formula_units_Z   2
loop_
 _symmetry_equiv_pos_site_id
 _symmetry_equiv_pos_as_xyz
  1  'x, y, z'
loop_
 _atom_site_type_symbol
 _atom_site_label
 _atom_site_symmetry_multiplicity
 _atom_site_fract_x
 _atom_site_fract_y
 _atom_site_fract_z
 _atom_site_occupancy
 _atom_site_hle17_bader_spin_density
 _atom_site_hle17_ddec_charge
 _atom_site_hle17_ddec_spin_density
 _atom_site_hle17_ddec_sum_bond_order
 _atom_site_hle17_magmom
 _atom_site_hse06_10hf_bader_spin_density
 _atom_site_hse06_10hf_ddec_charge
 _atom_site_hse06_10hf_ddec_spin_density
 _atom_site_hse06_10hf_ddec_sum_bond_order
 _atom_site_hse06_10hf_magmom
 _atom_site_hse06_bader_spin_density
 _atom_site_hse06_ddec_charge
 _atom_site_hse06_ddec_spin_density
 _atom_site_hse06_ddec_sum_bond_order
 _atom_site_hse06_magmom
 _atom_site_pbe_bader_spin_density
 _atom_site_pbe_cm5_charge
 _atom_site_pbe_ddec_charge
 _atom_site_pbe_ddec_spin_density
 _atom_site_pbe_ddec_sum_bond_order
 _atom_site_pbe_magmom
Zn  Zn0  1  0.74999564  0.15580209  0.74999778  1  0  0.852746  0  2.053542  0  0  0.703016  0  2.534805  0  0  0.746123  0  2.484542  0  0  0.541093  0.673032  0  2.569062  0
Zn  Zn1  1  0.25000875  0.84419808  0.24999498  1  0  0.852803  0  2.053294  0  0  0.702993  0  2.534538  0  0  0.746104  0  2.48428  0  0  0.541119  0.673009  0  2.568787  0
H  H2  1  0.73040693  0.06770744  0.05143473  1  0  0.332159  0  0.830238  0  0  0.323811  0  0.872869  0  0  0.330462  0  0.868387  0  0  0.343236  0.319125  0  0.876129  0
H  H3  1  0.76962333  0.06766578  0.44856254  1  0  0.332277  0  0.830491  0  0  0.323876  0  0.873098  0  0  0.330529  0  0.868614  0  0  0.343256  0.319192  0  0.87635  0
H  H4  1  0.26964146  0.93226841  0.94857325  1  0  0.332082  0  0.830377  0  0  0.32376  0  0.872945  0  0  0.330414  0  0.868468  0  0  0.343142  0.319078  0  0.876195  0
H  H5  1  0.23037259  0.93234251  0.55143891  1  0  0.33231  0  0.830704  0  0  0.323903  0  0.873329  0  0  0.330556  0  0.86884  0  0  0.343275  0.319216  0  0.876597  0
H  H6  1  0.54133354  0.66434365  0.17107948  1  0  0.344558  0  0.905956  0  0  0.320545  0  0.972698  0  0  0.331004  0  0.963195  0  0  0.309942  0.313167  0  0.979446  0
H  H7  1  0.95866943  0.66432611  0.32893133  1  0  0.344362  0  0.906195  0  0  0.320553  0  0.972695  0  0  0.330947  0  0.963317  0  0  0.310035  0.313216  0  0.979374  0
H  H8  1  0.45867103  0.33564147  0.82891024  1  0  0.344603  0  0.905839  0  0  0.320617  0  0.972646  0  0  0.331101  0  0.963103  0  0  0.309935  0.313233  0  0.979401  0
H  H9  1  0.04132146  0.33567522  0.67106605  1  0  0.344338  0  0.906164  0  0  0.320569  0  0.97264  0  0  0.33096  0  0.963264  0  0  0.310032  0.313229  0  0.979329  0
H  H10  1  0.68458333  0.44658738  0.01615465  1  0  0.123319  0  0.932523  0  0  0.133474  0  0.990718  0  0  0.137314  0  0.988006  0  0  0.110674  0.130656  0  0.992807  0
H  H11  1  0.81543078  0.44656225  0.48385168  1  0  0.123181  0  0.932519  0  0  0.133315  0  0.990765  0  0  0.137158  0  0.988049  0  0  0.110574  0.130501  0  0.992841  0
H  H12  1  0.31541414  0.55340816  0.98384308  1  0  0.123186  0  0.932625  0  0  0.133345  0  0.990797  0  0  0.137182  0  0.98809  0  0  0.11067  0.130537  0  0.992872  0
H  H13  1  0.18455343  0.55344488  0.51614688  1  0  0.123087  0  0.932589  0  0  0.133238  0  0.99083  0  0  0.137079  0  0.988115  0  0  0.110534  0.130422  0  0.992915  0
H  H14  1  0.01549855  0.69349065  0.81563097  1  0  0.104598  0  0.957898  0  0  0.111821  0  1.022059  0  0  0.11626  0  1.018234  0  0  0.098468  0.108588  0  1.024907  0
H  H15  1  0.48450272  0.69346341  0.68436540  1  0  0.104733  0  0.957864  0  0  0.112008  0  1.021962  0  0  0.116454  0  1.018125  0  0  0.09852  0.108778  0  1.024806  0
H  H16  1  0.98452953  0.30648752  0.18438508  1  0  0.10477  0  0.957898  0  0  0.111991  0  1.022037  0  0  0.116435  0  1.018207  0  0  0.098452  0.108759  0  1.024883  0
H  H17  1  0.51547259  0.30654488  0.31562738  1  0  0.10473  0  0.957906  0  0  0.112059  0  1.021953  0  0  0.116505  0  1.018115  0  0  0.098538  0.108822  0  1.024807  0
H  H18  1  0.95154371  0.94722372  0.90060945  1  0  0.101677  0  0.992797  0  0  0.109116  0  1.061332  0  0  0.112333  0  1.059491  0  0  0.092575  0.106792  0  1.062781  0
H  H19  1  0.54845439  0.94717526  0.59938188  1  0  0.101541  0  0.992918  0  0  0.109036  0  1.061373  0  0  0.11225  0  1.059535  0  0  0.092558  0.106721  0  1.062811  0
H  H20  1  0.04851672  0.05278572  0.09939610  1  0  0.101701  0  0.992949  0  0  0.109162  0  1.061438  0  0  0.112373  0  1.059603  0  0  0.092618  0.106845  0  1.062882  0
H  H21  1  0.45152755  0.05283302  0.40061048  1  0  0.101513  0  0.992929  0  0  0.109082  0  1.061301  0  0  0.112295  0  1.059463  0  0  0.09258  0.106759  0  1.062751  0
C  C22  1  0.59976908  0.89203103  0.12924453  1  0  0.418653  0  3.78056  0  0  0.370289  0  4.092965  0  0  0.395383  0  4.099162  0  0  0.230096  0.353595  0  4.088182  0
C  C23  1  0.90022296  0.89200863  0.37076208  1  0  0.418719  0  3.780316  0  0  0.370355  0  4.092796  0  0  0.395455  0  4.098987  0  0  0.230058  0.353652  0  4.088029  0
C  C24  1  0.40022624  0.10797378  0.87076678  1  0  0.418636  0  3.779925  0  0  0.37042  0  4.092345  0  0  0.395526  0  4.098543  0  0  0.230118  0.353731  0  4.087555  0
C  C25  1  0.09976016  0.10799850  0.62923262  1  0  0.418859  0  3.780377  0  0  0.370559  0  4.092821  0  0  0.395655  0  4.09901  0  0  0.230133  0.353874  0  4.088035  0
C  C26  1  0.78151837  0.83498675  0.00492124  1  0  0.171006  0  3.817066  0  0  0.158315  0  4.068738  0  0  0.1636  0  4.090107  0  0  0.097698  0.154807  0  4.054388  0
C  C27  1  0.71849807  0.83495270  0.49508868  1  0  0.171165  0  3.816717  0  0  0.15835  0  4.068374  0  0  0.163633  0  4.089747  0  0  0.097795  0.154839  0  4.054036  0
C  C28  1  0.21849785  0.16501922  0.99509420  1  0  0.170882  0  3.817018  0  0  0.158225  0  4.068626  0  0  0.163501  0  4.08999  0  0  0.097722  0.154717  0  4.054294  0
C  C29  1  0.28149037  0.16505327  0.50490553  1  0  0.170957  0  3.816942  0  0  0.158153  0  4.068578  0  0  0.163436  0  4.08995  0  0  0.097778  0.154648  0  4.054223  0
C  C30  1  0.70889608  0.69543867  0.03995833  1  0  0.164186  0  3.755475  0  0  0.158396  0  4.001153  0  0  0.161328  0  4.022496  0  0  0.100145  0.156217  0  3.986832  0
C  C31  1  0.79111860  0.69540059  0.46004229  1  0  0.164053  0  3.755903  0  0  0.158525  0  4.001429  0  0  0.161462  0  4.022777  0  0  0.1001  0.156342  0  3.987117  0
C  C32  1  0.29113104  0.30455108  0.96005159  1  0  0.164143  0  3.756829  0  0  0.158447  0  4.00251  0  0  0.161397  0  4.023856  0  0  0.100162  0.156264  0  3.988196  0
C  C33  1  0.20887492  0.30460422  0.53995523  1  0  0.164056  0  3.755676  0  0  0.158632  0  4.001152  0  0  0.161566  0  4.022496  0  0  0.100179  0.156459  0  3.98682  0
C  C34  1  0.74260554  0.55506872  0.99239686  1  0  -0.128453  0  3.675901  0  0  -0.161122  0  3.928437  0  0  -0.160282  0  3.945499  0  0  -0.079999  -0.161483  0  3.916936  0
C  C35  1  0.75740476  0.55503654  0.50760668  1  0  -0.128375  0  3.676128  0  0  -0.161047  0  3.928542  0  0  -0.160214  0  3.945614  0  0  -0.079853  -0.161399  0  3.917028  0
C  C36  1  0.25743055  0.44491292  0.00759601  1  0  -0.128171  0  3.676256  0  0  -0.160721  0  3.928716  0  0  -0.159888  0  3.945785  0  0  -0.079808  -0.161087  0  3.917212  0
C  C37  1  0.24259535  0.44497290  0.49239118  1  0  -0.128209  0  3.676011  0  0  -0.160931  0  3.928425  0  0  -0.160094  0  3.945496  0  0  -0.07978  -0.161289  0  3.916913  0
C  C38  1  0.85326528  0.55880108  0.91044069  1  0  -0.062782  0  3.754243  0  0  -0.042335  0  3.99393  0  0  -0.051268  0  4.019203  0  0  -0.020455  -0.036604  0  3.976968  0
C  C39  1  0.64673748  0.55876059  0.58956262  1  0  -0.062703  0  3.753994  0  0  -0.042279  0  3.993683  0  0  -0.051212  0  4.018963  0  0  -0.020433  -0.036554  0  3.976728  0
C  C40  1  0.14676855  0.44119794  0.08954598  1  0  -0.062397  0  3.753107  0  0  -0.042201  0  3.99303  0  0  -0.051127  0  4.018311  0  0  -0.020612  -0.036468  0  3.976071  0
C  C41  1  0.35323415  0.44124885  0.41042540  1  0  -0.062744  0  3.754054  0  0  -0.042316  0  3.993761  0  0  -0.051252  0  4.019039  0  0  -0.02047  -0.036589  0  3.976809  0
C  C42  1  0.93100742  0.69830897  0.87981565  1  0  -0.05706  0  3.73566  0  0  -0.085672  0  3.98852  0  0  -0.084966  0  4.008185  0  0  -0.08925  -0.085944  0  3.975236  0
C  C43  1  0.56899750  0.69826832  0.62019014  1  0  -0.057182  0  3.735618  0  0  -0.085821  0  3.988436  0  0  -0.085124  0  4.008107  0  0  -0.089275  -0.086083  0  3.975151  0
C  C44  1  0.06902479  0.30166572  0.12019758  1  0  -0.057479  0  3.735371  0  0  -0.086014  0  3.988218  0  0  -0.08532  0  4.007888  0  0  -0.089172  -0.086282  0  3.974938  0
C  C45  1  0.43097018  0.30173302  0.37979767  1  0  -0.057141  0  3.735586  0  0  -0.085829  0  3.988391  0  0  -0.085131  0  4.00806  0  0  -0.089284  -0.086092  0  3.975109  0
C  C46  1  0.89660773  0.83858799  0.92646181  1  0  -0.17136  0  3.788546  0  0  -0.18787  0  4.045718  0  0  -0.192124  0  4.065366  0  0  -0.107793  -0.185178  0  4.032598  0
C  C47  1  0.60339307  0.83854208  0.57354236  1  0  -0.171254  0  3.788324  0  0  -0.18781  0  4.045498  0  0  -0.19206  0  4.065156  0  0  -0.107767  -0.185119  0  4.032373  0
C  C48  1  0.10341545  0.16139944  0.07354791  1  0  -0.17127  0  3.789169  0  0  -0.18782  0  4.046299  0  0  -0.192064  0  4.065943  0  0  -0.107875  -0.185138  0  4.033189  0
C  C49  1  0.39657988  0.16145926  0.42644572  1  0  -0.171117  0  3.78857  0  0  -0.187734  0  4.045714  0  0  -0.191987  0  4.065373  0  0  -0.10779  -0.185041  0  4.032585  0
C  C50  1  0.88427304  0.41748914  0.84742461  1  0  0.650821  0  3.889831  0  0  0.601195  0  4.184632  0  0  0.635189  0  4.178367  0  0  0.204237  0.578177  0  4.188154  0
C  C51  1  0.61572197  0.41746482  0.65257815  1  0  0.650995  0  3.889961  0  0  0.601418  0  4.184618  0  0  0.635407  0  4.17836  0  0  0.204354  0.578398  0  4.188143  0
C  C52  1  0.11571457  0.58252841  0.15258327  1  0  0.650169  0  3.890033  0  0  0.600696  0  4.184677  0  0  0.634687  0  4.178414  0  0  0.204117  0.577674  0  4.188196  0
C  C53  1  0.38426350  0.58253536  0.34742124  1  0  0.650963  0  3.89018  0  0  0.601356  0  4.184872  0  0  0.635347  0  4.178609  0  0  0.204243  0.578331  0  4.188408  0
S  S54  1  0.48451865  0.00383381  0.20812687  1  0  -0.400198  0  2.143963  0  0  -0.375567  0  2.512487  0  0  -0.393668  0  2.500496  0  0  -0.160192  -0.362795  0  2.52034  0
S  S55  1  0.01549316  0.00381265  0.29187510  1  0  -0.400319  0  2.143664  0  0  -0.375647  0  2.512158  0  0  -0.393752  0  2.500166  0  0  -0.160136  -0.362865  0  2.520006  0
S  S56  1  0.51550813  0.99615942  0.79186704  1  0  -0.40035  0  2.14327  0  0  -0.375698  0  2.511711  0  0  -0.393803  0  2.499707  0  0  -0.160229  -0.362929  0  2.519562  0
S  S57  1  0.98452253  0.99620953  0.70812737  1  0  -0.400422  0  2.144097  0  0  -0.375749  0  2.512565  0  0  -0.393854  0  2.500569  0  0  -0.160222  -0.362983  0  2.52042  0
N  N58  1  0.71033405  0.95250769  0.06092874  1  0  -0.380806  0  3.367  0  0  -0.326923  0  3.609161  0  0  -0.344173  0  3.617799  0  0  -0.377067  -0.315338  0  3.603131  0
N  N59  1  0.78966721  0.95247001  0.43907113  1  0  -0.380957  0  3.367653  0  0  -0.326882  0  3.60975  0  0  -0.344102  0  3.618315  0  0  -0.377007  -0.315297  0  3.603718  0
N  N60  1  0.28970098  0.04748090  0.93908159  1  0  -0.380745  0  3.367124  0  0  -0.326913  0  3.609393  0  0  -0.344138  0  3.61796  0  0  -0.37702  -0.315333  0  3.603369  0
N  N61  1  0.21033126  0.04752669  0.56093198  1  0  -0.38102  0  3.367772  0  0  -0.326967  0  3.60985  0  0  -0.344189  0  3.618424  0  0  -0.37708  -0.315386  0  3.603817  0
N  N62  1  0.60119214  0.73617940  0.11821653  1  0  -0.374267  0  3.313761  0  0  -0.311198  0  3.5418  0  0  -0.329392  0  3.550253  0  0  -0.36108  -0.298982  0  3.536004  0
N  N63  1  0.89880748  0.73615091  0.38179577  1  0  -0.374062  0  3.314001  0  0  -0.311452  0  3.542297  0  0  -0.329636  0  3.55085  0  0  -0.361287  -0.299253  0  3.536454  0
N  N64  1  0.39878587  0.26384626  0.88179694  1  0  -0.374139  0  3.3138  0  0  -0.311441  0  3.542198  0  0  -0.329681  0  3.550672  0  0  -0.361161  -0.299215  0  3.536395  0
N  N65  1  0.10118082  0.26385389  0.61820072  1  0  -0.373973  0  3.313705  0  0  -0.311524  0  3.542098  0  0  -0.329699  0  3.550643  0  0  -0.361337  -0.29934  0  3.536264  0
O  O66  1  0.98036661  0.43081492  0.77288079  1  0  -0.610472  0  1.966748  0  0  -0.560685  0  2.18637  0  0  -0.584298  0  2.177926  0  0  -0.315926  -0.544297  0  2.191734  0
O  O67  1  0.51959852  0.43078608  0.72711416  1  0  -0.610699  0  1.966428  0  0  -0.560877  0  2.186104  0  0  -0.584524  0  2.177631  0  0  -0.316101  -0.544465  0  2.191473  0
O  O68  1  0.01959929  0.56917946  0.22711454  1  0  -0.61008  0  1.966865  0  0  -0.560337  0  2.18639  0  0  -0.583947  0  2.177946  0  0  -0.315764  -0.543947  0  2.19175  0
O  O69  1  0.48038278  0.56923147  0.27288882  1  0  -0.610615  0  1.966636  0  0  -0.560817  0  2.186344  0  0  -0.584454  0  2.177879  0  0  -0.316021  -0.5444  0  2.191712  0
O  O70  1  0.80297849  0.29142482  0.87120969  1  0  -0.651888  0  2.055748  0  0  -0.587066  0  2.330026  0  0  -0.615712  0  2.318011  0  0  -0.345884  -0.567004  0  2.337475  0
O  O71  1  0.69700642  0.29142003  0.62879154  1  0  -0.65193  0  2.056136  0  0  -0.587171  0  2.330456  0  0  -0.615801  0  2.318404  0  0  -0.345881  -0.56713  0  2.337949  0
O  O72  1  0.19703902  0.70856377  0.12878450  1  0  -0.651897  0  2.05623  0  0  -0.586998  0  2.330336  0  0  -0.615649  0  2.318337  0  0  -0.345884  -0.566952  0  2.337816  0
O  O73  1  0.30297896  0.70858014  0.37120937  1  0  -0.651999  0  2.0559  0  0  -0.587188  0  2.330188  0  0  -0.615822  0  2.318138  0  0  -0.345869  -0.567143  0  2.337681  0
