# generated using pymatgen
data_AgH6C3N4Cl
_symmetry_space_group_name_H-M   'P 1'
_cell_length_a   6.34968080
_cell_length_b   6.94829990
_cell_length_c   15.05623997
_cell_angle_alpha   89.99990956
_cell_angle_beta   90.00051832
_cell_angle_gamma   89.99877460
_symmetry_Int_Tables_number   1
_chemical_formula_structural   AgH6C3N4Cl
_chemical_formula_sum   'Ag4 H24 C12 N16 Cl4'
_cell_volume   664.27357580
_cell_formula_units_Z   4
loop_
 _symmetry_equiv_pos_site_id
 _symmetry_equiv_pos_as_xyz
  1  'x, y, z'
loop_
 _atom_site_type_symbol
 _atom_site_label
 _atom_site_symmetry_multiplicity
 _atom_site_fract_x
 _atom_site_fract_y
 _atom_site_fract_z
 _atom_site_occupancy
 _atom_site_hle17_bader_spin_density
 _atom_site_hle17_ddec_charge
 _atom_site_hle17_ddec_spin_density
 _atom_site_hle17_ddec_sum_bond_order
 _atom_site_hle17_magmom
 _atom_site_hse06_10hf_bader_spin_density
 _atom_site_hse06_10hf_ddec_charge
 _atom_site_hse06_10hf_ddec_spin_density
 _atom_site_hse06_10hf_ddec_sum_bond_order
 _atom_site_hse06_10hf_magmom
 _atom_site_hse06_bader_spin_density
 _atom_site_hse06_ddec_charge
 _atom_site_hse06_ddec_spin_density
 _atom_site_hse06_ddec_sum_bond_order
 _atom_site_hse06_magmom
 _atom_site_pbe_bader_spin_density
 _atom_site_pbe_cm5_charge
 _atom_site_pbe_ddec_charge
 _atom_site_pbe_ddec_spin_density
 _atom_site_pbe_ddec_sum_bond_order
 _atom_site_pbe_magmom
Ag  Ag0  1  0.75000671  0.00638191  0.34138677  1  0  0.354868  0  1.716374  0  0  0.222172  0  2.201747  0  0  0.241769  0  2.164418  0  0  0.276339  0.208821  0  2.227407  0
Ag  Ag1  1  0.24997842  0.49361620  0.84139095  1  0  0.354966  0  1.716161  0  0  0.222258  0  2.201542  0  0  0.241852  0  2.164224  0  0  0.276372  0.208903  0  2.227205  0
Ag  Ag2  1  0.75000540  0.50637212  0.15860919  1  0  0.354967  0  1.716198  0  0  0.222198  0  2.201698  0  0  0.241803  0  2.164362  0  0  0.276378  0.208846  0  2.227366  0
Ag  Ag3  1  0.24999758  0.99362368  0.65860939  1  0  0.354984  0  1.716167  0  0  0.222236  0  2.201628  0  0  0.241824  0  2.164315  0  0  0.276394  0.208881  0  2.227287  0
H  H4  1  0.74999614  0.63956252  0.45661448  1  0  0.121126  0  0.976284  0  0  0.134232  0  1.051672  0  0  0.136685  0  1.049323  0  0  0.096922  0.132345  0  1.053527  0
H  H5  1  0.24999918  0.86044677  0.95661147  1  0  0.121372  0  0.9762  0  0  0.134474  0  1.051549  0  0  0.136926  0  1.049204  0  0  0.09699  0.132585  0  1.053402  0
H  H6  1  0.75001456  0.13956170  0.04338867  1  0  0.121177  0  0.976296  0  0  0.134268  0  1.0517  0  0  0.136722  0  1.049346  0  0  0.096977  0.13238  0  1.053562  0
H  H7  1  0.24999871  0.36044019  0.54339230  1  0  0.121169  0  0.97619  0  0  0.13425  0  1.051599  0  0  0.136704  0  1.049252  0  0  0.096937  0.132361  0  1.053451  0
H  H8  1  0.89210239  0.60782078  0.55861566  1  0  0.124405  0  0.936315  0  0  0.141656  0  1.002254  0  0  0.142365  0  1.002622  0  0  0.108402  0.141033  0  1.00215  0
H  H9  1  0.10791416  0.89219260  0.05861541  1  0  0.12438  0  0.936357  0  0  0.141645  0  1.002259  0  0  0.142356  0  1.002623  0  0  0.108381  0.141022  0  1.002154  0
H  H10  1  0.60789790  0.10782164  0.94138752  1  0  0.124459  0  0.936273  0  0  0.141709  0  1.002213  0  0  0.142417  0  1.002578  0  0  0.108429  0.141087  0  1.002109  0
H  H11  1  0.39209572  0.39217041  0.44138368  1  0  0.124393  0  0.936287  0  0  0.141618  0  1.002241  0  0  0.142327  0  1.002607  0  0  0.108378  0.140996  0  1.002138  0
H  H12  1  0.10790191  0.39217330  0.44138382  1  0  0.12439  0  0.936282  0  0  0.141607  0  1.002241  0  0  0.142315  0  1.002607  0  0  0.108378  0.140986  0  1.002138  0
H  H13  1  0.89210904  0.10783170  0.94138938  1  0  0.124433  0  0.93632  0  0  0.1417  0  1.002247  0  0  0.142395  0  1.002628  0  0  0.108388  0.141078  0  1.002143  0
H  H14  1  0.39208277  0.89218108  0.05861129  1  0  0.124356  0  0.936486  0  0  0.141623  0  1.002374  0  0  0.142335  0  1.002737  0  0  0.108385  0.141  0  1.002269  0
H  H15  1  0.60790385  0.60782655  0.55861247  1  0  0.124403  0  0.936343  0  0  0.141652  0  1.002267  0  0  0.142358  0  1.002638  0  0  0.108375  0.141028  0  1.002164  0
H  H16  1  0.75002814  0.17632789  0.74749141  1  0  0.130521  0  0.943744  0  0  0.148723  0  1.006761  0  0  0.149553  0  1.007364  0  0  0.116809  0.148044  0  1.006411  0
H  H17  1  0.25001164  0.32368633  0.24749374  1  0  0.130448  0  0.943752  0  0  0.148607  0  1.006793  0  0  0.149435  0  1.007388  0  0  0.116734  0.147932  0  1.006444  0
H  H18  1  0.74995329  0.67632214  0.75250574  1  0  0.130504  0  0.943764  0  0  0.14863  0  1.006843  0  0  0.149462  0  1.007445  0  0  0.11673  0.147952  0  1.006492  0
H  H19  1  0.25002025  0.82367914  0.25251006  1  0  0.130532  0  0.943787  0  0  0.148656  0  1.006867  0  0  0.149488  0  1.007462  0  0  0.116761  0.147981  0  1.006518  0
H  H20  1  0.89319175  0.35011437  0.68384026  1  0  0.127885  0  0.959769  0  0  0.140247  0  1.034188  0  0  0.142271  0  1.032615  0  0  0.102782  0.138685  0  1.03548  0
H  H21  1  0.10682617  0.14988278  0.18385149  1  0  0.127903  0  0.959903  0  0  0.140242  0  1.034279  0  0  0.142262  0  1.032694  0  0  0.102798  0.13868  0  1.035573  0
H  H22  1  0.60678735  0.85010845  0.81615011  1  0  0.12784  0  0.959881  0  0  0.140171  0  1.034282  0  0  0.142195  0  1.032708  0  0  0.102739  0.13861  0  1.035577  0
H  H23  1  0.39320490  0.64988975  0.31615245  1  0  0.127872  0  0.959829  0  0  0.14022  0  1.034243  0  0  0.142244  0  1.032659  0  0  0.102778  0.138658  0  1.035539  0
H  H24  1  0.10682515  0.64988690  0.31614859  1  0  0.127845  0  0.959713  0  0  0.140203  0  1.034092  0  0  0.142224  0  1.03251  0  0  0.102769  0.138641  0  1.035388  0
H  H25  1  0.89315135  0.85011130  0.81614401  1  0  0.127892  0  0.959821  0  0  0.140275  0  1.034103  0  0  0.142297  0  1.032531  0  0  0.102785  0.138714  0  1.035396  0
H  H26  1  0.39318859  0.14988994  0.18384870  1  0  0.127874  0  0.959832  0  0  0.140202  0  1.034237  0  0  0.142222  0  1.032652  0  0  0.102767  0.138642  0  1.035533  0
H  H27  1  0.60683089  0.35011584  0.68384437  1  0  0.12785  0  0.959835  0  0  0.140239  0  1.034165  0  0  0.142259  0  1.032594  0  0  0.102778  0.138678  0  1.035458  0
C  C28  1  0.75000018  0.02125872  0.47903002  1  0  -0.085182  0  3.521616  0  0  -0.104591  0  3.906632  0  0  -0.103487  0  3.916864  0  0  0.049048  -0.104972  0  3.899473  0
C  C29  1  0.24999269  0.47871307  0.97903688  1  0  -0.085247  0  3.521427  0  0  -0.104667  0  3.906433  0  0  -0.103564  0  3.916664  0  0  0.049025  -0.105043  0  3.89927  0
C  C30  1  0.75002420  0.52123928  0.02096393  1  0  -0.085245  0  3.521589  0  0  -0.104681  0  3.906498  0  0  -0.10358  0  3.916729  0  0  0.049048  -0.105062  0  3.899342  0
C  C31  1  0.24998522  0.97877710  0.52096281  1  0  -0.085127  0  3.522079  0  0  -0.10456  0  3.907016  0  0  -0.103458  0  3.917252  0  0  0.049046  -0.104937  0  3.899848  0
C  C32  1  0.75000289  0.66836658  0.52810709  1  0  -0.201995  0  3.595972  0  0  -0.308708  0  3.845365  0  0  -0.306826  0  3.853248  0  0  -0.1333  -0.309681  0  3.840213  0
C  C33  1  0.24999566  0.83162963  0.02810210  1  0  -0.202183  0  3.596138  0  0  -0.308908  0  3.845486  0  0  -0.307027  0  3.853361  0  0  -0.13335  -0.309898  0  3.840384  0
C  C34  1  0.75000076  0.16836877  0.97189339  1  0  -0.202206  0  3.596066  0  0  -0.309008  0  3.845532  0  0  -0.307126  0  3.853443  0  0  -0.133446  -0.309959  0  3.840338  0
C  C35  1  0.24999983  0.33162174  0.47189372  1  0  -0.202094  0  3.596122  0  0  -0.308754  0  3.845496  0  0  -0.306874  0  3.853377  0  0  -0.133336  -0.309714  0  3.84032  0
C  C36  1  0.75001550  0.26158193  0.68674248  1  0  -0.238544  0  3.616971  0  0  -0.353764  0  3.860561  0  0  -0.352766  0  3.866118  0  0  -0.129194  -0.354093  0  3.856924  0
C  C37  1  0.25000406  0.23841377  0.18675085  1  0  -0.238409  0  3.616821  0  0  -0.353426  0  3.860275  0  0  -0.352482  0  3.86598  0  0  -0.128988  -0.353742  0  3.856612  0
C  C38  1  0.74997032  0.76156736  0.81325527  1  0  -0.238708  0  3.617003  0  0  -0.353678  0  3.860484  0  0  -0.352683  0  3.866048  0  0  -0.12911  -0.353994  0  3.856815  0
C  C39  1  0.25001085  0.73843373  0.31325833  1  0  -0.238697  0  3.616874  0  0  -0.353647  0  3.860376  0  0  -0.352688  0  3.866033  0  0  -0.129166  -0.353963  0  3.856716  0
N  N40  1  0.75000071  0.87583313  0.54114745  1  0  0.095142  0  3.616323  0  0  0.182076  0  3.85649  0  0  0.173585  0  3.880446  0  0  -0.115622  0.187445  0  3.840433  0
N  N41  1  0.24999813  0.62415583  0.04114595  1  0  0.095234  0  3.616233  0  0  0.18216  0  3.856408  0  0  0.173672  0  3.880361  0  0  -0.115503  0.187533  0  3.840344  0
N  N42  1  0.74999514  0.37581810  0.95885220  1  0  0.095003  0  3.616436  0  0  0.182091  0  3.85637  0  0  0.173604  0  3.880318  0  0  -0.115669  0.187458  0  3.840319  0
N  N43  1  0.25000201  0.12418541  0.45885270  1  0  0.094778  0  3.616852  0  0  0.181879  0  3.856733  0  0  0.173388  0  3.88069  0  0  -0.115754  0.187245  0  3.840678  0
N  N44  1  0.75000400  0.94342508  0.62393502  1  0  -0.114521  0  2.803679  0  0  -0.121227  0  3.056283  0  0  -0.117427  0  3.062875  0  0  -0.055195  -0.123768  0  3.05244  0
N  N45  1  0.25001082  0.55657802  0.12393557  1  0  -0.114658  0  2.803715  0  0  -0.121318  0  3.05638  0  0  -0.117508  0  3.062971  0  0  -0.055287  -0.123859  0  3.052542  0
N  N46  1  0.74998717  0.44342037  0.87606192  1  0  -0.114532  0  2.803802  0  0  -0.121156  0  3.05649  0  0  -0.11736  0  3.063084  0  0  -0.055222  -0.123695  0  3.052645  0
N  N47  1  0.25000502  0.05658339  0.37605981  1  0  -0.114455  0  2.803545  0  0  -0.121147  0  3.056359  0  0  -0.117338  0  3.06295  0  0  -0.055196  -0.123691  0  3.052525  0
N  N48  1  0.75000829  0.12953536  0.61200608  1  0  0.22556  0  3.663976  0  0  0.327583  0  3.88282  0  0  0.32762  0  3.901312  0  0  -0.00078  0.327312  0  3.871062  0
N  N49  1  0.25000018  0.37046921  0.11201567  1  0  0.225574  0  3.663823  0  0  0.327394  0  3.882847  0  0  0.327428  0  3.901313  0  0  -0.000859  0.327124  0  3.871099  0
N  N50  1  0.74998049  0.62951624  0.88799908  1  0  0.226123  0  3.664293  0  0  0.327724  0  3.883498  0  0  0.327765  0  3.901991  0  0  -0.000659  0.327453  0  3.871742  0
N  N51  1  0.25000861  0.87048462  0.38800336  1  0  0.226192  0  3.664351  0  0  0.327792  0  3.88361  0  0  0.327833  0  3.90209  0  0  -0.00058  0.327517  0  3.871858  0
N  N52  1  0.75000673  0.18570606  0.52689848  1  0  -0.221216  0  2.866421  0  0  -0.216959  0  3.136507  0  0  -0.225366  0  3.152119  0  0  -0.198634  -0.211554  0  3.126337  0
N  N53  1  0.24999201  0.31427286  0.02691410  1  0  -0.221281  0  2.866198  0  0  -0.216934  0  3.136302  0  0  -0.225332  0  3.151906  0  0  -0.19875  -0.211527  0  3.126134  0
N  N54  1  0.74998866  0.68568812  0.97309800  1  0  -0.221378  0  2.866721  0  0  -0.21698  0  3.136859  0  0  -0.225386  0  3.152472  0  0  -0.198647  -0.211572  0  3.126687  0
N  N55  1  0.25000544  0.81432831  0.47310299  1  0  -0.221422  0  2.867209  0  0  -0.217035  0  3.137368  0  0  -0.225434  0  3.152979  0  0  -0.198683  -0.21163  0  3.127195  0
Cl  Cl56  1  0.75000870  0.94194481  0.18731804  1  0  -0.570314  0  1.104003  0  0  -0.473282  0  1.437483  0  0  -0.492521  0  1.409624  0  0  -0.328716  -0.459291  0  1.456579  0
Cl  Cl57  1  0.24999964  0.55805378  0.68731726  1  0  -0.570354  0  1.103908  0  0  -0.473328  0  1.43738  0  0  -0.492584  0  1.409541  0  0  -0.328714  -0.459338  0  1.456471  0
Cl  Cl58  1  0.75000781  0.44194461  0.31267823  1  0  -0.570305  0  1.104012  0  0  -0.473293  0  1.43753  0  0  -0.492533  0  1.40967  0  0  -0.328717  -0.4593  0  1.456623  0
Cl  Cl59  1  0.24996883  0.05805358  0.81267944  1  0  -0.570349  0  1.10393  0  0  -0.473359  0  1.437458  0  0  -0.492609  0  1.409617  0  0  -0.328743  -0.459373  0  1.456563  0
