# generated using pymatgen
data_Cu3H34C48(N6O7)2
_symmetry_space_group_name_H-M   'P 1'
_cell_length_a   12.01304322
_cell_length_b   11.64264249
_cell_length_c   12.69162782
_cell_angle_alpha   75.21411034
_cell_angle_beta   86.78419102
_cell_angle_gamma   59.84796931
_symmetry_Int_Tables_number   1
_chemical_formula_structural   Cu3H34C48(N6O7)2
_chemical_formula_sum   'Cu3 H34 C48 N12 O14'
_cell_volume   1478.56346836
_cell_formula_units_Z   1
loop_
 _symmetry_equiv_pos_site_id
 _symmetry_equiv_pos_as_xyz
  1  'x, y, z'
loop_
 _atom_site_type_symbol
 _atom_site_label
 _atom_site_symmetry_multiplicity
 _atom_site_fract_x
 _atom_site_fract_y
 _atom_site_fract_z
 _atom_site_occupancy
 _atom_site_pbe_bader_charge
 _atom_site_pbe_bader_spin_density
 _atom_site_pbe_cm5_charge
 _atom_site_pbe_ddec_charge
 _atom_site_pbe_ddec_spin_density
 _atom_site_pbe_ddec_sum_bond_order
 _atom_site_pbe_magmom
Cu  Cu0  1  0.96361334  0.39095955  0.25548456  1  1.081853  -0.573117  0.752713  0.796412  -0.776096  2.231297  -0.572
Cu  Cu1  1  0.92687226  0.91689741  0.79988562  1  1.046568  0.558445  0.738698  0.75886  0.733671  2.23821  0.558
Cu  Cu2  1  0.41210943  0.90788684  0.27430689  1  1.078998  0.578143  0.741457  0.791333  0.757514  2.21617  0.578
H  H3  1  0.90757538  0.66406534  0.52598958  1  0.124245  -4.7e-05  0.105345  0.109157  -2e-05  1.032744  0.0
H  H4  1  0.14624204  0.84743835  0.50399521  1  0.08216  0.000813  0.096648  0.099093  0.000689  1.040045  0.0
H  H5  1  0.15440025  0.64131073  0.26435647  1  0.122869  -0.000505  0.107113  0.115765  -0.000434  1.010168  0.0
H  H6  1  0.59271524  0.24229284  0.29049853  1  0.113836  -5.6e-05  0.105039  0.113588  -3e-05  1.004996  0.0
H  H7  1  0.87652268  0.20943389  0.05941369  1  0.104151  -0.00019  0.105647  0.111676  -0.000189  1.023532  0.0
H  H8  1  0.66660295  0.99917057  0.06269934  1  0.078827  0.000967  0.101001  0.111128  0.000812  1.012829  0.0
H  H9  1  0.10022775  0.12120861  0.78128243  1  0.14634  1e-05  0.123336  0.154524  6e-06  0.989876  0.0
H  H10  1  0.45687274  0.08223304  0.88405512  1  0.084715  1.9e-05  0.120286  0.135528  -1e-06  1.007114  0.0
H  H11  1  0.36799182  0.13780561  0.54359250  1  0.115814  2e-05  0.123239  0.147016  2e-05  0.99337  0.0
H  H12  1  0.16740561  0.31781632  0.44499790  1  0.147913  -0.000277  0.145478  0.116979  -3.3e-05  0.98969  0.0
H  H13  1  0.92155418  0.16271626  0.42634250  1  0.122171  -0.000735  0.126407  0.123502  -0.000309  1.000946  -0.001
H  H14  1  0.05129034  0.04267535  0.63325472  1  0.156485  -0.001106  0.11953  0.120773  -0.0007  1.074032  0.0
H  H15  1  0.45238084  0.95190307  0.03440231  1  0.126663  0.000356  0.140753  0.113172  9e-05  1.003639  0.0
H  H16  1  0.04658149  0.15615352  0.95160749  1  0.188228  0.001017  0.125548  0.1408  0.00055  1.029407  0.001
H  H17  1  0.09806589  0.07790050  0.17645949  1  0.165297  0.000572  0.127185  0.132165  0.000164  0.998699  0.001
H  H18  1  0.65657715  0.97034463  0.84682481  1  0.175268  0.000248  0.140817  0.110813  1.7e-05  1.009755  0.0
H  H19  1  0.77363877  0.13250166  0.55568032  1  0.117377  0.000613  0.129373  0.12604  0.00023  0.994825  0.001
H  H20  1  0.51659454  0.21280619  0.51907135  1  0.15078  0.001141  0.138382  0.14565  0.000583  0.981835  0.001
H  H21  1  0.52056411  0.68104398  0.02005875  1  0.162404  1e-05  0.117119  0.144279  1.8e-05  1.028671  0.0
H  H22  1  0.74819067  0.70419041  0.74766906  1  0.15159  5e-06  0.120631  0.154803  3.1e-05  1.02431  0.0
H  H23  1  0.34962520  0.82828667  0.68768021  1  0.098328  2e-05  0.110346  0.11851  7e-06  1.042898  0.0
H  H24  1  0.20515823  0.80102151  0.73934907  1  0.152039  0.000189  0.1361  0.108154  1.4e-05  1.028044  0.0
H  H25  1  0.06965368  0.80327647  0.05161919  1  0.138406  0.000522  0.131195  0.131808  0.000206  0.981633  0.001
H  H26  1  0.32236232  0.73900910  0.07037315  1  0.185032  0.000882  0.131187  0.147788  0.000452  1.030022  0.001
H  H27  1  0.70121136  0.53983606  0.11063533  1  0.194437  -0.000549  0.14034  0.10928  -0.000139  1.042282  0.0
H  H28  1  0.87741099  0.69570837  0.85838468  1  0.186212  -0.001206  0.116464  0.118118  -0.00077  1.089988  -0.001
H  H29  1  0.04413584  0.55126853  0.04742391  1  0.14724  -0.000801  0.12709  0.128728  -0.000361  0.991711  -0.001
H  H30  1  0.38937556  0.81137608  0.52502123  1  0.170325  0.000238  0.13652  0.110917  3.5e-05  1.013363  0.0
H  H31  1  0.73510318  0.81076133  0.58648467  1  0.178076  0.000733  0.121534  0.129714  0.000374  1.061935  0.001
H  H32  1  0.68427568  0.86037401  0.36417641  1  0.145614  0.000611  0.129421  0.129145  0.000243  0.991281  0.001
H  H33  1  0.17561176  0.38861449  0.20934631  1  0.622333  5.2e-05  0.28062  0.371994  7.1e-05  0.963348  0.0
H  H34  1  0.28477410  0.23997827  0.22024181  1  0.629448  -7e-06  0.269512  0.37117  -0.000103  0.975435  0.0
H  H35  1  0.46162130  0.68932607  0.22446398  1  0.636434  1.6e-05  0.272697  0.361479  -2.7e-05  0.997345  0.0
H  H36  1  0.61061967  0.61874196  0.25503652  1  0.617202  -8.7e-05  0.301311  0.407494  -3.3e-05  0.895411  0.0
C  C37  1  0.02009525  0.65145410  0.38768011  1  -0.003874  -0.007506  -0.018908  -0.02766  -0.005514  3.982835  -0.006
C  C38  1  0.97698646  0.68965187  0.48439612  1  -0.069975  -0.000894  -0.075182  -0.097282  -0.000597  3.925904  0.0
C  C39  1  0.02315482  0.75817155  0.52804486  1  -0.02465  0.007405  -0.026684  -0.046383  0.005268  3.998225  0.006
C  C40  1  0.11266758  0.79009770  0.47303789  1  -0.044097  -0.00018  -0.080685  -0.102513  5.8e-05  3.929954  0.0
C  C41  1  0.16057627  0.74697835  0.37857075  1  -0.0222  0.010017  -0.020647  -0.035277  0.007047  3.973788  0.008
C  C42  1  0.11479316  0.67659168  0.33672405  1  -0.044864  0.000186  -0.072396  -0.095285  5e-06  3.911988  0.001
C  C43  1  0.96484946  0.58031432  0.34407541  1  1.559159  0.001658  0.190043  0.550406  0.000138  4.253149  0.003
C  C44  1  0.97566155  0.79367830  0.63346566  1  1.540785  -0.001184  0.200046  0.568828  -1.8e-05  4.205094  -0.003
C  C45  1  0.26415128  0.76974559  0.32197833  1  1.567076  -0.000665  0.20831  0.57352  0.000726  4.197539  -0.002
C  C46  1  0.61805789  0.11849101  0.18031743  1  -0.020492  0.0104  -0.020396  -0.034459  0.007285  3.973573  0.008
C  C47  1  0.64582627  0.20114762  0.22400565  1  -0.025862  -0.001849  -0.071686  -0.093748  -0.001254  3.908839  -0.001
C  C48  1  0.74307657  0.22868562  0.18346221  1  -0.051799  -0.007399  -0.021192  -0.030166  -0.005441  3.985991  -0.006
C  C49  1  0.80463828  0.18315704  0.09344265  1  -0.021216  -0.000417  -0.077243  -0.100978  -0.00042  3.928297  0.0
C  C50  1  0.77516792  0.10381536  0.04733375  1  -0.053662  0.009964  -0.023742  -0.033726  0.00707  3.995718  0.008
C  C51  1  0.68512134  0.06743741  0.09372194  1  0.002708  -0.001414  -0.079344  -0.10037  -0.000705  3.916688  -0.001
C  C52  1  0.51806701  0.08312420  0.22770838  1  1.552734  -0.001029  0.199977  0.558256  0.000502  4.230325  -0.003
C  C53  1  0.78345280  0.30647285  0.23491516  1  1.551892  0.000982  0.190626  0.544995  -0.000796  4.266209  0.003
C  C54  1  0.84271564  0.05729633  0.95057586  1  1.53911  -0.001838  0.191213  0.556665  -0.000499  4.219692  -0.004
C  C55  1  0.22362139  0.13934854  0.65417141  1  0.382481  -0.000517  0.106671  0.212918  -0.000446  4.030228  0.0
C  C56  1  0.19180405  0.11679911  0.76244976  1  -0.074185  -0.000403  -0.085124  -0.259104  -0.000282  3.879467  0.0
C  C57  1  0.27995701  0.09057574  0.84546165  1  0.350934  0.00065  0.111398  0.223839  0.000495  4.01793  0.001
C  C58  1  0.39456554  0.09103073  0.81999510  1  0.094112  -0.000515  -0.089806  -0.272358  -0.000358  3.939617  0.0
C  C59  1  0.42631403  0.10740293  0.71189518  1  0.267899  0.000822  0.103668  0.212935  0.000622  4.048357  0.001
C  C60  1  0.34177041  0.13080289  0.62765582  1  0.031473  -0.000152  -0.090466  -0.276119  -6e-05  3.936827  0.0
C  C61  1  0.11892842  0.25891381  0.46681629  1  0.993365  0.002405  0.155169  0.118295  0.001056  3.865334  0.001
C  C62  1  0.99135009  0.17744307  0.46243301  1  0.383599  -0.000507  0.014956  0.004608  -0.000856  3.947812  -0.001
C  C63  1  0.05454854  0.11838105  0.56507271  1  0.328278  -0.003021  -0.001216  -0.108639  -0.002125  3.897397  -0.002
C  C64  1  0.34963909  0.99866534  0.04222133  1  1.013168  -0.003448  0.14686  0.107247  -0.002131  3.882836  -0.002
C  C65  1  0.13719776  0.10501916  0.00172472  1  0.253053  0.004201  0.006974  -0.096418  0.002846  3.858255  0.003
C  C66  1  0.16451067  0.06218611  0.11298672  1  0.416817  0.002112  0.016869  0.008387  0.002238  3.918385  0.002
C  C67  1  0.65334731  0.02647490  0.76365609  1  0.959742  -0.002366  0.147883  0.106326  -0.001369  3.886835  -0.001
C  C68  1  0.71068625  0.11036234  0.61081404  1  0.413606  0.002349  0.014348  -0.00421  0.002425  3.952773  0.002
C  C69  1  0.58347677  0.15056085  0.59148790  1  0.323182  0.003947  0.013259  -0.093237  0.002711  3.877032  0.003
C  C70  1  0.42409486  0.74844979  0.85768385  1  0.262275  0.000732  0.102291  0.212272  0.000568  4.033741  0.001
C  C71  1  0.52841540  0.70295869  0.93200979  1  0.01209  0.000477  -0.09315  -0.274793  0.000345  3.907388  0.0
C  C72  1  0.64411210  0.68887009  0.89033143  1  0.287625  -0.000638  0.10692  0.219066  -0.00052  4.02265  -0.001
C  C73  1  0.65632006  0.72004884  0.77802682  1  0.050343  0.000184  -0.092898  -0.27227  0.000117  3.905264  0.0
C  C74  1  0.54912635  0.76890457  0.70605150  1  0.261102  0.000628  0.103956  0.218183  0.000487  4.055326  0.001
C  C75  1  0.43309420  0.78434390  0.74509085  1  0.074146  0.000112  -0.103207  -0.292732  6.1e-05  3.99301  0.0
C  C76  1  0.20330942  0.79484302  0.82575484  1  0.952731  -0.000422  0.137781  0.091305  0.000164  3.908347  0.0
C  C77  1  0.13678477  0.79284584  0.98913264  1  0.420168  0.002129  0.012283  -0.003189  0.002086  3.94424  0.002
C  C78  1  0.26279790  0.76106149  0.99867071  1  0.28062  0.003451  0.01165  -0.08634  0.002358  3.848331  0.002
C  C79  1  0.77224403  0.56144694  0.06879975  1  0.970979  0.002428  0.153843  0.124035  0.001024  3.855207  0.001
C  C80  1  0.86544353  0.64383874  0.93861210  1  0.252877  -0.003993  -0.003133  -0.10693  -0.002846  3.886663  -0.003
C  C81  1  0.94725089  0.57180828  0.03201975  1  0.405722  -0.001229  0.012958  0.004712  -0.00155  3.934082  -0.001
C  C82  1  0.47474610  0.82039405  0.51204634  1  0.944739  -0.002088  0.14325  0.099583  -0.000931  3.885952  -0.001
C  C83  1  0.65613832  0.81996669  0.54069961  1  0.215047  0.003526  0.000153  -0.107464  0.002382  3.873777  0.002
C  C84  1  0.62896407  0.84613658  0.43121071  1  0.476542  0.000972  0.018283  0.02621  0.001168  3.937253  0.001
N  N85  1  0.03149827  0.26532250  0.40306251  1  -1.174458  -0.069314  -0.364026  -0.265146  -0.049129  3.633835  -0.06
N  N86  1  0.13612559  0.17035165  0.56695142  1  -1.262624  -0.002296  -0.226103  0.001863  -0.00154  3.79052  -0.002
N  N87  1  0.25568182  0.06518843  0.95692856  1  -1.253313  0.001938  -0.224275  -4e-06  0.001271  3.775769  0.002
N  N88  1  0.29702434  0.99608129  0.13636483  1  -1.175184  0.076249  -0.362614  -0.259971  0.052272  3.60684  0.067
N  N89  1  0.54760559  0.09677147  0.68948666  1  -1.251615  0.002246  -0.220223  0.00903  0.001437  3.777977  0.002
N  N90  1  0.75239476  0.03338598  0.71823911  1  -1.192512  0.078244  -0.365683  -0.267936  0.053671  3.630431  0.068
N  N91  1  0.30426100  0.76401433  0.89376864  1  -1.236303  0.00295  -0.220196  0.013124  0.001859  3.761199  0.002
N  N92  1  0.10107150  0.81389748  0.88085816  1  -1.187937  0.07623  -0.371222  -0.284222  0.052396  3.62901  0.066
N  N93  1  0.75354713  0.63749167  0.96300684  1  -1.247583  -0.002326  -0.223258  0.007868  -0.001519  3.761612  -0.002
N  N94  1  0.88810474  0.52056707  0.11152560  1  -1.185937  -0.077955  -0.368587  -0.259459  -0.054875  3.620363  -0.068
N  N95  1  0.55791910  0.80299342  0.59200752  1  -1.250802  0.002519  -0.225484  0.006777  0.001624  3.786047  0.002
N  N96  1  0.51556120  0.84710619  0.41465242  1  -1.166033  0.072892  -0.362778  -0.270408  0.049947  3.622633  0.063
O  O97  1  0.03878286  0.50236998  0.28223419  1  -1.129503  -0.117914  -0.336319  -0.573501  -0.0795  2.356771  -0.106
O  O98  1  0.85854203  0.59345490  0.37025151  1  -1.155711  -0.000371  -0.322947  -0.543225  -1.4e-05  2.109496  -0.001
O  O99  1  0.90884970  0.74816802  0.68752064  1  -1.187104  0.000388  -0.323835  -0.568325  1.3e-05  2.204016  0.001
O  O100  1  0.00731160  0.87311352  0.66353356  1  -1.128105  0.105713  -0.335314  -0.5624  0.069282  2.370189  0.096
O  O101  1  0.29107901  0.85060778  0.35395300  1  -1.125544  0.104941  -0.331397  -0.563095  0.068688  2.3337  0.096
O  O102  1  0.31745636  0.70829980  0.24924259  1  -1.180813  0.001428  -0.311941  -0.540365  0.000691  2.20115  0.002
O  O103  1  0.52069782  0.98282104  0.19885297  1  -1.100288  0.124821  -0.323783  -0.537869  0.081231  2.341414  0.113
O  O104  1  0.44216354  0.14720008  0.29119951  1  -1.192382  0.001876  -0.336049  -0.582703  0.00086  2.165567  0.002
O  O105  1  0.70621444  0.39264375  0.28347093  1  -1.176576  -0.001273  -0.337614  -0.571139  -0.000554  2.101146  -0.001
O  O106  1  0.90284789  0.27447938  0.22151791  1  -1.112081  -0.114892  -0.332202  -0.559595  -0.077303  2.369799  -0.104
O  O107  1  0.89570172  0.11668598  0.89142164  1  -1.179353  0.001313  -0.340133  -0.581005  0.00054  2.121548  0.002
O  O108  1  0.84234355  0.95114462  0.93459590  1  -1.09923  0.137569  -0.335496  -0.551204  0.089478  2.326117  0.123
O  O109  1  0.20102852  0.31085216  0.17845018  1  -1.273412  0.00132  -0.627417  -0.806498  0.000821  1.91305  0.001
O  O110  1  0.53888231  0.69998387  0.20663651  1  -1.256575  -0.001321  -0.601719  -0.798889  -0.000735  2.000083  0.0
