# generated using pymatgen
data_ZnH17C25N3O5
_symmetry_space_group_name_H-M   'P 1'
_cell_length_a   10.43325704
_cell_length_b   15.76747239
_cell_length_c   15.76747090
_cell_angle_alpha   75.36281286
_cell_angle_beta   70.77911931
_cell_angle_gamma   70.77932296
_symmetry_Int_Tables_number   1
_chemical_formula_structural   ZnH17C25N3O5
_chemical_formula_sum   'Zn4 H68 C100 N12 O20'
_cell_volume   2282.23099318
_cell_formula_units_Z   4
loop_
 _symmetry_equiv_pos_site_id
 _symmetry_equiv_pos_as_xyz
  1  'x, y, z'
loop_
 _atom_site_type_symbol
 _atom_site_label
 _atom_site_symmetry_multiplicity
 _atom_site_fract_x
 _atom_site_fract_y
 _atom_site_fract_z
 _atom_site_occupancy
 _atom_site_pbe_bader_charge
 _atom_site_pbe_bader_spin_density
 _atom_site_pbe_cm5_charge
 _atom_site_pbe_ddec_charge
 _atom_site_pbe_ddec_spin_density
 _atom_site_pbe_ddec_sum_bond_order
 _atom_site_pbe_magmom
Zn  Zn0  1  0.30398919  0.73637034  0.33846377  1  1.23761  0  0.688714  0.737732  0  2.392256  0
Zn  Zn1  1  0.80398817  0.33846422  0.73636784  1  1.237474  0  0.688714  0.73772  0  2.392262  0
Zn  Zn2  1  0.85306448  0.78958417  0.18726572  1  1.239083  0  0.689355  0.738005  0  2.393152  0
Zn  Zn3  1  0.35306144  0.18726139  0.78958907  1  1.239132  0  0.68935  0.738006  0  2.393148  0
H  H4  1  0.39782084  0.78236466  0.12284489  1  0.51957  0  0.31489  0.292621  0  0.965351  0
H  H5  1  0.89781961  0.12284263  0.78236544  1  0.519544  0  0.314845  0.292512  0  0.965469  0
H  H6  1  0.77766603  0.74268416  0.40266998  1  0.531422  0  0.315105  0.292695  0  0.966339  0
H  H7  1  0.27766418  0.40266644  0.74268834  1  0.531403  0  0.315144  0.292719  0  0.966264  0
H  H8  1  0.76650723  0.98223198  0.11570610  1  0.136058  0  0.11594  0.086125  0  1.066641  0
H  H9  1  0.26650762  0.11569622  0.98223286  1  0.136016  0  0.115871  0.086001  0  1.066769  0
H  H10  1  0.62281758  0.08529327  0.01012597  1  0.140909  0  0.113852  0.13041  0  1.021772  0
H  H11  1  0.12280970  0.01011993  0.08529385  1  0.140916  0  0.11386  0.130443  0  1.021754  0
H  H12  1  0.49290569  0.01776780  0.94863960  1  0.10076  0  0.112232  0.109405  0  1.02679  0
H  H13  1  0.99289638  0.94863611  0.01776649  1  0.100598  0  0.112248  0.109432  0  1.026765  0
H  H14  1  0.64876029  0.75848111  0.10717236  1  0.179184  0  0.122157  0.107226  0  1.020787  0
H  H15  1  0.14876094  0.10716626  0.75848054  1  0.179233  0  0.122154  0.107257  0  1.020791  0
H  H16  1  0.40496498  0.72538195  0.91167557  1  0.133351  0  0.120475  0.133176  0  0.969074  0
H  H17  1  0.90496485  0.91167801  0.72537672  1  0.133378  0  0.120484  0.133187  0  0.969136  0
H  H18  1  0.19952924  0.68823154  0.89348622  1  0.084427  0  0.11755  0.12341  0  0.970205  0
H  H19  1  0.69952678  0.89348632  0.68823076  1  0.084354  0  0.117532  0.123376  0  0.97016  0
H  H20  1  0.97135435  0.71317779  0.01622170  1  0.129421  0  0.122957  0.10157  0  0.99742  0
H  H21  1  0.47135138  0.01622025  0.71317919  1  0.129365  0  0.122971  0.101589  0  0.997379  0
H  H22  1  0.13988657  0.80675735  0.16819095  1  0.148512  0  0.121936  0.113452  0  1.020877  0
H  H23  1  0.63988454  0.16819088  0.80675518  1  0.148242  0  0.121964  0.113477  0  1.020895  0
H  H24  1  0.98928390  0.54458843  0.33790720  1  0.069791  0  0.095108  0.095731  0  1.027194  0
H  H25  1  0.48927424  0.33791327  0.54459316  1  0.069658  0  0.095097  0.095646  0  1.027303  0
H  H26  1  0.05557038  0.38374346  0.41545899  1  0.120109  0  0.096003  0.100055  0  1.051385  0
H  H27  1  0.55555039  0.41547193  0.38374928  1  0.120095  0  0.096  0.100061  0  1.051466  0
H  H28  1  0.95780293  0.26951327  0.39186718  1  0.038507  0  0.097176  0.093906  0  1.026825  0
H  H29  1  0.45779369  0.39187114  0.26951835  1  0.038683  0  0.097187  0.093848  0  1.026827  0
H  H30  1  0.79659486  0.31728897  0.29220648  1  0.048261  0  0.097475  0.094006  0  1.043747  0
H  H31  1  0.29659863  0.29220150  0.31729251  1  0.048077  0  0.097488  0.094035  0  1.043745  0
H  H32  1  0.88734355  0.36853597  0.11555650  1  0.070145  0  0.098019  0.098887  0  1.025352  0
H  H33  1  0.38734532  0.11555677  0.36854059  1  0.07018  0  0.098003  0.098863  0  1.025407  0
H  H34  1  0.76888038  0.38659479  0.99712249  1  0.078931  0  0.097081  0.09449  0  1.01609  0
H  H35  1  0.26888379  0.99712342  0.38659695  1  0.078986  0  0.097098  0.094484  0  1.016134  0
H  H36  1  0.53782097  0.50129366  0.99925123  1  0.064393  0  0.09933  0.104072  0  1.017781  0
H  H37  1  0.03782300  0.99925063  0.50129257  1  0.064388  0  0.099363  0.104089  0  1.017836  0
H  H38  1  0.43186990  0.60071780  0.11975973  1  0.091045  0  0.093638  0.091888  0  1.04428  0
H  H39  1  0.93186625  0.11975937  0.60071618  1  0.091032  0  0.093629  0.091878  0  1.044307  0
H  H40  1  0.33770227  0.54366041  0.41043592  1  0.140404  0  0.115422  0.0867  0  1.065816  0
H  H41  1  0.83769996  0.41043641  0.54365597  1  0.140483  0  0.115403  0.086688  0  1.065868  0
H  H42  1  0.19126840  0.44073944  0.51602299  1  0.159343  0  0.112516  0.129179  0  1.023766  0
H  H43  1  0.69126319  0.51602139  0.44073581  1  0.159298  0  0.112503  0.129191  0  1.023763  0
H  H44  1  0.93292161  0.50841274  0.57724406  1  0.118116  0  0.111569  0.108688  0  1.025995  0
H  H45  1  0.43291618  0.57723895  0.50840957  1  0.118395  0  0.111609  0.108701  0  1.025963  0
H  H46  1  0.98918143  0.76764475  0.41894625  1  0.169189  0  0.122051  0.107318  0  1.021224  0
H  H47  1  0.48918047  0.41894851  0.76764254  1  0.169248  0  0.122066  0.107359  0  1.021177  0
H  H48  1  0.58897102  0.71955860  0.35726968  1  0.157616  0  0.122621  0.112377  0  1.021099  0
H  H49  1  0.08896901  0.35726880  0.71955917  1  0.157568  0  0.122614  0.112364  0  1.021076  0
H  H50  1  0.17622214  0.81269352  0.50953424  1  0.118153  0  0.12338  0.101907  0  0.997693  0
H  H51  1  0.67622140  0.50953487  0.81269108  1  0.118161  0  0.123387  0.101901  0  0.997715  0
H  H52  1  0.25751262  0.83761664  0.63224318  1  0.088068  0  0.11786  0.122616  0  0.970277  0
H  H53  1  0.75751298  0.63224382  0.83761404  1  0.083828  0  0.117861  0.1226  0  0.970324  0
H  H54  1  0.51804476  0.80070080  0.61386940  1  0.114331  0  0.121474  0.134056  0  0.96964  0
H  H55  1  0.01804492  0.61386631  0.80070280  1  0.114443  0  0.121446  0.134028  0  0.969648  0
H  H56  1  0.84671374  0.15826095  0.40972618  1  0.05758  0  0.09849  0.09837  0  1.028516  0
H  H57  1  0.34671834  0.40973002  0.15825871  1  0.057736  0  0.098459  0.098269  0  1.028587  0
H  H58  1  0.62752436  0.14074617  0.52753253  1  0.074873  0  0.097778  0.095445  0  1.01678  0
H  H59  1  0.12752806  0.52753423  0.14074522  1  0.07486  0  0.097774  0.095467  0  1.016796  0
H  H60  1  0.51326585  0.02566141  0.52538367  1  0.095129  0  0.098834  0.104072  0  1.017582  0
H  H61  1  0.01327078  0.52538710  0.02565932  1  0.095202  0  0.098759  0.103989  0  1.017498  0
H  H62  1  0.62717091  0.92585012  0.40524323  1  0.071553  0  0.093329  0.093157  0  1.043869  0
H  H63  1  0.12717503  0.40524479  0.92584897  1  0.07152  0  0.093359  0.093215  0  1.043887  0
H  H64  1  0.88274130  0.20922845  0.23377626  1  0.075634  0  0.096846  0.092357  0  1.046925  0
H  H65  1  0.38274435  0.23378280  0.20922390  1  0.075734  0  0.096899  0.09237  0  1.047002  0
H  H66  1  0.09602453  0.25670070  0.13487783  1  0.066368  0  0.097162  0.093902  0  1.027129  0
H  H67  1  0.59602283  0.13488060  0.25669843  1  0.066429  0  0.097164  0.093883  0  1.027155  0
H  H68  1  0.33065894  0.14201296  0.11149628  1  0.105402  0  0.097265  0.102399  0  1.050517  0
H  H69  1  0.83065974  0.11149458  0.14201260  1  0.10537  0  0.097302  0.102462  0  1.050459  0
H  H70  1  0.34629415  0.98116660  0.18875262  1  0.057742  0  0.094354  0.095032  0  1.027853  0
H  H71  1  0.84629961  0.18874674  0.98116547  1  0.057726  0  0.094379  0.09511  0  1.027794  0
C  C72  1  0.70601790  0.95672771  0.08804716  1  0.431265  0  0.052379  0.090461  0  3.903263  0
C  C73  1  0.20601700  0.08803894  0.95672746  1  0.431234  0  0.052578  0.090822  0  3.903156  0
C  C74  1  0.62727445  0.01325307  0.02923414  1  -0.009427  0  -0.076147  -0.104281  0  3.915107  0
C  C75  1  0.12726643  0.02922733  0.01325357  1  -0.009008  0  -0.076278  -0.10451  0  3.915096  0
C  C76  1  0.55387145  0.97591079  0.99588836  1  -0.024927  0  -0.047779  -0.022985  0  3.887943  0
C  C77  1  0.05386451  0.99588348  0.97590883  1  -0.024906  0  -0.047748  -0.022984  0  3.888019  0
C  C78  1  0.55579345  0.88416853  0.02556712  1  -0.030939  0  -0.000661  -0.061637  0  3.963337  0
C  C79  1  0.05579215  0.02556239  0.88416463  1  -0.032362  0  -0.000689  -0.061669  0  3.963363  0
C  C80  1  0.63795770  0.83126964  0.08428904  1  0.490284  0  0.053156  0.062414  0  3.876796  0
C  C81  1  0.13795590  0.08428393  0.83126845  1  0.490612  0  0.053223  0.062464  0  3.876915  0
C  C82  1  0.46905492  0.84792876  0.99174027  1  1.396708  0  0.243913  0.487348  0  4.134054  0
C  C83  1  0.96905277  0.99173724  0.84792381  1  1.39714  0  0.243771  0.487098  0  4.133834  0
C  C84  1  0.28751184  0.76734548  0.04216036  1  0.401861  0  0.106462  0.208113  0  4.022172  0
C  C85  1  0.78751106  0.04216078  0.76734207  1  0.402526  0  0.106398  0.208101  0  4.021944  0
C  C86  1  0.30448958  0.73446253  0.96339038  1  -0.02938  0  -0.055887  -0.105817  0  3.904922  0
C  C87  1  0.80448834  0.96339213  0.73445854  1  -0.029759  0  -0.055911  -0.105893  0  3.905008  0
C  C88  1  0.19060186  0.71429928  0.95346042  1  0.032176  0  -0.072834  -0.100423  0  3.986074  0
C  C89  1  0.69059974  0.95346087  0.71429630  1  0.032836  0  -0.072787  -0.100345  0  3.985931  0
C  C90  1  0.06344234  0.72795699  0.02078523  1  0.445226  0  0.052046  0.089343  0  3.927005  0
C  C91  1  0.56343945  0.02078454  0.72795682  1  0.444878  0  0.052047  0.08935  0  3.926913  0
C  C92  1  0.15722339  0.77867412  0.10757409  1  0.505175  0  0.049861  -0.002127  0  3.870207  0
C  C93  1  0.65722161  0.10757506  0.77867190  1  0.505493  0  0.049861  -0.002256  0  3.870271  0
C  C94  1  0.83624843  0.61601770  0.22083571  1  1.55611  0  0.19983  0.568404  0  4.214663  0
C  C95  1  0.33624838  0.22083547  0.61602135  1  1.555698  0  0.19987  0.568641  0  4.214437  0
C  C96  1  0.86329023  0.51962308  0.26825132  1  0.003289  0  -0.015437  -0.072596  0  3.948904  0
C  C97  1  0.36328638  0.26825303  0.51962754  1  0.002659  0  -0.01548  -0.072796  0  3.948938  0
C  C98  1  0.94986528  0.49315258  0.32735410  1  -0.05558  0  -0.09415  -0.106684  0  3.996704  0
C  C99  1  0.44985654  0.32735993  0.49315772  1  -0.054695  0  -0.094122  -0.106464  0  3.996446  0
C  C100  1  0.98703871  0.40344654  0.37048350  1  -0.093831  0  -0.098138  -0.093557  0  4.013811  0
C  C101  1  0.48702811  0.37049059  0.40345245  1  -0.094279  0  -0.098162  -0.093674  0  4.013853  0
C  C102  1  0.93161548  0.33980184  0.35747918  1  -0.067926  0  -0.092617  -0.072447  0  3.9975  0
C  C103  1  0.43160767  0.35748442  0.33980719  1  0.009264  0  -0.092539  -0.072179  0  3.9973  0
C  C104  1  0.84318634  0.36620784  0.30023230  1  0.001823  0  -0.089291  -0.136658  0  3.986532  0
C  C105  1  0.34318863  0.30023177  0.36621060  1  -0.075362  0  -0.089332  -0.136773  0  3.986576  0
C  C106  1  0.81009222  0.45518168  0.25274168  1  -0.013957  0  0.004465  0.060726  0  3.951428  0
C  C107  1  0.31009083  0.25274189  0.45518615  1  -0.013434  0  0.004428  0.060653  0  3.951468  0
C  C108  1  0.72827449  0.47366828  0.18541815  1  0.028225  0  0.007024  0.069223  0  3.934841  0
C  C109  1  0.22827449  0.18541755  0.47367168  1  0.028126  0  0.007111  0.069308  0  3.934776  0
C  C110  1  0.78636959  0.41914936  0.11678372  1  -0.06959  0  -0.08996  -0.132396  0  3.965294  0
C  C111  1  0.28636996  0.11678295  0.41915230  1  -0.069534  0  -0.090003  -0.132447  0  3.965362  0
C  C112  1  0.72039200  0.42987759  0.04948456  1  -0.089874  0  -0.088202  -0.060097  0  4.009248  0
C  C113  1  0.22039493  0.04948456  0.42987898  1  -0.089943  0  -0.088215  -0.060097  0  4.009276  0
C  C114  1  0.59194884  0.49520475  0.04992551  1  -0.006552  0  -0.098662  -0.099273  0  4.028536  0
C  C115  1  0.09194926  0.04992443  0.49520428  1  -0.006503  0  -0.098629  -0.099115  0  4.02837  0
C  C116  1  0.53289814  0.55006561  0.11734023  1  -0.055858  0  -0.094465  -0.100042  0  3.992608  0
C  C117  1  0.03289718  0.11734003  0.55006547  1  -0.055852  0  -0.094482  -0.10016  0  3.992673  0
C  C118  1  0.59903510  0.54064350  0.18495030  1  -0.024485  0  -0.018021  -0.075852  0  3.932666  0
C  C119  1  0.09903463  0.18494917  0.54064541  1  -0.024499  0  -0.018098  -0.075878  0  3.932792  0
C  C120  1  0.52407381  0.59960028  0.25715578  1  1.538712  0  0.200315  0.566043  0  4.202852  0
C  C121  1  0.02407075  0.25715526  0.59960035  1  1.539303  0  0.200276  0.56596  0  4.203052  0
C  C122  1  0.22434945  0.56926305  0.43808449  1  0.418263  0  0.048516  0.083773  0  3.909055  0
C  C123  1  0.72434712  0.43808409  0.56925928  1  0.418408  0  0.048443  0.083709  0  3.908976  0
C  C124  1  0.14319445  0.51279612  0.49686511  1  -0.004274  0  -0.071005  -0.096829  0  3.916272  0
C  C125  1  0.64319061  0.49686325  0.51279332  1  -0.004481  0  -0.07097  -0.096802  0  3.916143  0
C  C126  1  0.99945846  0.55020618  0.53008602  1  0.007957  0  -0.046153  -0.023104  0  3.88751  0
C  C127  1  0.49945357  0.53008193  0.55020372  1  0.007622  0  -0.046146  -0.023099  0  3.887405  0
C  C128  1  0.93981108  0.64198106  0.50038758  1  -0.028036  0  -0.00479  -0.065495  0  3.966094  0
C  C129  1  0.43980917  0.50038326  0.64197929  1  -0.028785  0  -0.004735  -0.065346  0  3.9662  0
C  C130  1  0.02790385  0.69483207  0.44175075  1  0.445973  0  0.054824  0.066077  0  3.87513  0
C  C131  1  0.52790379  0.44174909  0.69482944  1  0.446667  0  0.05469  0.065867  0  3.875404  0
C  C132  1  0.78340079  0.67837210  0.53408477  1  1.409709  0  0.24413  0.487574  0  4.130722  0
C  C133  1  0.28340075  0.53408016  0.67836965  1  1.409714  0  0.24416  0.487573  0  4.131004  0
C  C134  1  0.51808887  0.74748833  0.41795916  1  0.427768  0  0.050422  0.001712  0  3.873183  0
C  C135  1  0.01808751  0.41795857  0.74748832  1  0.427512  0  0.050442  0.001762  0  3.873145  0
C  C136  1  0.28756069  0.79796244  0.50492041  1  0.479449  0  0.050189  0.086118  0  3.928519  0
C  C137  1  0.78756083  0.50492036  0.79796020  1  0.479444  0  0.050157  0.086105  0  3.928602  0
C  C138  1  0.33418414  0.81164317  0.57220906  1  0.034022  0  -0.070869  -0.09604  0  3.984641  0
C  C139  1  0.83418355  0.57220942  0.81164206  1  0.038267  0  -0.070862  -0.09603  0  3.984692  0
C  C140  1  0.47802906  0.79157811  0.56219028  1  -0.055248  0  -0.058438  -0.109112  0  3.905435  0
C  C141  1  0.97802846  0.56218897  0.79157925  1  -0.055332  0  -0.0584  -0.109065  0  3.905415  0
C  C142  1  0.57208518  0.75871794  0.48338685  1  0.422662  0  0.10534  0.206773  0  4.023442  0
C  C143  1  0.07208432  0.48338382  0.75872139  1  0.422666  0  0.10533  0.206759  0  4.023448  0
C  C144  1  0.79958844  0.98582079  0.34042178  1  -0.00778  0  -0.018201  -0.073569  0  3.930147  0
C  C145  1  0.29959677  0.34042449  0.98581819  1  -0.00811  0  -0.018251  -0.073566  0  3.930191  0
C  C146  1  0.86249292  0.05282746  0.34007049  1  -0.011831  0  0.004619  0.066172  0  3.936509  0
C  C147  1  0.36250041  0.34007661  0.05282351  1  -0.011047  0  0.004585  0.065986  0  3.936596  0
C  C148  1  0.79741337  0.10762821  0.40844666  1  -0.069238  0  -0.090003  -0.13013  0  3.965209  0
C  C149  1  0.29741886  0.40845122  0.10762485  1  -0.06967  0  -0.089914  -0.129787  0  3.964954  0
C  C150  1  0.67469709  0.09717393  0.47540969  1  -0.031613  0  -0.088996  -0.063264  0  4.014056  0
C  C151  1  0.17470162  0.47541452  0.09717062  1  -0.031215  0  -0.088955  -0.063368  0  4.013889  0
C  C152  1  0.61195736  0.03171755  0.47491350  1  -0.078718  0  -0.09857  -0.099586  0  4.034619  0
C  C153  1  0.11196357  0.47491671  0.03171443  1  -0.079081  0  -0.098495  -0.099477  0  4.034427  0
C  C154  1  0.67519120  0.97658255  0.40773366  1  -0.024043  0  -0.093169  -0.101487  0  3.996798  0
C  C155  1  0.17519763  0.40773679  0.97657975  1  -0.023884  0  -0.093204  -0.101555  0  3.996851  0
C  C156  1  0.99332889  0.07110655  0.27318000  1  0.019944  0  0.004436  0.061675  0  3.950211  0
C  C157  1  0.49333707  0.27318366  0.07110285  1  0.0198  0  0.004295  0.061591  0  3.950211  0
C  C158  1  0.98577249  0.16011011  0.22590756  1  -0.073659  0  -0.08905  -0.136077  0  3.988556  0
C  C159  1  0.48577657  0.22591224  0.16010788  1  -0.07372  0  -0.089105  -0.136177  0  3.988628  0
C  C160  1  0.10521546  0.18637059  0.16906455  1  -0.125012  0  -0.093133  -0.072502  0  3.999371  0
C  C161  1  0.60521743  0.16906758  0.18636858  1  -0.125077  0  -0.093072  -0.072307  0  3.999366  0
C  C162  1  0.23670163  0.12247691  0.15619706  1  -0.009859  0  -0.100376  -0.096606  0  4.014086  0
C  C163  1  0.73670275  0.15619673  0.12247592  1  -0.009808  0  -0.100462  -0.09679  0  4.014181  0
C  C164  1  0.24531315  0.03275752  0.19914994  1  -0.061275  0  -0.09103  -0.103986  0  3.993127  0
C  C165  1  0.74531759  0.19914837  0.03275564  1  -0.061455  0  -0.091032  -0.104057  0  3.993149  0
C  C166  1  0.12590551  0.00646417  0.25789260  1  0.006408  0  -0.015753  -0.07339  0  3.946669  0
C  C167  1  0.62591421  0.25789398  0.00646081  1  0.006459  0  -0.015673  -0.073255  0  3.946502  0
C  C168  1  0.14710725  0.91008419  0.30536881  1  1.543892  0  0.200783  0.568771  0  4.212219  0
C  C169  1  0.64711710  0.30536680  0.91007906  1  1.543996  0  0.200898  0.568953  0  4.212108  0
C  C170  1  0.85561991  0.92666655  0.26835993  1  1.557057  0  0.20267  0.56939  0  4.202404  0
C  C171  1  0.35562052  0.26835975  0.92666866  1  1.557085  0  0.202636  0.569276  0  4.202237  0
N  N172  1  0.71372514  0.86705363  0.11356797  1  -1.248492  0  -0.328097  -0.222859  0  3.577929  0
N  N173  1  0.21372465  0.11355936  0.86705372  1  -1.248166  0  -0.328184  -0.22297  0  3.578109  0
N  N174  1  0.39480199  0.79255220  0.05670707  1  -1.266244  0  -0.397996  -0.392733  0  3.566601  0
N  N175  1  0.89480139  0.05670503  0.79254967  1  -1.266574  0  -0.397952  -0.392546  0  3.566514  0
N  N176  1  0.04764441  0.75967383  0.09650302  1  -1.274096  0  -0.330322  -0.222389  0  3.614852  0
N  N177  1  0.54764207  0.09650169  0.75967330  1  -1.274321  0  -0.330327  -0.22229  0  3.614874  0
N  N178  1  0.16839555  0.65894498  0.41251560  1  -1.260264  0  -0.326314  -0.223342  0  3.57726  0
N  N179  1  0.66839379  0.41251723  0.65894230  1  -1.260167  0  -0.326217  -0.223272  0  3.577193  0
N  N180  1  0.71889193  0.73339124  0.46887984  1  -1.266314  0  -0.395916  -0.390858  0  3.567541  0
N  N181  1  0.21889112  0.46887711  0.73339478  1  -1.266266  0  -0.39592  -0.390797  0  3.567573  0
N  N182  1  0.37857899  0.76639552  0.42911207  1  -1.22872  0  -0.331459  -0.224027  0  3.618876  0
N  N183  1  0.87857744  0.42911144  0.76639498  1  -1.228518  0  -0.331471  -0.224061  0  3.618941  0
O  O184  1  0.71937730  0.65551200  0.61370067  1  -1.138383  0  -0.300031  -0.491058  0  2.089917  0
O  O185  1  0.21937351  0.61369549  0.65550673  1  -1.138394  0  -0.300067  -0.491109  0  2.089961  0
O  O186  1  0.82076135  0.85001156  0.29135821  1  -1.179852  0  -0.340743  -0.565281  0  2.336227  0
O  O187  1  0.32076605  0.29135297  0.85001278  1  -1.179987  0  -0.340693  -0.565249  0  2.336134  0
O  O188  1  0.92673444  0.95146840  0.19012827  1  -1.194059  0  -0.308909  -0.553638  0  2.218932  0
O  O189  1  0.42672918  0.19012669  0.95147619  1  -1.194135  0  -0.30894  -0.553564  0  2.218712  0
O  O190  1  0.08030633  0.88956816  0.38615081  1  -1.17763  0  -0.313648  -0.550362  0  2.158543  0
O  O191  1  0.58031979  0.38614752  0.88955937  1  -1.177678  0  -0.313697  -0.550475  0  2.158513  0
O  O192  1  0.24368426  0.85056682  0.25734002  1  -1.186085  0  -0.344147  -0.566663  0  2.328819  0
O  O193  1  0.74369578  0.25733479  0.85056456  1  -1.186153  0  -0.344187  -0.56672  0  2.328795  0
O  O194  1  0.43577992  0.67629499  0.23421722  1  -1.192045  0  -0.338643  -0.563627  0  2.335704  0
O  O195  1  0.93578120  0.23421612  0.67629711  1  -1.191962  0  -0.338643  -0.563593  0  2.335756  0
O  O196  1  0.54169666  0.57466641  0.33547771  1  -1.177062  0  -0.308668  -0.551334  0  2.215119  0
O  O197  1  0.04168709  0.33547901  0.57466423  1  -1.177641  0  -0.308646  -0.551289  0  2.215213  0
O  O198  1  0.82641762  0.67539493  0.26883887  1  -1.182411  0  -0.344816  -0.567561  0  2.32955  0
O  O199  1  0.32641434  0.26883734  0.67540078  1  -1.182153  0  -0.344817  -0.567675  0  2.329442  0
O  O200  1  0.82910368  0.63675117  0.14012353  1  -1.178377  0  -0.313363  -0.550441  0  2.159575  0
O  O201  1  0.32910361  0.14012280  0.63675273  1  -1.17841  0  -0.313353  -0.550492  0  2.159533  0
O  O202  1  0.46106507  0.87124229  0.91222300  1  -1.132016  0  -0.300464  -0.492348  0  2.090854  0
O  O203  1  0.96106865  0.91221748  0.87123213  1  -1.131828  0  -0.30032  -0.492146  0  2.090524  0
