# generated using pymatgen
data_ZnH14C12N2O5
_symmetry_space_group_name_H-M   'P 1'
_cell_length_a   7.80049708
_cell_length_b   10.01121576
_cell_length_c   16.01610000
_cell_angle_alpha   90.52747668
_cell_angle_beta   90.00000000
_cell_angle_gamma   90.00000000
_symmetry_Int_Tables_number   1
_chemical_formula_structural   ZnH14C12N2O5
_chemical_formula_sum   'Zn4 H56 C48 N8 O20'
_cell_volume   1250.68363534
_cell_formula_units_Z   4
loop_
 _symmetry_equiv_pos_site_id
 _symmetry_equiv_pos_as_xyz
  1  'x, y, z'
loop_
 _atom_site_type_symbol
 _atom_site_label
 _atom_site_symmetry_multiplicity
 _atom_site_fract_x
 _atom_site_fract_y
 _atom_site_fract_z
 _atom_site_occupancy
 _atom_site_hle17_bader_spin_density
 _atom_site_hle17_ddec_charge
 _atom_site_hle17_ddec_spin_density
 _atom_site_hle17_ddec_sum_bond_order
 _atom_site_hle17_magmom
 _atom_site_hse06_10hf_bader_spin_density
 _atom_site_hse06_10hf_ddec_charge
 _atom_site_hse06_10hf_ddec_spin_density
 _atom_site_hse06_10hf_ddec_sum_bond_order
 _atom_site_hse06_10hf_magmom
 _atom_site_hse06_bader_spin_density
 _atom_site_hse06_ddec_charge
 _atom_site_hse06_ddec_spin_density
 _atom_site_hse06_ddec_sum_bond_order
 _atom_site_hse06_magmom
 _atom_site_pbe_bader_charge
 _atom_site_pbe_bader_spin_density
 _atom_site_pbe_cm5_charge
 _atom_site_pbe_ddec_charge
 _atom_site_pbe_ddec_spin_density
 _atom_site_pbe_ddec_sum_bond_order
 _atom_site_pbe_magmom
Zn  Zn0  1  0.99743003  0.30593785  0.76678508  1  0  1.090219  0  1.756923  0  0  0.913638  0  2.224983  0  0  0.961665  0  2.166917  0  1.274943  0  0.690179  0.879846  0  2.265252  0
Zn  Zn1  1  0.49742984  0.69406100  0.73321392  1  0  1.09024  0  1.756943  0  0  0.91366  0  2.225014  0  0  0.961687  0  2.166948  0  1.274935  0  0.690194  0.879868  0  2.265284  0
Zn  Zn2  1  0.00257035  0.69406200  0.23321517  1  0  1.090232  0  1.75693  0  0  0.913656  0  2.225002  0  0  0.961682  0  2.166934  0  1.274937  0  0.690182  0.879866  0  2.265272  0
Zn  Zn3  1  0.50256925  0.30593785  0.26678508  1  0  1.090219  0  1.756916  0  0  0.91365  0  2.224973  0  0  0.961675  0  2.166907  0  1.274937  0  0.690186  0.879858  0  2.265241  0
H  H4  1  0.62631009  0.29342335  0.01538096  1  0  0.103793  0  0.979477  0  0  0.108288  0  1.054176  0  0  0.112071  0  1.051478  0  0.119189  0  0.104408  0.10551  0  1.056257  0
H  H5  1  0.12631118  0.70657949  0.48461930  1  0  0.103859  0  0.979499  0  0  0.108332  0  1.054217  0  0  0.112114  0  1.051521  0  0.119194  0  0.104426  0.105553  0  1.056299  0
H  H6  1  0.37368772  0.70657849  0.98461867  1  0  0.103838  0  0.979512  0  0  0.108306  0  1.054239  0  0  0.11209  0  1.051538  0  0.119179  0  0.104423  0.105526  0  1.056321  0
H  H7  1  0.87368791  0.29342335  0.51538096  1  0  0.103799  0  0.979458  0  0  0.108293  0  1.054162  0  0  0.112078  0  1.051457  0  0.119204  0  0.104402  0.105514  0  1.056243  0
H  H8  1  0.10290883  0.42364183  0.99591689  1  0  0.11151  0  0.949739  0  0  0.12217  0  1.01181  0  0  0.125983  0  1.008634  0  0.087892  0  0.10895  0.119421  0  1.014097  0
H  H9  1  0.60291158  0.57635702  0.50408210  1  0  0.111511  0  0.949741  0  0  0.122175  0  1.011812  0  0  0.126005  0  1.008613  0  0.088097  0  0.10895  0.119426  0  1.014096  0
H  H10  1  0.89708770  0.57635702  0.00408148  1  0  0.111494  0  0.94977  0  0  0.122192  0  1.011799  0  0  0.126024  0  1.008601  0  0.088046  0  0.108952  0.119442  0  1.014087  0
H  H11  1  0.39708880  0.42364083  0.49591689  1  0  0.111506  0  0.949761  0  0  0.122163  0  1.011839  0  0  0.125992  0  1.008642  0  0.08822  0  0.108941  0.119414  0  1.014123  0
H  H12  1  0.41468639  0.39250643  0.77531078  1  0  0.119088  0  0.972591  0  0  0.126744  0  1.04015  0  0  0.130966  0  1.036367  0  0.118829  0  0.109113  0.123734  0  1.042777  0
H  H13  1  0.91468658  0.60749442  0.72468885  1  0  0.119103  0  0.972635  0  0  0.126764  0  1.040186  0  0  0.130987  0  1.0364  0  0.118837  0  0.109136  0.123766  0  1.042797  0
H  H14  1  0.58531270  0.60749642  0.22468824  1  0  0.119119  0  0.972582  0  0  0.126748  0  1.040172  0  0  0.13097  0  1.036389  0  0.118852  0  0.109133  0.123762  0  1.042769  0
H  H15  1  0.08531251  0.39250842  0.27531079  1  0  0.119136  0  0.972616  0  0  0.126788  0  1.04016  0  0  0.131012  0  1.036373  0  0.118827  0  0.109139  0.123774  0  1.042794  0
H  H16  1  0.82889589  0.06550431  0.76334545  1  0  0.133125  0  0.959342  0  0  0.151778  0  1.020424  0  0  0.154301  0  1.019287  0  0.079213  0  0.100526  0.14998  0  1.021256  0
H  H17  1  0.32889827  0.93449554  0.73665542  1  0  0.13311  0  0.959358  0  0  0.151765  0  1.020445  0  0  0.154288  0  1.019308  0  0.079506  0  0.100535  0.149967  0  1.021278  0
H  H18  1  0.17110320  0.93449454  0.23665604  1  0  0.133078  0  0.959407  0  0  0.151732  0  1.020495  0  0  0.154253  0  1.019362  0  0.079458  0  0.100496  0.149934  0  1.021326  0
H  H19  1  0.67110467  0.06550331  0.26334420  1  0  0.133122  0  0.959346  0  0  0.151767  0  1.020439  0  0  0.154289  0  1.019303  0  0.07921  0  0.100522  0.149968  0  1.021271  0
H  H20  1  0.79007401  0.97544435  0.85654441  1  0  0.139752  0  0.929316  0  0  0.160266  0  0.986149  0  0  0.163358  0  0.984522  0  0.070187  0  0.104277  0.157953  0  0.987448  0
H  H21  1  0.29007510  0.02455350  0.64345646  1  0  0.139765  0  0.929297  0  0  0.160285  0  0.986127  0  0  0.163377  0  0.984496  0  0.070222  0  0.104312  0.157969  0  0.987431  0
H  H22  1  0.20992508  0.02455350  0.14345708  1  0  0.139794  0  0.929282  0  0  0.160312  0  0.986109  0  0  0.163405  0  0.984477  0  0.070224  0  0.104306  0.157997  0  0.98741  0
H  H23  1  0.70992655  0.97544335  0.35654315  1  0  0.139767  0  0.929322  0  0  0.160295  0  0.986137  0  0  0.163377  0  0.98452  0  0.070197  0  0.104295  0.157973  0  0.987446  0
H  H24  1  0.89144319  0.89515299  0.77118218  1  0  0.156379  0  0.928474  0  0  0.176071  0  0.983783  0  0  0.179151  0  0.982573  0  0.104217  0  0.109058  0.173823  0  0.98476  0
H  H25  1  0.39144428  0.10484685  0.72881870  1  0  0.156385  0  0.928429  0  0  0.17608  0  0.983739  0  0  0.17916  0  0.982529  0  0.104195  0  0.109086  0.173843  0  0.984704  0
H  H26  1  0.10855590  0.10484586  0.22881869  1  0  0.156365  0  0.928478  0  0  0.176052  0  0.9838  0  0  0.179132  0  0.98259  0  0.104222  0  0.109049  0.173803  0  0.984778  0
H  H27  1  0.60855737  0.89515200  0.27118092  1  0  0.156386  0  0.928423  0  0  0.176087  0  0.983727  0  0  0.179166  0  0.982517  0  0.10419  0  0.109069  0.173851  0  0.984689  0
H  H28  1  0.95445969  0.80688325  0.89531756  1  0  0.107504  0  0.985701  0  0  0.125284  0  1.05093  0  0  0.125681  0  1.052008  0  0.075363  0  0.104609  0.124945  0  1.050168  0
H  H29  1  0.45446078  0.19311660  0.60468394  1  0  0.107563  0  0.985607  0  0  0.125316  0  1.05087  0  0  0.125712  0  1.051947  0  0.075391  0  0.104629  0.124976  0  1.050109  0
H  H30  1  0.04553941  0.19311560  0.10468331  1  0  0.107486  0  0.985681  0  0  0.125257  0  1.050942  0  0  0.125654  0  1.052019  0  0.075392  0  0.104589  0.124919  0  1.050179  0
H  H31  1  0.54554087  0.80688225  0.39531693  1  0  0.107543  0  0.985641  0  0  0.12529  0  1.050904  0  0  0.125686  0  1.051984  0  0.075354  0  0.104613  0.124951  0  1.050141  0
H  H32  1  0.09645155  0.81688845  0.98271725  1  0  0.120142  0  0.965674  0  0  0.136981  0  1.03016  0  0  0.138895  0  1.028709  0  0.124479  0  0.104313  0.135737  0  1.031041  0
H  H33  1  0.59645173  0.18311040  0.51728424  1  0  0.120134  0  0.965699  0  0  0.13697  0  1.030183  0  0  0.138881  0  1.028735  0  0.124505  0  0.104299  0.135725  0  1.031064  0
H  H34  1  0.90354883  0.18311040  0.01728424  1  0  0.120122  0  0.965705  0  0  0.136958  0  1.03019  0  0  0.138869  0  1.028742  0  0.124508  0  0.1043  0.135713  0  1.031071  0
H  H35  1  0.40354992  0.81688845  0.48271662  1  0  0.120138  0  0.96566  0  0  0.136973  0  1.030149  0  0  0.138887  0  1.028697  0  0.124491  0  0.104281  0.135728  0  1.03103  0
H  H36  1  0.16992507  0.75343093  0.88471158  1  0  0.111974  0  0.929783  0  0  0.133002  0  0.98995  0  0  0.133767  0  0.989719  0  0.042811  0  0.104804  0.132053  0  0.990908  0
H  H37  1  0.66992782  0.24656792  0.61528928  1  0  0.111977  0  0.929824  0  0  0.133002  0  0.989997  0  0  0.133768  0  0.989764  0  0.042782  0  0.104808  0.132055  0  0.990952  0
H  H38  1  0.83007402  0.24656792  0.11528991  1  0  0.111973  0  0.929824  0  0  0.133002  0  0.989992  0  0  0.133767  0  0.98976  0  0.042788  0  0.104812  0.132053  0  0.990949  0
H  H39  1  0.33007384  0.75343093  0.38471158  1  0  0.111974  0  0.929778  0  0  0.133  0  0.989946  0  0  0.133766  0  0.989715  0  0.042802  0  0.104799  0.132051  0  0.990903  0
H  H40  1  0.33187885  0.10629130  0.90473812  1  0  0.111612  0  0.977583  0  0  0.125259  0  1.04745  0  0  0.125813  0  1.049152  0  0.114819  0  0.106394  0.124744  0  1.046393  0
H  H41  1  0.83188160  0.89370755  0.59526275  1  0  0.111605  0  0.977574  0  0  0.125277  0  1.047418  0  0  0.125831  0  1.04912  0  0.114804  0  0.106401  0.124761  0  1.046364  0
H  H42  1  0.66812024  0.89370755  0.09526212  1  0  0.111577  0  0.977618  0  0  0.125257  0  1.047455  0  0  0.12581  0  1.049157  0  0.114869  0  0.106396  0.124742  0  1.046398  0
H  H43  1  0.16812390  0.10629130  0.40473812  1  0  0.11157  0  0.977597  0  0  0.125242  0  1.047448  0  0  0.125797  0  1.04915  0  0.114994  0  0.106392  0.124728  0  1.046391  0
H  H44  1  0.40648051  0.93598393  0.90184277  1  0  0.10376  0  0.941574  0  0  0.123734  0  1.004791  0  0  0.1244  0  1.004633  0  0.068575  0  0.103344  0.123144  0  1.005009  0
H  H45  1  0.90648326  0.06401492  0.59815810  1  0  0.103734  0  0.941562  0  0  0.123708  0  1.004776  0  0  0.124374  0  1.004619  0  0.068676  0  0.103331  0.12312  0  1.004992  0
H  H46  1  0.59351859  0.06401492  0.09815810  1  0  0.103722  0  0.941572  0  0  0.123702  0  1.004788  0  0  0.124369  0  1.00463  0  0.068576  0  0.103334  0.123114  0  1.005003  0
H  H47  1  0.09352096  0.93598393  0.40184277  1  0  0.103697  0  0.941574  0  0  0.123675  0  1.00479  0  0  0.124341  0  1.004633  0  0.068596  0  0.103333  0.123086  0  1.005006  0
H  H48  1  0.30083467  0.99923767  0.99252276  1  0  0.094063  0  0.928193  0  0  0.117062  0  0.986938  0  0  0.11725  0  0.987296  0  0.045252  0  0.103774  0.116861  0  0.98668  0
H  H49  1  0.80083486  0.00076118  0.50747749  1  0  0.094038  0  0.928227  0  0  0.11705  0  0.986948  0  0  0.117238  0  0.987307  0  0.045268  0  0.103779  0.11685  0  0.98669  0
H  H50  1  0.69916570  0.00076118  0.00747749  1  0  0.09407  0  0.928182  0  0  0.117065  0  0.986933  0  0  0.117254  0  0.987291  0  0.045276  0  0.103786  0.116865  0  0.986675  0
H  H51  1  0.19916679  0.99923767  0.49252276  1  0  0.094038  0  0.928204  0  0  0.117031  0  0.986956  0  0  0.117219  0  0.987316  0  0.045259  0  0.103777  0.116831  0  0.986698  0
H  H52  1  0.01181591  0.50842733  0.86205622  1  0  0.324682  0  0.893528  0  0  0.309446  0  0.954097  0  0  0.316706  0  0.948382  0  0.478508  0  0.299725  0.304237  0  0.958339  0
H  H53  1  0.51181610  0.49157052  0.63794276  1  0  0.324659  0  0.893543  0  0  0.309428  0  0.954103  0  0  0.316689  0  0.948388  0  0.478491  0  0.299722  0.30422  0  0.958344  0
H  H54  1  0.98818318  0.49157352  0.13794216  1  0  0.324644  0  0.893596  0  0  0.309424  0  0.954139  0  0  0.316685  0  0.948425  0  0.47853  0  0.299726  0.304218  0  0.958379  0
H  H55  1  0.48818427  0.50842733  0.36205622  1  0  0.324678  0  0.893533  0  0  0.309441  0  0.954101  0  0  0.316702  0  0.948386  0  0.478507  0  0.299723  0.304232  0  0.958342  0
H  H56  1  0.15454015  0.53348928  0.78627622  1  0  0.32299  0  0.924308  0  0  0.304813  0  0.98952  0  0  0.312409  0  0.983812  0  0.491723  0  0.291778  0.299346  0  0.993838  0
H  H57  1  0.65454034  0.46650957  0.71372278  1  0  0.322981  0  0.924337  0  0  0.304803  0  0.989553  0  0  0.312399  0  0.983847  0  0.491699  0  0.291776  0.299335  0  0.99387  0
H  H58  1  0.84545894  0.46651156  0.21372279  1  0  0.322995  0  0.924298  0  0  0.304817  0  0.989512  0  0  0.312412  0  0.983804  0  0.491737  0  0.291776  0.299351  0  0.99383  0
H  H59  1  0.34546004  0.53348928  0.28627622  1  0  0.322984  0  0.924315  0  0  0.304807  0  0.989527  0  0  0.312402  0  0.983822  0  0.491723  0  0.291772  0.299339  0  0.993845  0
C  C60  1  0.54036428  0.34029277  0.89142880  1  0  -0.060362  0  3.793975  0  0  -0.03368  0  4.027447  0  0  -0.042026  0  4.050249  0  -0.106819  0  -0.021288  -0.028416  0  4.012302  0
C  C61  1  0.04036538  0.65971007  0.60857085  1  0  -0.060466  0  3.794016  0  0  -0.033798  0  4.027497  0  0  -0.042145  0  4.050298  0  -0.106867  0  -0.021331  -0.028532  0  4.012353  0
C  C62  1  0.45963353  0.65970907  0.10857022  1  0  -0.060467  0  3.793919  0  0  -0.033794  0  4.027392  0  0  -0.04214  0  4.050194  0  -0.106886  0  -0.021285  -0.02853  0  4.012252  0
C  C63  1  0.95963372  0.34029377  0.39142880  1  0  -0.060401  0  3.793972  0  0  -0.033712  0  4.027415  0  0  -0.042068  0  4.050234  0  -0.106836  0  -0.021302  -0.028449  0  4.012271  0
C  C64  1  0.51859131  0.32477152  0.97745345  1  0  -0.084946  0  3.724273  0  0  -0.124286  0  3.974154  0  0  -0.122525  0  3.994007  0  -0.072556  0  -0.084323  -0.12527  0  3.961082  0
C  C65  1  0.01859112  0.67523132  0.52254619  1  0  -0.084964  0  3.724288  0  0  -0.124276  0  3.974141  0  0  -0.122513  0  3.993991  0  -0.07255  0  -0.0843  -0.125257  0  3.961066  0
C  C66  1  0.48140778  0.67523132  0.02254619  1  0  -0.084886  0  3.724229  0  0  -0.124208  0  3.974087  0  0  -0.122448  0  3.993939  0  -0.07257  0  -0.084287  -0.125188  0  3.961012  0
C  C67  1  0.98140797  0.32477252  0.47745283  1  0  -0.084954  0  3.72421  0  0  -0.124314  0  3.974086  0  0  -0.122552  0  3.993941  0  -0.072528  0  -0.084314  -0.125293  0  3.961011  0
C  C68  1  0.36148209  0.35370929  0.01499487  1  0  -0.060819  0  3.783981  0  0  -0.03455  0  4.016968  0  0  -0.043044  0  4.040997  0  0.012568  0  -0.020292  -0.029146  0  4.00084  0
C  C69  1  0.86148356  0.64629255  0.48500539  1  0  -0.060832  0  3.784008  0  0  -0.03454  0  4.016958  0  0  -0.043035  0  4.040991  0  0.012241  0  -0.020317  -0.029139  0  4.00083  0
C  C70  1  0.63851572  0.64629155  0.98500414  1  0  -0.060819  0  3.783984  0  0  -0.034508  0  4.016916  0  0  -0.042998  0  4.040949  0  0.012279  0  -0.020308  -0.029109  0  4.000788  0
C  C71  1  0.13851553  0.35371029  0.51499487  1  0  -0.060722  0  3.783968  0  0  -0.034404  0  4.016883  0  0  -0.042895  0  4.040913  0  0.01225  0  -0.020255  -0.029005  0  4.000756  0
C  C72  1  0.22521513  0.40067261  0.96635495  1  0  -0.135601  0  3.649815  0  0  -0.169093  0  3.898134  0  0  -0.168975  0  3.915628  0  -0.025776  0  -0.07848  -0.168833  0  3.886429  0
C  C73  1  0.72521789  0.59932923  0.53364468  1  0  -0.135611  0  3.649863  0  0  -0.169146  0  3.898183  0  0  -0.169039  0  3.915669  0  -0.025745  0  -0.078485  -0.168881  0  3.886474  0
C  C74  1  0.77478011  0.59932823  0.03364468  1  0  -0.13562  0  3.649922  0  0  -0.16918  0  3.898236  0  0  -0.16908  0  3.915726  0  -0.025583  0  -0.078487  -0.168915  0  3.886527  0
C  C75  1  0.27478249  0.40067361  0.46635496  1  0  -0.135631  0  3.649814  0  0  -0.169133  0  3.898134  0  0  -0.16903  0  3.915623  0  -0.025954  0  -0.078471  -0.168869  0  3.886428  0
C  C76  1  0.24703682  0.41773120  0.88069878  1  0  0.280161  0  3.759681  0  0  0.281346  0  4.007137  0  0  0.28606  0  4.029  0  0.345493  0  0.086469  0.27754  0  3.99329  0
C  C77  1  0.74703701  0.58226964  0.61930085  1  0  0.280118  0  3.759715  0  0  0.281356  0  4.007116  0  0  0.286068  0  4.028983  0  0.345153  0  0.086474  0.277548  0  3.993271  0
C  C78  1  0.75296099  0.58227064  0.11929960  1  0  0.280147  0  3.759711  0  0  0.281375  0  4.007132  0  0  0.286087  0  4.029  0  0.34511  0  0.086488  0.277571  0  3.993289  0
C  C79  1  0.25296080  0.41773220  0.38069879  1  0  0.28021  0  3.759681  0  0  0.281367  0  4.007163  0  0  0.286079  0  4.02903  0  0.345319  0  0.086464  0.277561  0  3.993313  0
C  C80  1  0.40352941  0.38497855  0.84285258  1  0  -0.147129  0  3.649793  0  0  -0.182139  0  3.903467  0  0  -0.181606  0  3.919444  0  0.035179  0  -0.084389  -0.182175  0  3.892918  0
C  C81  1  0.90352832  0.61502330  0.65714768  1  0  -0.1471  0  3.649798  0  0  -0.18212  0  3.903447  0  0  -0.181586  0  3.919421  0  0.03532  0  -0.084412  -0.182166  0  3.892892  0
C  C82  1  0.59647096  0.61502330  0.15714706  1  0  -0.147149  0  3.649714  0  0  -0.182153  0  3.903399  0  0  -0.181621  0  3.919377  0  0.035352  0  -0.084461  -0.182207  0  3.892835  0
C  C83  1  0.09646949  0.38498055  0.34285259  1  0  -0.147236  0  3.649937  0  0  -0.182227  0  3.903598  0  0  -0.181693  0  3.919577  0  0.035349  0  -0.084422  -0.182262  0  3.893048  0
C  C84  1  0.71414680  0.31457752  0.85557799  1  0  0.629078  0  3.917328  0  0  0.579171  0  4.204784  0  0  0.61233  0  4.199842  0  1.53459  0  0.198859  0.556725  0  4.207301  0
C  C85  1  0.21414661  0.68542233  0.64442163  1  0  0.62906  0  3.917385  0  0  0.579156  0  4.204831  0  0  0.612316  0  4.199886  0  1.534804  0  0.198861  0.556709  0  4.207349  0
C  C86  1  0.28585230  0.68542133  0.14442100  1  0  0.629102  0  3.917339  0  0  0.579221  0  4.204761  0  0  0.612381  0  4.199818  0  1.534651  0  0.19886  0.556774  0  4.207282  0
C  C87  1  0.78585248  0.31457852  0.35557800  1  0  0.629092  0  3.917264  0  0  0.579194  0  4.204705  0  0  0.612355  0  4.199763  0  1.53458  0  0.198865  0.556747  0  4.207225  0
C  C88  1  0.34336658  0.34238152  0.10799478  1  0  0.639135  0  3.928743  0  0  0.590356  0  4.221882  0  0  0.624182  0  4.215108  0  1.571287  0  0.205068  0.567448  0  4.225667  0
C  C89  1  0.84336933  0.65761933  0.39200547  1  0  0.639206  0  3.928562  0  0  0.590433  0  4.221676  0  0  0.624259  0  4.214904  0  1.571851  0  0.205122  0.567527  0  4.225462  0
C  C90  1  0.65662995  0.65761833  0.89200422  1  0  0.639153  0  3.928664  0  0  0.590373  0  4.221778  0  0  0.624197  0  4.215009  0  1.571752  0  0.205106  0.567467  0  4.225563  0
C  C91  1  0.15662976  0.34238252  0.60799416  1  0  0.639158  0  3.928681  0  0  0.590377  0  4.221806  0  0  0.624202  0  4.215035  0  1.571559  0  0.205103  0.567471  0  4.225591  0
C  C92  1  0.05297996  0.03715690  0.83674144  1  0  0.58108  0  3.746114  0  0  0.537091  0  4.025474  0  0  0.567134  0  4.026064  0  1.352684  0  0.250009  0.516527  0  4.024516  0
C  C93  1  0.55298014  0.96284295  0.66325881  1  0  0.581012  0  3.74609  0  0  0.537038  0  4.025424  0  0  0.567077  0  4.026019  0  1.352533  0  0.250025  0.516474  0  4.024465  0
C  C94  1  0.94702042  0.96284095  0.16325942  1  0  0.581023  0  3.746152  0  0  0.537031  0  4.025519  0  0  0.567077  0  4.026105  0  1.352839  0  0.250011  0.516467  0  4.02456  0
C  C95  1  0.44702151  0.03715590  0.33674081  1  0  0.581145  0  3.746029  0  0  0.53711  0  4.025445  0  0  0.56715  0  4.026038  0  1.352583  0  0.250006  0.516545  0  4.024487  0
C  C96  1  0.88151049  0.99035725  0.80535744  1  0  -0.438963  0  3.674756  0  0  -0.518608  0  3.912442  0  0  -0.524941  0  3.91447  0  -0.111941  0  -0.238284  -0.513991  0  3.911039  0
C  C97  1  0.38151287  0.00964459  0.69464345  1  0  -0.438976  0  3.674732  0  0  -0.518633  0  3.912413  0  0  -0.524967  0  3.91445  0  -0.112149  0  -0.238386  -0.514024  0  3.911005  0
C  C98  1  0.11848860  0.00964160  0.19464343  1  0  -0.438961  0  3.674807  0  0  -0.518608  0  3.912492  0  0  -0.524945  0  3.914526  0  -0.112461  0  -0.238289  -0.513988  0  3.91109  0
C  C99  1  0.61849007  0.99035626  0.30535681  1  0  -0.439003  0  3.674712  0  0  -0.518643  0  3.912409  0  0  -0.52497  0  3.914455  0  -0.111867  0  -0.238302  -0.514026  0  3.911006  0
C  C100  1  0.08565864  0.82772076  0.91482796  1  0  -0.187461  0  3.62797  0  0  -0.287558  0  3.87446  0  0  -0.284631  0  3.884127  0  0.250818  0  -0.143744  -0.289307  0  3.868076  0
C  C101  1  0.58566139  0.17227809  0.58517291  1  0  -0.187537  0  3.62795  0  0  -0.287614  0  3.874468  0  0  -0.284689  0  3.884138  0  0.250845  0  -0.143751  -0.289363  0  3.868083  0
C  C102  1  0.91433917  0.17227809  0.08517291  1  0  -0.187449  0  3.627982  0  0  -0.287544  0  3.874479  0  0  -0.284619  0  3.884149  0  0.250844  0  -0.143722  -0.289293  0  3.868094  0
C  C103  1  0.41434154  0.82772076  0.41482733  1  0  -0.187523  0  3.627926  0  0  -0.287601  0  3.874445  0  0  -0.284669  0  3.884098  0  0.25082  0  -0.143734  -0.28935  0  3.86806  0
C  C104  1  0.30509081  0.00404563  0.92399603  1  0  -0.1669  0  3.636568  0  0  -0.265724  0  3.884346  0  0  -0.262277  0  3.894679  0  0.244112  0  -0.13563  -0.267686  0  3.877104  0
C  C105  1  0.80509228  0.99595322  0.57600483  1  0  -0.166823  0  3.636617  0  0  -0.265657  0  3.88436  0  0  -0.262211  0  3.894695  0  0.243983  0  -0.135577  -0.267619  0  3.877117  0
C  C106  1  0.69490956  0.99595322  0.07600483  1  0  -0.166824  0  3.636632  0  0  -0.265678  0  3.884405  0  0  -0.262231  0  3.89474  0  0.244046  0  -0.135606  -0.267639  0  3.877161  0
C  C107  1  0.19491066  0.00404663  0.42399604  1  0  -0.166765  0  3.636493  0  0  -0.265598  0  3.884256  0  0  -0.262152  0  3.89459  0  0.243941  0  -0.135625  -0.26756  0  3.877013  0
N  N108  1  0.10989171  0.46391836  0.82889696  1  0  -0.686434  0  3.157256  0  0  -0.623058  0  3.407134  0  0  -0.644097  0  3.400132  0  -1.228547  0  -0.605385  -0.608639  0  3.412955  0
N  N109  1  0.60989190  0.53608049  0.67110204  1  0  -0.686393  0  3.15726  0  0  -0.623047  0  3.407151  0  0  -0.644086  0  3.400146  0  -1.228496  0  -0.605389  -0.608627  0  3.41297  0
N  N110  1  0.89010866  0.53608149  0.17110204  1  0  -0.686377  0  3.15725  0  0  -0.623035  0  3.407131  0  0  -0.644073  0  3.400127  0  -1.228529  0  -0.60538  -0.608623  0  3.412957  0
N  N111  1  0.39010847  0.46391836  0.32889696  1  0  -0.686426  0  3.157231  0  0  -0.623044  0  3.407127  0  0  -0.644083  0  3.400125  0  -1.228533  0  -0.60538  -0.608623  0  3.412946  0
N  N112  1  0.13975648  0.96123069  0.89065446  1  0  -0.122799  0  3.435014  0  0  -0.022989  0  3.665301  0  0  -0.04333  0  3.68874  0  -1.192092  0  -0.274704  -0.009077  0  3.64885  0
N  N113  1  0.63975923  0.03876816  0.60934641  1  0  -0.122736  0  3.435025  0  0  -0.022943  0  3.665323  0  0  -0.043281  0  3.688764  0  -1.192097  0  -0.274726  -0.009031  0  3.648872  0
N  N114  1  0.86024261  0.03876716  0.10934640  1  0  -0.122712  0  3.435013  0  0  -0.022888  0  3.665297  0  0  -0.043229  0  3.688735  0  -1.192084  0  -0.274689  -0.008977  0  3.648846  0
N  N115  1  0.36024499  0.96123069  0.39065446  1  0  -0.122782  0  3.434946  0  0  -0.022951  0  3.665233  0  0  -0.043292  0  3.688676  0  -1.192093  0  -0.27466  -0.009038  0  3.648782  0
O  O116  1  0.73667741  0.32622895  0.77506363  1  0  -0.669081  0  2.026253  0  0  -0.589819  0  2.279508  0  0  -0.618986  0  2.267106  0  -1.162097  0  -0.328734  -0.569374  0  2.287502  0
O  O117  1  0.23667722  0.67376990  0.72493662  1  0  -0.669019  0  2.026214  0  0  -0.589792  0  2.279524  0  0  -0.618968  0  2.267149  0  -1.162089  0  -0.328723  -0.569347  0  2.287522  0
O  O118  1  0.26332296  0.67376990  0.22493599  1  0  -0.669072  0  2.026226  0  0  -0.58983  0  2.279485  0  0  -0.618999  0  2.26709  0  -1.162056  0  -0.32873  -0.569386  0  2.287483  0
O  O119  1  0.76332187  0.32622895  0.27506300  1  0  -0.669043  0  2.026195  0  0  -0.589811  0  2.27949  0  0  -0.618979  0  2.267095  0  -1.162081  0  -0.328714  -0.569366  0  2.287485  0
O  O120  1  0.83605057  0.28409242  0.90277865  1  0  -0.612832  0  1.97016  0  0  -0.558308  0  2.200954  0  0  -0.583336  0  2.195116  0  -1.180552  0  -0.310888  -0.540898  0  2.204455  0
O  O121  1  0.33605166  0.71590843  0.59722161  1  0  -0.612843  0  1.970151  0  0  -0.558312  0  2.200949  0  0  -0.583342  0  2.195113  0  -1.180717  0  -0.31091  -0.540903  0  2.204451  0
O  O122  1  0.16394724  0.71590843  0.09722036  1  0  -0.612855  0  1.970171  0  0  -0.558345  0  2.200967  0  0  -0.583375  0  2.195131  0  -1.180596  0  -0.310912  -0.540933  0  2.204469  0
O  O123  1  0.66394743  0.28409242  0.40277927  1  0  -0.612864  0  1.970123  0  0  -0.55834  0  2.200916  0  0  -0.583368  0  2.195077  0  -1.180568  0  -0.310923  -0.540928  0  2.204419  0
O  O124  1  0.20913026  0.38111672  0.14394985  1  0  -0.622131  0  1.957832  0  0  -0.570436  0  2.185074  0  0  -0.593715  0  2.177117  0  -1.20554  0  -0.315837  -0.554148  0  2.190122  0
O  O125  1  0.70913045  0.61888313  0.35604915  1  0  -0.622189  0  1.957713  0  0  -0.570501  0  2.184952  0  0  -0.593781  0  2.176997  0  -1.205784  0  -0.315873  -0.554216  0  2.190006  0
O  O126  1  0.79086883  0.61888213  0.85604914  1  0  -0.622197  0  1.957745  0  0  -0.570528  0  2.185003  0  0  -0.593807  0  2.177048  0  -1.205797  0  -0.315891  -0.554243  0  2.190055  0
O  O127  1  0.29086992  0.38111672  0.64394985  1  0  -0.622214  0  1.95779  0  0  -0.570527  0  2.185033  0  0  -0.593805  0  2.177078  0  -1.205532  0  -0.315889  -0.554239  0  2.190083  0
O  O128  1  0.47584147  0.29212575  0.14547696  1  0  -0.669654  0  2.076743  0  0  -0.599076  0  2.361136  0  0  -0.628166  0  2.345669  0  -1.176652  0  -0.336719  -0.57846  0  2.371027  0
O  O129  1  0.97584294  0.70787510  0.35452267  1  0  -0.66967  0  2.076722  0  0  -0.599085  0  2.361109  0  0  -0.628175  0  2.345644  0  -1.176688  0  -0.336717  -0.578468  0  2.370993  0
O  O130  1  0.52415634  0.70787410  0.85452204  1  0  -0.669636  0  2.076797  0  0  -0.599025  0  2.361143  0  0  -0.628115  0  2.345681  0  -1.176593  0  -0.336689  -0.578406  0  2.371023  0
O  O131  1  0.02415743  0.29212575  0.64547696  1  0  -0.669635  0  2.076715  0  0  -0.599058  0  2.36111  0  0  -0.628148  0  2.345644  0  -1.176679  0  -0.336722  -0.578445  0  2.371002  0
O  O132  1  0.11836553  0.14590954  0.81155447  1  0  -0.614919  0  2.125625  0  0  -0.543157  0  2.39763  0  0  -0.570442  0  2.385725  0  -1.180244  0  -0.306956  -0.524137  0  2.40552  0
O  O133  1  0.61836572  0.85408831  0.68844576  1  0  -0.614904  0  2.125662  0  0  -0.543144  0  2.397658  0  0  -0.570431  0  2.385768  0  -1.180191  0  -0.30697  -0.524129  0  2.405557  0
O  O134  1  0.88163484  0.85408931  0.18844639  1  0  -0.614929  0  2.125666  0  0  -0.543169  0  2.397686  0  0  -0.570451  0  2.385771  0  -1.180215  0  -0.306982  -0.524152  0  2.405581  0
O  O135  1  0.38163594  0.14590954  0.31155385  1  0  -0.614955  0  2.125568  0  0  -0.543182  0  2.397597  0  0  -0.570462  0  2.385687  0  -1.180216  0  -0.306977  -0.524173  0  2.405511  0
