# generated using pymatgen
data_Zr3H5C26S5Br5O17
_symmetry_space_group_name_H-M   'P 1'
_cell_length_a   16.46982472
_cell_length_b   16.45185072
_cell_length_c   16.53356127
_cell_angle_alpha   61.68786979
_cell_angle_beta   59.79625471
_cell_angle_gamma   60.29959016
_symmetry_Int_Tables_number   1
_chemical_formula_structural   Zr3H5C26S5Br5O17
_chemical_formula_sum   'Zr6 H10 C52 S10 Br10 O34'
_cell_volume   3208.46176254
_cell_formula_units_Z   2
loop_
 _symmetry_equiv_pos_site_id
 _symmetry_equiv_pos_as_xyz
  1  'x, y, z'
loop_
 _atom_site_type_symbol
 _atom_site_label
 _atom_site_symmetry_multiplicity
 _atom_site_fract_x
 _atom_site_fract_y
 _atom_site_fract_z
 _atom_site_occupancy
 _atom_site_pbe_bader_charge
 _atom_site_pbe_bader_spin_density
 _atom_site_pbe_cm5_charge
 _atom_site_pbe_ddec_charge
 _atom_site_pbe_ddec_spin_density
 _atom_site_pbe_ddec_sum_bond_order
 _atom_site_pbe_magmom
Zr  Zr0  1  0.88834538  0.90196271  0.59826824  1  2.637965  0  1.630364  2.377243  0  2.776148  0
Zr  Zr1  1  0.11149708  0.10281951  0.39731518  1  2.636578  0  1.630429  2.376794  0  2.777184  0
Zr  Zr2  1  0.10237062  0.89400748  0.60638085  1  2.635361  0  1.619722  2.37988  0  2.740893  0
Zr  Zr3  1  0.89724190  0.11104607  0.38934073  1  2.636475  0  1.619442  2.379534  0  2.741025  0
Zr  Zr4  1  0.10875795  0.89352179  0.38886994  1  2.638565  0  1.618157  2.381268  0  2.727663  0
Zr  Zr5  1  0.89089620  0.11143014  0.60675362  1  2.63955  0  1.618724  2.381311  0  2.729194  0
H  H6  1  0.07802813  0.75234915  0.57727007  1  0.590067  0  0.332304  0.426168  0  0.85159  0
H  H7  1  0.09238670  0.08188561  0.24766857  1  0.624261  0  0.332439  0.426516  0  0.852597  0
H  H8  1  0.08366562  0.08219852  0.58879221  1  0.603282  0  0.331273  0.426724  0  0.849679  0
H  H9  1  0.74533485  0.09347236  0.57761268  1  0.602487  0  0.331353  0.426489  0  0.850159  0
H  H10  1  0.09956082  0.64006552  0.86813168  1  0.067205  0  0.100164  0.093863  0  1.055932  0
H  H11  1  0.84159013  0.65412388  0.85163301  1  0.117002  0  0.114503  0.142803  0  0.986474  0
H  H12  1  0.89234921  0.37275674  0.13556930  1  0.08158  0  0.100114  0.093633  0  1.055901  0
H  H13  1  0.15300232  0.35595658  0.14937453  1  0.121541  0  0.11444  0.142711  0  0.986722  0
H  H14  1  0.18272245  0.56115887  0.93997762  1  0.600365  0  0.3207  0.348567  0  0.924547  0
H  H15  1  0.81614611  0.44466051  0.05674244  1  0.600444  0  0.320907  0.349128  0  0.924109  0
C  C16  1  0.99621293  0.73908366  0.48310572  1  1.582953  0  0.223738  0.655537  0  4.146113  0
C  C17  1  0.28178468  0.98742940  0.23466015  1  1.566576  0  0.223884  0.656091  0  4.144274  0
C  C18  1  0.99652991  0.27287741  0.50529400  1  1.58149  0  0.224568  0.656271  0  4.144672  0
C  C19  1  0.72549893  0.00972058  0.76847854  1  1.578179  0  0.224508  0.656516  0  4.144934  0
C  C20  1  0.98061221  0.74074118  0.76581302  1  1.561511  0  0.23656  0.644129  0  4.084574  0
C  C21  1  0.73147991  0.00365994  0.48886875  1  1.579823  0  0.222769  0.65507  0  4.147996  0
C  C22  1  0.01300651  0.27033792  0.23612541  1  1.54004  0  0.236271  0.642564  0  4.085854  0
C  C23  1  0.27601094  0.99343457  0.49905350  1  1.596375  0  0.222736  0.654652  0  4.149446  0
C  C24  1  0.27292591  0.73075530  0.49716510  1  1.587999  0  0.224208  0.656296  0  4.141859  0
C  C25  1  0.99270468  0.99595824  0.77684155  1  1.579386  0  0.224113  0.656552  0  4.144115  0
C  C26  1  0.73423573  0.28137318  0.49150073  1  1.576504  0  0.224087  0.656089  0  4.142925  0
C  C27  1  0.99888402  0.00162633  0.22628676  1  1.596542  0  0.224442  0.655088  0  4.14177  0
C  C28  1  0.92509739  0.42395741  0.56372631  1  -0.021629  0  -0.022825  0.062621  0  3.993847  0
C  C29  1  0.06415863  0.59104057  0.42144368  1  -0.027546  0  -0.023223  0.062376  0  3.996142  0
C  C30  1  0.99308682  0.36481970  0.50266149  1  -0.096679  0  -0.027357  -0.17138  0  3.930278  0
C  C31  1  0.99669482  0.64982091  0.48291912  1  -0.089093  0  -0.028193  -0.172729  0  3.931116  0
C  C32  1  0.03797907  0.50881294  0.45065127  1  -0.118157  0  -0.028956  -0.060598  0  4.09803  0
C  C33  1  0.95073765  0.50667301  0.53402961  1  -0.115567  0  -0.029052  -0.060108  0  4.097167  0
C  C34  1  0.42375972  0.92552172  0.08682208  1  -0.063242  0  -0.023005  0.061933  0  3.996804  0
C  C35  1  0.58805720  0.06739906  0.92019060  1  -0.015411  0  -0.022589  0.063559  0  3.99334  0
C  C36  1  0.37108732  0.98688170  0.14571361  1  -0.053706  0  -0.028355  -0.172837  0  3.930471  0
C  C37  1  0.63999963  0.00668397  0.86074211  1  -0.121733  0  -0.027767  -0.172259  0  3.930545  0
C  C38  1  0.50947250  0.03760664  0.00291599  1  -0.130252  0  -0.028982  -0.060707  0  4.096897  0
C  C39  1  0.50318029  0.95452830  0.00477419  1  -0.113011  0  -0.028972  -0.059933  0  4.098038  0
C  C40  1  0.05995255  0.92843074  0.91684715  1  -0.06133  0  -0.022614  0.064399  0  3.982546  0
C  C41  1  0.92698332  0.06486575  0.09076880  1  -0.015232  0  -0.022495  0.065462  0  3.983593  0
C  C42  1  0.99352801  0.99324526  0.86671571  1  -0.03905  0  -0.026287  -0.16909  0  3.915237  0
C  C43  1  0.99415900  0.00072555  0.14015730  1  -0.121258  0  -0.026462  -0.168322  0  3.916568  0
C  C44  1  0.95056102  0.03841158  0.00965240  1  -0.086153  0  -0.029346  -0.061922  0  4.096047  0
C  C45  1  0.03556510  0.95413191  0.99872763  1  -0.154518  0  -0.029196  -0.060474  0  4.094873  0
C  C46  1  0.41657290  0.59481391  0.56102286  1  0.003495  0  -0.022423  0.065057  0  3.982729  0
C  C47  1  0.59407292  0.42103843  0.42445658  1  0.012031  0  -0.022532  0.065005  0  3.98343  0
C  C48  1  0.36434758  0.64430688  0.49668447  1  -0.122781  0  -0.026364  -0.168807  0  3.915291  0
C  C49  1  0.64588260  0.37092157  0.48920388  1  -0.098909  0  -0.026201  -0.168876  0  3.916084  0
C  C50  1  0.51077627  0.50274460  0.45032548  1  -0.175933  0  -0.029526  -0.061688  0  4.097958  0
C  C51  1  0.50048328  0.51360736  0.53468120  1  -0.151757  0  -0.029265  -0.060647  0  4.09658  0
C  C52  1  0.04198277  0.60779825  0.89950030  1  -0.082837  0  -0.09784  -0.170862  0  4.001734  0
C  C53  1  0.89499765  0.61743897  0.88889368  1  -0.005316  0  -0.101487  -0.226655  0  3.942412  0
C  C54  1  0.88764936  0.53571350  0.96986291  1  0.487555  0  0.087973  0.280582  0  4.056019  0
C  C55  1  0.95734966  0.48681984  0.01977334  1  0.007779  0  -0.014996  -0.019341  0  4.012299  0
C  C56  1  0.95085282  0.40408794  0.10329089  1  -0.004813  0  -0.097382  -0.169177  0  4.002769  0
C  C57  1  0.09888953  0.39336601  0.11281629  1  -0.002277  0  -0.101197  -0.225042  0  3.941906  0
C  C58  1  0.10697180  0.47436742  0.03112879  1  0.443219  0  0.087326  0.278572  0  4.057617  0
C  C59  1  0.03623280  0.52431907  0.98226500  1  0.03612  0  -0.014464  -0.017456  0  4.01209  0
C  C60  1  0.97246004  0.65342707  0.85396006  1  0.021802  0  -0.018535  -0.01185  0  4.018684  0
C  C61  1  0.02030297  0.35851497  0.14888042  1  -0.034983  0  -0.018713  -0.013228  0  4.02158  0
C  C62  1  0.41930618  0.05956771  0.42757807  1  -0.055032  0  -0.022304  0.063723  0  3.987164  0
C  C63  1  0.59343919  0.93227637  0.55503356  1  -0.016276  0  -0.023152  0.062418  0  3.988014  0
C  C64  1  0.36719816  0.99427127  0.49374560  1  -0.086255  0  -0.027513  -0.168817  0  3.925071  0
C  C65  1  0.64471551  0.99840970  0.48973627  1  -0.118839  0  -0.027219  -0.167921  0  3.924129  0
C  C66  1  0.51169694  0.95416433  0.53197136  1  -0.136985  0  -0.029452  -0.058749  0  4.099732  0
C  C67  1  0.50219016  0.03659019  0.44949708  1  -0.11586  0  -0.029508  -0.058481  0  4.099739  0
S  S68  1  0.08843910  0.41026796  0.40872933  1  0.293918  0  0.096359  0.159111  0  2.801323  0
S  S69  1  0.90079244  0.60484587  0.57635368  1  0.289677  0  0.094635  0.156188  0  2.814775  0
S  S70  1  0.41893320  0.07991565  0.10110537  1  0.298693  0  0.094418  0.156229  0  2.814402  0
S  S71  1  0.59300758  0.91288475  0.90599460  1  0.308227  0  0.096446  0.159175  0  2.802266  0
S  S72  1  0.90071570  0.08575467  0.92027588  1  0.286318  0  0.093955  0.152683  0  2.811024  0
S  S73  1  0.08608718  0.90739556  0.08743552  1  0.293806  0  0.094383  0.152391  0  2.806081  0
S  S74  1  0.41845277  0.59151670  0.40340838  1  0.32908  0  0.094247  0.152586  0  2.806851  0
S  S75  1  0.59246920  0.42429388  0.58190425  1  0.311271  0  0.093874  0.152137  0  2.809447  0
S  S76  1  0.41996449  0.90458041  0.58243218  1  0.31691  0  0.090836  0.145731  0  2.82124  0
S  S77  1  0.59302272  0.08705318  0.39997479  1  0.306699  0  0.090702  0.145268  0  2.822558  0
Br  Br78  1  0.81183404  0.40307743  0.67339906  1  0.010393  0  0.052478  -0.005539  0  1.433923  0
Br  Br79  1  0.17804548  0.61123201  0.31241322  1  0.010696  0  0.052381  -0.005626  0  1.431065  0
Br  Br80  1  0.39810787  0.81703496  0.10656977  1  0.01149  0  0.052237  -0.005594  0  1.430041  0
Br  Br81  1  0.61265289  0.17682890  0.89968519  1  0.010236  0  0.052536  -0.005695  0  1.434921  0
Br  Br82  1  0.17226659  0.81940323  0.88534705  1  -0.000527  0  0.050006  -0.008935  0  1.433459  0
Br  Br83  1  0.81562947  0.17463069  0.12165657  1  0.001386  0  0.048974  -0.010078  0  1.442193  0
Br  Br84  1  0.38714332  0.62569463  0.67088230  1  0.002425  0  0.049077  -0.00992  0  1.441196  0
Br  Br85  1  0.62228507  0.38967237  0.31533595  1  -0.001103  0  0.050154  -0.008917  0  1.4332  0
Br  Br86  1  0.39079038  0.16756569  0.32076259  1  0.016934  0  0.057886  -0.002621  0  1.458834  0
Br  Br87  1  0.62072800  0.82555296  0.66308906  1  0.015317  0  0.05811  -0.00214  0  1.458661  0
O  O88  1  0.92481472  0.77554576  0.55181187  1  -1.174741  0  -0.352647  -0.610227  0  2.28489  0
O  O89  1  0.24795454  0.05619267  0.27106070  1  -1.171362  0  -0.352861  -0.610444  0  2.285057  0
O  O90  1  0.06962699  0.23490911  0.43826624  1  -1.177308  0  -0.352768  -0.61124  0  2.281402  0
O  O91  1  0.75722452  0.94289393  0.73032332  1  -1.17866  0  -0.353048  -0.611473  0  2.282078  0
O  O92  1  0.05209641  0.77118582  0.73463166  1  -1.181773  0  -0.352408  -0.616356  0  2.277627  0
O  O93  1  0.76533369  0.07253394  0.42210376  1  -1.17361  0  -0.347912  -0.610281  0  2.249813  0
O  O94  1  0.94218600  0.23921759  0.26659370  1  -1.176468  0  -0.352498  -0.61569  0  2.276889  0
O  O95  1  0.24002346  0.92669976  0.56794292  1  -1.183721  0  -0.348283  -0.609812  0  2.250068  0
O  O96  1  0.24092691  0.76220310  0.42780509  1  -1.176627  0  -0.348069  -0.607972  0  2.249934  0
O  O97  1  0.92473366  0.06699586  0.74351910  1  -1.177181  0  -0.347721  -0.608543  0  2.252162  0
O  O98  1  0.76465624  0.24812963  0.56242279  1  -1.175014  0  -0.348246  -0.608678  0  2.248762  0
O  O99  1  0.06888103  0.93238138  0.25767929  1  -1.176806  0  -0.348321  -0.607742  0  2.250085  0
O  O100  1  0.06128165  0.92768996  0.73865498  1  -1.180025  0  -0.364557  -0.619964  0  2.336297  0
O  O101  1  0.77227220  0.24336049  0.42306524  1  -1.173305  0  -0.36381  -0.619345  0  2.335536  0
O  O102  1  0.93324496  0.07249923  0.26178453  1  -1.176447  0  -0.364808  -0.6196  0  2.333773  0
O  O103  1  0.23234060  0.76645641  0.56787419  1  -1.176986  0  -0.364843  -0.620439  0  2.335402  0
O  O104  1  0.91509997  0.77839571  0.72624091  1  -1.184268  0  -0.364881  -0.620585  0  2.30454  0
O  O105  1  0.23912197  0.06200356  0.43372299  1  -1.185026  0  -0.369778  -0.619533  0  2.363959  0
O  O106  1  0.08052004  0.23065471  0.27369065  1  -1.182648  0  -0.364691  -0.619381  0  2.305372  0
O  O107  1  0.76514486  0.93830460  0.55742510  1  -1.178042  0  -0.370036  -0.619763  0  2.363261  0
O  O108  1  0.76059923  0.07836013  0.73335931  1  -1.171924  0  -0.363153  -0.617488  0  2.325146  0
O  O109  1  0.06716493  0.77193705  0.41691912  1  -1.184443  0  -0.362974  -0.616489  0  2.324708  0
O  O110  1  0.24393745  0.92146360  0.26732991  1  -1.170623  0  -0.362927  -0.616799  0  2.323756  0
O  O111  1  0.92778363  0.23784227  0.57377108  1  -1.176249  0  -0.36385  -0.617917  0  2.325083  0
O  O112  1  0.81767348  0.06862005  0.55451095  1  -1.232861  0  -0.693166  -1.068186  0  2.350081  0
O  O113  1  0.05924950  0.05913080  0.56393729  1  -1.232407  0  -0.693019  -1.06868  0  2.349458  0
O  O114  1  0.06651228  0.05851828  0.31875113  1  -1.251677  0  -0.694125  -1.070453  0  2.35909  0
O  O115  1  0.05614163  0.82342566  0.55390251  1  -1.217721  0  -0.694174  -1.070077  0  2.357347  0
O  O116  1  0.13405834  0.95356614  0.45603623  1  -1.198234  0  -0.789745  -1.148498  0  2.120147  0
O  O117  1  0.95627483  0.96070137  0.44894685  1  -1.202853  0  -0.789658  -1.148687  0  2.120245  0
O  O118  1  0.95826728  0.13415399  0.45668040  1  -1.198239  0  -0.790786  -1.149134  0  2.126056  0
O  O119  1  0.95085613  0.96135203  0.62955227  1  -1.198513  0  -0.790826  -1.14932  0  2.125897  0
O  O120  1  0.18456194  0.50481542  0.99868347  1  -1.116986  0  -0.354714  -0.43604  0  2.258184  0
O  O121  1  0.81202173  0.50331072  0.00034728  1  -1.11879  0  -0.354859  -0.436834  0  2.257568  0
