# generated using pymatgen
data_KH25C19(NO)2
_symmetry_space_group_name_H-M   'P 1'
_cell_length_a   7.65083373
_cell_length_b   10.25946611
_cell_length_c   13.18545778
_cell_angle_alpha   107.92532505
_cell_angle_beta   88.91609879
_cell_angle_gamma   108.23648692
_symmetry_Int_Tables_number   1
_chemical_formula_structural   KH25C19(NO)2
_chemical_formula_sum   'K2 H50 C38 N4 O4'
_cell_volume   931.83608576
_cell_formula_units_Z   2
loop_
 _symmetry_equiv_pos_site_id
 _symmetry_equiv_pos_as_xyz
  1  'x, y, z'
loop_
 _atom_site_type_symbol
 _atom_site_label
 _atom_site_symmetry_multiplicity
 _atom_site_fract_x
 _atom_site_fract_y
 _atom_site_fract_z
 _atom_site_occupancy
 _atom_site_hle17_bader_spin_density
 _atom_site_hle17_ddec_charge
 _atom_site_hle17_ddec_spin_density
 _atom_site_hle17_ddec_sum_bond_order
 _atom_site_hle17_magmom
 _atom_site_hse06_10hf_bader_spin_density
 _atom_site_hse06_10hf_ddec_charge
 _atom_site_hse06_10hf_ddec_spin_density
 _atom_site_hse06_10hf_ddec_sum_bond_order
 _atom_site_hse06_10hf_magmom
 _atom_site_hse06_bader_spin_density
 _atom_site_hse06_ddec_charge
 _atom_site_hse06_ddec_spin_density
 _atom_site_hse06_ddec_sum_bond_order
 _atom_site_hse06_magmom
 _atom_site_pbe_bader_spin_density
 _atom_site_pbe_cm5_charge
 _atom_site_pbe_ddec_charge
 _atom_site_pbe_ddec_spin_density
 _atom_site_pbe_ddec_sum_bond_order
 _atom_site_pbe_magmom
K  K0  1  0.29413441  0.02773800  0.52712566  1  0  0.882471  0  0.563712  0  0  0.802206  0  0.778423  0  0  0.819195  0  0.758246  0  0  0.876981  0.789584  0  0.792853  0
K  K1  1  0.70586914  0.97225859  0.47287264  1  0  0.882483  0  0.5637  0  0  0.802226  0  0.778406  0  0  0.81921  0  0.758232  0  0  0.87699  0.789606  0  0.792839  0
H  H2  1  0.88258202  0.72719533  0.45186477  1  0  0.091191  0  0.945334  0  0  0.111153  0  1.005372  0  0  0.111773  0  1.005376  0  0  0.108601  0.110606  0  1.005487  0
H  H3  1  0.11741940  0.27280561  0.54813533  1  0  0.091167  0  0.945353  0  0  0.111132  0  1.00539  0  0  0.11175  0  1.005397  0  0  0.108595  0.110589  0  1.005503  0
H  H4  1  0.78425331  0.68385003  0.56752371  1  0  0.075599  0  0.968452  0  0  0.089533  0  1.042233  0  0  0.089903  0  1.042481  0  0  0.092848  0.089177  0  1.042174  0
H  H5  1  0.21574984  0.31615197  0.43247816  1  0  0.075585  0  0.968478  0  0  0.089542  0  1.042238  0  0  0.089918  0  1.042477  0  0  0.092839  0.089192  0  1.042172  0
H  H6  1  0.02591996  0.71667711  0.55265916  1  0  0.075746  0  0.968302  0  0  0.092365  0  1.037012  0  0  0.092415  0  1.037751  0  0  0.095671  0.092102  0  1.036809  0
H  H7  1  0.97408540  0.28332382  0.44734016  1  0  0.075748  0  0.96836  0  0  0.092363  0  1.037075  0  0  0.092406  0  1.037828  0  0  0.095661  0.092103  0  1.036873  0
H  H8  1  0.60621230  0.02761227  0.94263715  1  0  0.083011  0  0.986247  0  0  0.096839  0  1.04765  0  0  0.098593  0  1.047825  0  0  0.094919  0.095484  0  1.04776  0
H  H9  1  0.39378458  0.97238659  0.05735185  1  0  0.083007  0  0.98596  0  0  0.096753  0  1.04749  0  0  0.098502  0  1.04768  0  0  0.094905  0.095398  0  1.047593  0
H  H10  1  0.18289679  0.51874062  0.04862301  1  0  0.082637  0  0.963287  0  0  0.097805  0  1.020342  0  0  0.100231  0  1.019417  0  0  0.094809  0.096082  0  1.020973  0
H  H11  1  0.81707616  0.48124527  0.95137205  1  0  0.082733  0  0.963266  0  0  0.09779  0  1.02044  0  0  0.100199  0  1.019536  0  0  0.094845  0.09606  0  1.021076  0
H  H12  1  0.37079619  0.71832091  0.20448536  1  0  0.091586  0  0.962688  0  0  0.103876  0  1.025103  0  0  0.107223  0  1.022909  0  0  0.099117  0.101541  0  1.026685  0
H  H13  1  0.62920000  0.28167032  0.79550712  1  0  0.091535  0  0.962844  0  0  0.103899  0  1.02517  0  0  0.107252  0  1.022976  0  0  0.099147  0.101563  0  1.026755  0
H  H14  1  0.31346445  0.61119052  0.50444881  1  0  0.015859  0  0.946439  0  0  0.034425  0  1.010925  0  0  0.036319  0  1.00661  0  0  0.100954  0.032932  0  1.014111  0
H  H15  1  0.68654920  0.38880821  0.49554770  1  0  0.015782  0  0.946379  0  0  0.034342  0  1.010886  0  0  0.036237  0  1.006569  0  0  0.100916  0.032865  0  1.014061  0
H  H16  1  0.27972739  0.35541137  0.85340935  1  0  0.070073  0  0.938869  0  0  0.0887  0  1.004002  0  0  0.089182  0  1.003491  0  0  0.090784  0.088193  0  1.004474  0
H  H17  1  0.72027553  0.64459608  0.14658927  1  0  0.070161  0  0.938834  0  0  0.088769  0  1.003961  0  0  0.08925  0  1.003451  0  0  0.090819  0.088265  0  1.004433  0
H  H18  1  0.86154077  0.88149579  0.73864264  1  0  0.061127  0  0.971308  0  0  0.073106  0  1.037638  0  0  0.07161  0  1.041537  0  0  0.102691  0.074074  0  1.035089  0
H  H19  1  0.13847196  0.11850726  0.26135945  1  0  0.061113  0  0.971275  0  0  0.073051  0  1.037703  0  0  0.071554  0  1.041603  0  0  0.102668  0.074016  0  1.035146  0
H  H20  1  0.74570531  0.26658466  0.05702184  1  0  0.10228  0  0.973433  0  0  0.123882  0  1.03549  0  0  0.124263  0  1.037138  0  0  0.087133  0.12359  0  1.034327  0
H  H21  1  0.25428054  0.73340437  0.94298153  1  0  0.102326  0  0.973373  0  0  0.123886  0  1.035497  0  0  0.124267  0  1.037145  0  0  0.087104  0.123592  0  1.03433  0
H  H22  1  0.90794374  0.17421389  0.04745142  1  0  0.10062  0  0.946153  0  0  0.123679  0  1.006175  0  0  0.12488  0  1.005905  0  0  0.087586  0.122823  0  1.00636  0
H  H23  1  0.09204131  0.82577949  0.95255299  1  0  0.100639  0  0.946224  0  0  0.123734  0  1.006202  0  0  0.124942  0  1.005925  0  0  0.087594  0.122872  0  1.00639  0
H  H24  1  0.90698040  0.13430635  0.73209047  1  0  0.059266  0  0.921133  0  0  0.072526  0  0.986964  0  0  0.072853  0  0.987098  0  0  0.106543  0.07181  0  0.987584  0
H  H25  1  0.09302494  0.86569456  0.26790961  1  0  0.059216  0  0.921268  0  0  0.072468  0  0.987071  0  0  0.072794  0  0.987206  0  0  0.106535  0.071752  0  0.98769  0
H  H26  1  0.49074168  0.59552409  0.61994505  1  0  0.083219  0  0.967418  0  0  0.094721  0  1.029895  0  0  0.097847  0  1.027837  0  0  0.092391  0.092445  0  1.03147  0
H  H27  1  0.50926535  0.40447141  0.38005222  1  0  0.083286  0  0.967416  0  0  0.094736  0  1.029937  0  0  0.097858  0  1.027884  0  0  0.092392  0.092469  0  1.031499  0
H  H28  1  0.92994800  0.29641189  0.97364035  1  0  0.096061  0  0.974568  0  0  0.114479  0  1.044074  0  0  0.115563  0  1.044451  0  0  0.085115  0.113518  0  1.04411  0
H  H29  1  0.07003867  0.70357929  0.02636657  1  0  0.096092  0  0.974436  0  0  0.114496  0  1.044006  0  0  0.115579  0  1.044387  0  0  0.085152  0.113536  0  1.044034  0
H  H30  1  0.59603906  0.58927758  0.79233480  1  0  0.083146  0  0.990466  0  0  0.094327  0  1.053385  0  0  0.095671  0  1.054947  0  0  0.092356  0.093248  0  1.052472  0
H  H31  1  0.40396355  0.41072332  0.20766984  1  0  0.083117  0  0.990621  0  0  0.094346  0  1.05348  0  0  0.09569  0  1.055043  0  0  0.092354  0.093264  0  1.052568  0
H  H32  1  0.03573136  0.12754903  0.84064310  1  0  0.050109  0  0.936915  0  0  0.066836  0  1.001328  0  0  0.066035  0  1.002327  0  0  0.102048  0.0673  0  1.000756  0
H  H33  1  0.96427657  0.87245187  0.15935773  1  0  0.050092  0  0.936886  0  0  0.066803  0  1.001291  0  0  0.066001  0  1.002287  0  0  0.101992  0.067268  0  1.000718  0
H  H34  1  0.49954801  0.03536488  0.76900143  1  0  0.091919  0  0.963478  0  0  0.099744  0  1.033267  0  0  0.104145  0  1.029556  0  0  0.101769  0.096704  0  1.035718  0
H  H35  1  0.50045345  0.96462959  0.23099181  1  0  0.091839  0  0.963522  0  0  0.099731  0  1.033233  0  0  0.104131  0  1.029523  0  0  0.101772  0.096686  0  1.035683  0
H  H36  1  0.10123032  0.90866054  0.71968197  1  0  0.056184  0  0.923864  0  0  0.069139  0  0.989795  0  0  0.069382  0  0.989523  0  0  0.103792  0.068639  0  0.990775  0
H  H37  1  0.89878033  0.09134361  0.28031735  1  0  0.056107  0  0.924034  0  0  0.069105  0  0.989926  0  0  0.069348  0  0.989654  0  0  0.10376  0.068602  0  0.990905  0
H  H38  1  0.04482272  0.51253732  0.41626152  1  0  0.074526  0  0.995888  0  0  0.086029  0  1.063069  0  0  0.088447  0  1.062023  0  0  0.089987  0.084232  0  1.063996  0
H  H39  1  0.95517866  0.48746684  0.58374315  1  0  0.074488  0  0.995872  0  0  0.085998  0  1.06306  0  0  0.088408  0  1.062024  0  0  0.089981  0.0842  0  1.063993  0
H  H40  1  0.75868518  0.90549183  0.03711626  1  0  0.099876  0  0.952859  0  0  0.122192  0  1.013538  0  0  0.123715  0  1.013035  0  0  0.087181  0.121024  0  1.014004  0
H  H41  1  0.24131686  0.09451995  0.96288643  1  0  0.099857  0  0.952863  0  0  0.122193  0  1.013523  0  0  0.123716  0  1.013019  0  0  0.087207  0.121028  0  1.013984  0
H  H42  1  0.73558449  0.71907146  0.97586149  1  0  0.101085  0  0.983753  0  0  0.121815  0  1.049797  0  0  0.122841  0  1.050298  0  0  0.086787  0.120979  0  1.049541  0
H  H43  1  0.26442227  0.28093596  0.02414014  1  0  0.101071  0  0.983686  0  0  0.121829  0  1.049711  0  0  0.122854  0  1.050212  0  0  0.08678  0.120992  0  1.049462  0
H  H44  1  0.54698345  0.77005335  0.03454509  1  0  0.098791  0  0.947182  0  0  0.123072  0  1.005929  0  0  0.123818  0  1.00617  0  0  0.08717  0.122459  0  1.005826  0
H  H45  1  0.45301369  0.22995302  0.96545708  1  0  0.098803  0  0.947188  0  0  0.123077  0  1.005937  0  0  0.123823  0  1.006178  0  0  0.087177  0.122466  0  1.005835  0
H  H46  1  0.85960204  0.31568384  0.26176403  1  0  0.08631  0  0.972308  0  0  0.098377  0  1.033907  0  0  0.100282  0  1.034285  0  0  0.093579  0.09663  0  1.034504  0
H  H47  1  0.14038777  0.68431491  0.73824620  1  0  0.086305  0  0.972321  0  0  0.098336  0  1.033957  0  0  0.100238  0  1.034338  0  0  0.093561  0.0966  0  1.034551  0
H  H48  1  0.13992201  0.37310785  0.75384735  1  0  0.0749  0  0.987522  0  0  0.088091  0  1.060369  0  0  0.087497  0  1.063476  0  0  0.090892  0.088468  0  1.058202  0
H  H49  1  0.86007736  0.62689420  0.24614923  1  0  0.074937  0  0.987568  0  0  0.088118  0  1.060409  0  0  0.087526  0  1.063514  0  0  0.090897  0.0885  0  1.058243  0
H  H50  1  0.37210821  0.37313503  0.73089478  1  0  0.089445  0  0.954701  0  0  0.106135  0  1.01983  0  0  0.106082  0  1.020708  0  0  0.102577  0.10608  0  1.019292  0
H  H51  1  0.62789382  0.62687026  0.26910256  1  0  0.089448  0  0.954597  0  0  0.106093  0  1.019775  0  0  0.106038  0  1.020658  0  0  0.102573  0.106041  0  1.019238  0
C  C52  1  0.22827498  0.62932111  0.32288879  1  0  0.237702  0  3.895784  0  0  0.23792  0  4.144866  0  0  0.246967  0  4.166875  0  0  0.081099  0.231702  0  4.129925  0
C  C53  1  0.77173214  0.37068089  0.67711079  1  0  0.237722  0  3.895763  0  0  0.23799  0  4.144791  0  0  0.247036  0  4.166803  0  0  0.081111  0.231772  0  4.129848  0
C  C54  1  0.08038516  0.51300289  0.33592262  1  0  -0.193862  0  3.782645  0  0  -0.208248  0  4.030651  0  0  -0.214548  0  4.053053  0  0  -0.112589  -0.203852  0  4.015248  0
C  C55  1  0.91960394  0.48699374  0.66407952  1  0  -0.193799  0  3.782713  0  0  -0.20822  0  4.030716  0  0  -0.214513  0  4.053119  0  0  -0.112605  -0.203824  0  4.015317  0
C  C56  1  0.97516155  0.40162900  0.24839994  1  0  -0.113195  0  3.772393  0  0  -0.12991  0  4.011999  0  0  -0.130219  0  4.033606  0  0  -0.099313  -0.129559  0  3.997537  0
C  C57  1  0.02482885  0.59837086  0.75160525  1  0  -0.113191  0  3.772311  0  0  -0.129875  0  4.011922  0  0  -0.130181  0  4.033528  0  0  -0.099271  -0.129538  0  3.997468  0
C  C58  1  0.00961101  0.39998450  0.14321820  1  0  0.105886  0  3.786686  0  0  0.134819  0  4.018387  0  0  0.133139  0  4.04411  0  0  -0.028894  0.136151  0  4.000455  0
C  C59  1  0.99036577  0.60000135  0.85677988  1  0  0.105694  0  3.786777  0  0  0.134642  0  4.018434  0  0  0.132962  0  4.044149  0  0  -0.028916  0.135976  0  4.0005  0
C  C60  1  0.15339750  0.51626479  0.12958202  1  0  -0.141415  0  3.807652  0  0  -0.159525  0  4.052026  0  0  -0.160401  0  4.073076  0  0  -0.104875  -0.158722  0  4.037603  0
C  C61  1  0.84659323  0.48373289  0.87042492  1  0  -0.141329  0  3.807193  0  0  -0.159367  0  4.051605  0  0  -0.160231  0  4.072658  0  0  -0.104837  -0.158552  0  4.037175  0
C  C62  1  0.25954589  0.62880020  0.21683884  1  0  -0.175589  0  3.763257  0  0  -0.194266  0  4.019974  0  0  -0.198639  0  4.038534  0  0  -0.105203  -0.191236  0  4.007723  0
C  C63  1  0.74043479  0.37118240  0.78315693  1  0  -0.175489  0  3.762855  0  0  -0.194226  0  4.01952  0  0  -0.198605  0  4.038079  0  0  -0.105188  -0.191202  0  4.007273  0
C  C64  1  0.89303339  0.27853704  0.05018920  1  0  -0.334775  0  3.754964  0  0  -0.415931  0  3.992147  0  0  -0.417693  0  4.002647  0  0  -0.243997  -0.414434  0  3.984841  0
C  C65  1  0.10694900  0.72145309  0.94981444  1  0  -0.334868  0  3.754851  0  0  -0.416024  0  3.992018  0  0  -0.417795  0  4.002512  0  0  -0.244071  -0.41453  0  3.984707  0
C  C66  1  0.48265054  0.81626355  0.68096613  1  0  0.239152  0  3.897539  0  0  0.239007  0  4.145275  0  0  0.248532  0  4.166647  0  0  0.079164  0.232596  0  4.130536  0
C  C67  1  0.51735500  0.18374714  0.31903477  1  0  0.239455  0  3.897141  0  0  0.239166  0  4.145071  0  0  0.24869  0  4.166442  0  0  0.079236  0.232763  0  4.130328  0
C  C68  1  0.51067897  0.69033428  0.69051481  1  0  -0.189098  0  3.766999  0  0  -0.202339  0  4.015577  0  0  -0.208423  0  4.036339  0  0  -0.110747  -0.198228  0  4.001385  0
C  C69  1  0.48932935  0.30966769  0.30948856  1  0  -0.189225  0  3.767101  0  0  -0.202378  0  4.015716  0  0  -0.208465  0  4.036483  0  0  -0.110695  -0.198267  0  4.001523  0
C  C70  1  0.56976403  0.68635906  0.78861456  1  0  -0.117037  0  3.774918  0  0  -0.133585  0  4.013162  0  0  -0.134016  0  4.035469  0  0  -0.100035  -0.132956  0  3.997753  0
C  C71  1  0.43024097  0.31365376  0.21139217  1  0  -0.11691  0  3.774839  0  0  -0.133521  0  4.012975  0  0  -0.133951  0  4.035275  0  0  -0.1  -0.132885  0  3.997578  0
C  C72  1  0.60400411  0.80612857  0.88170649  1  0  0.096175  0  3.795145  0  0  0.12625  0  4.02741  0  0  0.124367  0  4.052745  0  0  -0.031981  0.12735  0  4.01012  0
C  C73  1  0.39599584  0.19388107  0.11829115  1  0  0.095906  0  3.795134  0  0  0.126113  0  4.027236  0  0  0.12423  0  4.05257  0  0  -0.031968  0.127203  0  4.009953  0
C  C74  1  0.57783498  0.93163607  0.87230709  1  0  -0.133002  0  3.798674  0  0  -0.151055  0  4.039177  0  0  -0.1519  0  4.061618  0  0  -0.103435  -0.150179  0  4.023917  0
C  C75  1  0.42217092  0.06837891  0.12770016  1  0  -0.132956  0  3.798621  0  0  -0.150986  0  4.039096  0  0  -0.151835  0  4.061547  0  0  -0.103486  -0.150106  0  4.023824  0
C  C76  1  0.51811191  0.93665613  0.77513726  1  0  -0.171743  0  3.758054  0  0  -0.188922  0  4.013312  0  0  -0.193837  0  4.031996  0  0  -0.103277  -0.185599  0  4.00051  0
C  C77  1  0.48189320  0.06335024  0.22485958  1  0  -0.17173  0  3.758006  0  0  -0.188909  0  4.013271  0  0  -0.193821  0  4.031956  0  0  -0.103276  -0.185582  0  4.00046  0
C  C78  1  0.66509912  0.80005702  0.98749054  1  0  -0.33117  0  3.749711  0  0  -0.412327  0  3.983742  0  0  -0.413851  0  3.993986  0  0  -0.242364  -0.410976  0  3.976824  0
C  C79  1  0.33490138  0.19995697  0.01250662  1  0  -0.33106  0  3.749651  0  0  -0.412318  0  3.983664  0  0  -0.413839  0  3.993903  0  0  -0.24242  -0.410964  0  3.976751  0
C  C80  1  0.35831000  0.72331985  0.50010815  1  0  0.279324  0  3.968723  0  0  0.236498  0  4.238171  0  0  0.256923  0  4.248851  0  0  0.109004  0.223134  0  4.229921  0
C  C81  1  0.64169217  0.27666701  0.49988479  1  0  0.279481  0  3.968649  0  0  0.236668  0  4.238088  0  0  0.257098  0  4.248769  0  0  0.109066  0.223286  0  4.229854  0
C  C82  1  0.02154430  0.10025245  0.75266943  1  0  0.060675  0  3.666084  0  0  0.002622  0  3.935945  0  0  0.009193  0  3.941557  0  0  -0.072517  -0.001606  0  3.932202  0
C  C83  1  0.97846539  0.89974953  0.24733165  1  0  0.060735  0  3.666114  0  0  0.002763  0  3.935844  0  0  0.00934  0  3.941444  0  0  -0.072488  -0.00147  0  3.932093  0
C  C84  1  0.98081299  0.93933328  0.70351828  1  0  0.046024  0  3.653444  0  0  -0.0074  0  3.916165  0  0  -0.001136  0  3.922298  0  0  -0.079222  -0.011716  0  3.912319  0
C  C85  1  0.01919583  0.06066654  0.29648078  1  0  0.046085  0  3.653608  0  0  -0.00736  0  3.916311  0  0  -0.001093  0  3.922443  0  0  -0.079166  -0.011662  0  3.912446  0
C  C86  1  0.24679634  0.32726077  0.76660445  1  0  -0.085708  0  3.676736  0  0  -0.174594  0  3.940548  0  0  -0.168906  0  3.945944  0  0  -0.149267  -0.178129  0  3.93664  0
C  C87  1  0.75320607  0.67274235  0.23339313  1  0  -0.085835  0  3.676657  0  0  -0.17468  0  3.940456  0  0  -0.168992  0  3.945848  0  0  -0.149313  -0.178221  0  3.936554  0
C  C88  1  0.90601865  0.74812267  0.53807523  1  0  -0.091865  0  3.665589  0  0  -0.181781  0  3.924346  0  0  -0.176226  0  3.929657  0  0  -0.156047  -0.185436  0  3.920972  0
C  C89  1  0.09398629  0.25188042  0.46192538  1  0  -0.091827  0  3.665735  0  0  -0.181718  0  3.924493  0  0  -0.176146  0  3.929784  0  0  -0.155977  -0.185388  0  3.921128  0
N  N90  1  0.33638134  0.74446299  0.40726453  1  0  -0.586475  0  3.162346  0  0  -0.539159  0  3.442236  0  0  -0.562116  0  3.456803  0  0  -0.483076  -0.523089  0  3.431456  0
N  N91  1  0.66362132  0.25552820  0.59273020  1  0  -0.586611  0  3.162206  0  0  -0.539309  0  3.442078  0  0  -0.562269  0  3.456646  0  0  -0.483167  -0.523235  0  3.431305  0
N  N92  1  0.43348395  0.83534359  0.58700625  1  0  -0.613522  0  3.236115  0  0  -0.561752  0  3.517076  0  0  -0.585049  0  3.531455  0  0  -0.549027  -0.545354  0  3.506338  0
N  N93  1  0.56652012  0.16465087  0.41298698  1  0  -0.6137  0  3.236081  0  0  -0.561901  0  3.517119  0  0  -0.585202  0  3.531502  0  0  -0.549096  -0.545506  0  3.506392  0
O  O94  1  0.18957107  0.17398313  0.71619034  1  0  -0.323609  0  2.308224  0  0  -0.249162  0  2.568696  0  0  -0.264159  0  2.568846  0  0  -0.306558  -0.238536  0  2.568099  0
O  O95  1  0.81043652  0.82601995  0.28380874  1  0  -0.323604  0  2.308146  0  0  -0.249146  0  2.568553  0  0  -0.264143  0  2.568698  0  0  -0.306505  -0.238516  0  2.567958  0
O  O96  1  0.94199808  0.89977627  0.58967690  1  0  -0.339912  0  2.318796  0  0  -0.262188  0  2.57209  0  0  -0.277731  0  2.573779  0  0  -0.341133  -0.251033  0  2.570652  0
O  O97  1  0.05800815  0.10022681  0.41032446  1  0  -0.339879  0  2.318794  0  0  -0.262245  0  2.572152  0  0  -0.277799  0  2.573846  0  0  -0.341174  -0.251094  0  2.570717  0
