# generated using pymatgen
data_TmH13C8SO12
_symmetry_space_group_name_H-M   'P 1'
_cell_length_a   9.19636238
_cell_length_b   10.48878012
_cell_length_c   15.54418606
_cell_angle_alpha   90.00016744
_cell_angle_beta   94.69683301
_cell_angle_gamma   90.00034748
_symmetry_Int_Tables_number   1
_chemical_formula_structural   TmH13C8SO12
_chemical_formula_sum   'Tm4 H52 C32 S4 O48'
_cell_volume   1494.33576675
_cell_formula_units_Z   4
loop_
 _symmetry_equiv_pos_site_id
 _symmetry_equiv_pos_as_xyz
  1  'x, y, z'
loop_
 _atom_site_type_symbol
 _atom_site_label
 _atom_site_symmetry_multiplicity
 _atom_site_fract_x
 _atom_site_fract_y
 _atom_site_fract_z
 _atom_site_occupancy
 _atom_site_pbe_bader_charge
 _atom_site_pbe_bader_spin_density
 _atom_site_pbe_cm5_charge
 _atom_site_pbe_ddec_charge
 _atom_site_pbe_ddec_spin_density
 _atom_site_pbe_ddec_sum_bond_order
 _atom_site_pbe_magmom
Tm  Tm0  1  0.67930459  0.94472006  0.17426265  1  2.188658  0  1.509207  2.079165  0  2.028363  0
Tm  Tm1  1  0.82070277  0.44471758  0.32573622  1  2.188796  0  1.509188  2.079175  0  2.028234  0
Tm  Tm2  1  0.32070234  0.05528661  0.82573375  1  2.188676  0  1.509292  2.07918  0  2.028416  0
Tm  Tm3  1  0.17930597  0.55528241  0.67426419  1  2.188732  0  1.509254  2.079258  0  2.028153  0
H  H4  1  0.36359041  0.92428596  0.10725571  1  0.647149  0  0.305021  0.413096  0  0.901356  0
H  H5  1  0.13641178  0.42428126  0.39274033  1  0.647126  0  0.304998  0.413014  0  0.901438  0
H  H6  1  0.63642133  0.07572643  0.89274752  1  0.646968  0  0.305016  0.413053  0  0.901362  0
H  H7  1  0.86358273  0.57570157  0.60725954  1  0.647215  0  0.305063  0.413154  0  0.901285  0
H  H8  1  0.41946758  0.05604437  0.07817461  1  0.66062  0  0.305033  0.409993  0  0.907773  0
H  H9  1  0.08054046  0.55603682  0.42182195  1  0.660707  0  0.305047  0.409949  0  0.907831  0
H  H10  1  0.58053788  0.94396420  0.92181457  1  0.660798  0  0.30506  0.410007  0  0.907748  0
H  H11  1  0.91945681  0.44394506  0.57818331  1  0.66068  0  0.30503  0.40994  0  0.907843  0
H  H12  1  0.53570026  0.82446784  0.31488491  1  0.628843  0  0.317078  0.425392  0  0.874612  0
H  H13  1  0.96426018  0.32446041  0.18509803  1  0.628605  0  0.31719  0.425663  0  0.874273  0
H  H14  1  0.46427330  0.17553596  0.68511581  1  0.628864  0  0.317191  0.425559  0  0.874403  0
H  H15  1  0.03571522  0.67553291  0.81488415  1  0.628832  0  0.317045  0.425382  0  0.874635  0
H  H16  1  0.55938625  0.71271047  0.24954559  1  0.636559  0  0.300268  0.407957  0  0.927154  0
H  H17  1  0.94058672  0.21269322  0.25044370  1  0.636571  0  0.300206  0.407839  0  0.927301  0
H  H18  1  0.44059820  0.28731050  0.75045603  1  0.636586  0  0.300304  0.407998  0  0.927107  0
H  H19  1  0.05940444  0.78730201  0.74954559  1  0.636644  0  0.300177  0.407817  0  0.92733  0
H  H20  1  0.67682161  0.22359308  0.15441189  1  0.669235  0  0.307812  0.416947  0  0.910424  0
H  H21  1  0.82318120  0.72357768  0.34558881  1  0.669359  0  0.307744  0.416831  0  0.910581  0
H  H22  1  0.32319950  0.77641931  0.84559663  1  0.669423  0  0.307734  0.416777  0  0.910664  0
H  H23  1  0.17681709  0.27642231  0.65440622  1  0.66938  0  0.307757  0.416761  0  0.910663  0
H  H24  1  0.70767077  0.16342096  0.06053204  1  0.655893  0  0.300513  0.403398  0  0.938885  0
H  H25  1  0.79233939  0.66338403  0.43947099  1  0.655699  0  0.300485  0.403332  0  0.93895  0
H  H26  1  0.29235052  0.83660096  0.93947456  1  0.65567  0  0.30046  0.403236  0  0.939093  0
H  H27  1  0.20767043  0.33659212  0.56052951  1  0.655631  0  0.300505  0.40335  0  0.938956  0
H  H28  1  0.50401322  0.09448003  0.29321568  1  0.631487  0  0.328172  0.433595  0  0.856695  0
H  H29  1  0.99598055  0.59448720  0.20678390  1  0.631536  0  0.328121  0.433521  0  0.856804  0
H  H30  1  0.49598527  0.90552282  0.70678839  1  0.631528  0  0.328141  0.433554  0  0.856751  0
H  H31  1  0.00400485  0.40550707  0.79320813  1  0.631441  0  0.328274  0.433765  0  0.856482  0
H  H32  1  0.66818323  0.12623476  0.31981525  1  0.668716  0  0.305544  0.415326  0  0.919598  0
H  H33  1  0.83181625  0.62626894  0.18018844  1  0.669364  0  0.30551  0.415234  0  0.919737  0
H  H34  1  0.33182274  0.87375761  0.68017977  1  0.668714  0  0.305531  0.415288  0  0.919647  0
H  H35  1  0.16817122  0.37374917  0.81981600  1  0.669429  0  0.305557  0.415373  0  0.919514  0
H  H36  1  0.95556399  0.86552526  0.10121237  1  0.661134  0  0.299506  0.40032  0  0.931952  0
H  H37  1  0.54444150  0.36551263  0.39877852  1  0.66146  0  0.299429  0.400238  0  0.932101  0
H  H38  1  0.04443904  0.13446710  0.89879014  1  0.661129  0  0.299451  0.400366  0  0.931949  0
H  H39  1  0.45554815  0.63447878  0.60122610  1  0.661506  0  0.299508  0.400421  0  0.931833  0
H  H40  1  0.95744716  0.01628262  0.10679026  1  0.625096  0  0.331384  0.425642  0  0.85664  0
H  H41  1  0.54255803  0.51626319  0.39321147  1  0.62513  0  0.331389  0.425742  0  0.856775  0
H  H42  1  0.04253704  0.98371452  0.89321391  1  0.624916  0  0.331387  0.425751  0  0.856647  0
H  H43  1  0.45745442  0.48371964  0.60678474  1  0.625065  0  0.33142  0.425801  0  0.856573  0
H  H44  1  0.50264527  0.72571204  0.91136754  1  0.120973  0  0.114466  0.114287  0  1.059957  0
H  H45  1  0.99738419  0.22567839  0.58862381  1  0.121329  0  0.114457  0.114349  0  1.059721  0
H  H46  1  0.49736097  0.27431656  0.08863588  1  0.121501  0  0.114524  0.114427  0  1.059664  0
H  H47  1  0.00262800  0.77429776  0.41137495  1  0.12125  0  0.114482  0.114322  0  1.059864  0
H  H48  1  0.62886725  0.34840765  0.83571239  1  0.112396  0  0.116577  0.122049  0  1.009401  0
H  H49  1  0.87114850  0.84839930  0.66428662  1  0.112713  0  0.116581  0.122007  0  1.009339  0
H  H50  1  0.37113437  0.65161140  0.16428227  1  0.112213  0  0.116568  0.121988  0  1.00936  0
H  H51  1  0.12885723  0.15160259  0.33572192  1  0.112373  0  0.116602  0.122113  0  1.009291  0
H  H52  1  0.84681341  0.52745051  0.05993646  1  0.129813  0  0.113283  0.117441  0  1.040035  0
H  H53  1  0.65318521  0.02744012  0.44005627  1  0.129686  0  0.113266  0.117484  0  1.040062  0
H  H54  1  0.15319922  0.47256950  0.94004687  1  0.129946  0  0.113248  0.117436  0  1.040147  0
H  H55  1  0.34681571  0.97254271  0.55994542  1  0.129925  0  0.113308  0.117475  0  1.040027  0
C  C56  1  0.67546917  0.63940595  0.99077774  1  0.0423  0  -0.009848  -0.022716  0  3.959187  0
C  C57  1  0.82454221  0.13939053  0.50922368  1  0.04211  0  -0.009862  -0.022697  0  3.959262  0
C  C58  1  0.32451786  0.36059881  0.00923118  1  0.042098  0  -0.009949  -0.022917  0  3.959347  0
C  C59  1  0.17548029  0.86058658  0.49077078  1  0.042335  0  -0.009949  -0.022989  0  3.959297  0
C  C60  1  0.57146338  0.64198534  0.92059438  1  -0.025253  0  -0.065207  -0.083627  0  3.891739  0
C  C61  1  0.92855303  0.14195282  0.57940100  1  -0.024388  0  -0.065248  -0.083883  0  3.891631  0
C  C62  1  0.42852031  0.35803372  0.07941491  1  -0.025119  0  -0.06526  -0.083749  0  3.891508  0
C  C63  1  0.07146998  0.85801570  0.42058835  1  -0.025147  0  -0.065144  -0.083451  0  3.891234  0
C  C64  1  0.55142383  0.53737298  0.86531762  1  -0.012839  0  -0.014304  -0.031463  0  3.973215  0
C  C65  1  0.94858791  0.03735019  0.63468198  1  -0.013241  0  -0.01438  -0.031293  0  3.972677  0
C  C66  1  0.44856140  0.46264989  0.13468729  1  -0.012872  0  -0.014347  -0.031471  0  3.973124  0
C  C67  1  0.05142902  0.96263264  0.36531331  1  -0.012826  0  -0.014262  -0.031428  0  3.973131  0
C  C68  1  0.64267711  0.43112887  0.87804958  1  -0.009597  0  -0.063312  -0.078109  0  3.90142  0
C  C69  1  0.85732071  0.93111105  0.62194736  1  -0.010095  0  -0.063228  -0.077916  0  3.901008  0
C  C70  1  0.35730990  0.56889210  0.12194839  1  -0.009888  0  -0.06318  -0.077743  0  3.901051  0
C  C71  1  0.14268021  0.06887654  0.37805434  1  -0.009727  0  -0.063403  -0.078202  0  3.901511  0
C  C72  1  0.74983128  0.43076707  0.94728279  1  -0.149987  0  -0.017383  -0.095545  0  3.974771  0
C  C73  1  0.75016661  0.93075399  0.55271351  1  -0.14986  0  -0.017331  -0.095685  0  3.974984  0
C  C74  1  0.25015830  0.56924341  0.05271152  1  -0.14999  0  -0.017406  -0.095962  0  3.975231  0
C  C75  1  0.24983681  0.06922979  0.44728517  1  -0.149922  0  -0.01733  -0.095673  0  3.974791  0
C  C76  1  0.76600215  0.53255175  0.00487545  1  -0.036585  0  -0.062884  -0.071221  0  3.902174  0
C  C77  1  0.73399651  0.03253740  0.49511789  1  -0.036951  0  -0.062979  -0.07141  0  3.902282  0
C  C78  1  0.23398845  0.46745873  0.99511958  1  -0.037066  0  -0.06287  -0.071084  0  3.902335  0
C  C79  1  0.26601741  0.96744067  0.50487457  1  -0.036932  0  -0.062932  -0.071215  0  3.902164  0
C  C80  1  0.67683686  0.74843178  0.05197506  1  1.538373  0  0.208458  0.59366  0  4.172229  0
C  C81  1  0.82318740  0.24843493  0.44803562  1  1.53874  0  0.208765  0.594096  0  4.171685  0
C  C82  1  0.32318552  0.25156821  0.94803164  1  1.538302  0  0.208647  0.593881  0  4.171967  0
C  C83  1  0.17682864  0.75155838  0.55196861  1  1.537826  0  0.208668  0.593955  0  4.171717  0
C  C84  1  0.42702208  0.53850711  0.79780794  1  1.553237  0  0.210568  0.589663  0  4.188837  0
C  C85  1  0.07298186  0.03848794  0.70219748  1  1.553606  0  0.210654  0.589551  0  4.188415  0
C  C86  1  0.57295956  0.46151386  0.20219989  1  1.55408  0  0.210639  0.589614  0  4.18851  0
C  C87  1  0.92702322  0.96151300  0.29780649  1  1.553984  0  0.21057  0.589455  0  4.188505  0
S  S88  1  0.85798041  0.29054094  0.96534502  1  3.168288  0  0.518536  1.166261  0  6.171449  0
S  S89  1  0.64202090  0.79052520  0.53465514  1  3.16741  0  0.518493  1.166505  0  6.171308  0
S  S90  1  0.14201685  0.70946858  0.03464929  1  3.167187  0  0.518392  1.166383  0  6.171427  0
S  S91  1  0.35798072  0.20946049  0.46535048  1  3.167322  0  0.518442  1.166392  0  6.171365  0
O  O92  1  0.73024598  0.73373206  0.13032775  1  -1.187833  0  -0.369648  -0.626903  0  2.337076  0
O  O93  1  0.76977491  0.23374993  0.36968083  1  -1.188181  0  -0.369854  -0.627238  0  2.337042  0
O  O94  1  0.26979306  0.26626698  0.86967710  1  -1.187585  0  -0.369745  -0.62706  0  2.337144  0
O  O95  1  0.23022300  0.76624434  0.63032900  1  -1.187822  0  -0.369874  -0.627043  0  2.337012  0
O  O96  1  0.61965348  0.85499412  0.02907688  1  -1.182801  0  -0.347801  -0.609708  0  2.218315  0
O  O97  1  0.88039827  0.35498127  0.47094370  1  -1.182602  0  -0.347814  -0.609788  0  2.21799  0
O  O98  1  0.38038383  0.14501445  0.97093427  1  -1.182657  0  -0.347831  -0.609746  0  2.218141  0
O  O99  1  0.11961976  0.64501205  0.52906263  1  -1.182409  0  -0.347791  -0.609796  0  2.218123  0
O  O100  1  0.34549124  0.63758070  0.78755857  1  -1.192492  0  -0.36617  -0.634682  0  2.276678  0
O  O101  1  0.15451843  0.13755941  0.71244212  1  -1.192501  0  -0.366246  -0.634676  0  2.276394  0
O  O102  1  0.65449245  0.36244312  0.21243977  1  -1.192685  0  -0.366213  -0.634741  0  2.276568  0
O  O103  1  0.84548685  0.86243962  0.28755994  1  -1.192812  0  -0.36624  -0.634719  0  2.276371  0
O  O104  1  0.39758055  0.44123605  0.75050957  1  -1.195001  0  -0.338191  -0.613289  0  2.315894  0
O  O105  1  0.10242595  0.94122636  0.74950610  1  -1.195495  0  -0.338169  -0.613074  0  2.315498  0
O  O106  1  0.60240758  0.55877539  0.24951040  1  -1.195663  0  -0.338202  -0.613164  0  2.315356  0
O  O107  1  0.89757459  0.05877363  0.25049943  1  -1.195446  0  -0.338147  -0.613006  0  2.315546  0
O  O108  1  0.94624491  0.27802457  0.89083834  1  -1.338053  0  -0.331067  -0.598721  0  2.22169  0
O  O109  1  0.55375192  0.77802436  0.60916024  1  -1.338065  0  -0.331081  -0.598802  0  2.221681  0
O  O110  1  0.05374498  0.72196779  0.10915277  1  -1.337881  0  -0.331024  -0.598707  0  2.221631  0
O  O111  1  0.44624766  0.22197563  0.39084392  1  -1.337899  0  -0.331033  -0.598665  0  2.221617  0
O  O112  1  0.74945928  0.18522680  0.96474626  1  -1.322399  0  -0.33061  -0.605053  0  2.243087  0
O  O113  1  0.75053701  0.68520856  0.53526132  1  -1.321732  0  -0.330664  -0.605135  0  2.242908  0
O  O114  1  0.25053581  0.81478464  0.03525882  1  -1.32158  0  -0.330655  -0.605091  0  2.242907  0
O  O115  1  0.24947064  0.31478095  0.46474996  1  -1.321422  0  -0.330657  -0.605099  0  2.243046  0
O  O116  1  0.94193950  0.30517737  0.04859184  1  -1.335924  0  -0.339084  -0.590101  0  2.156367  0
O  O117  1  0.55806170  0.80517061  0.45140815  1  -1.335885  0  -0.339031  -0.590098  0  2.15627  0
O  O118  1  0.05806807  0.69482930  0.95139816  1  -1.335958  0  -0.338974  -0.590035  0  2.156318  0
O  O119  1  0.44192891  0.19480459  0.54859784  1  -1.336043  0  -0.338994  -0.590098  0  2.156382  0
O  O120  1  0.42860725  0.99514553  0.12688519  1  -1.281698  0  -0.633538  -0.840942  0  2.005439  0
O  O121  1  0.07139536  0.49513788  0.37310974  1  -1.281765  0  -0.633531  -0.840827  0  2.005572  0
O  O122  1  0.57140321  0.00486972  0.87310892  1  -1.281708  0  -0.633542  -0.840918  0  2.005473  0
O  O123  1  0.92860677  0.50485162  0.62689076  1  -1.281823  0  -0.633611  -0.840992  0  2.005426  0
O  O124  1  0.53589684  0.80566610  0.25311241  1  -1.239117  0  -0.640088  -0.848918  0  2.017595  0
O  O125  1  0.96404906  0.30565626  0.24686946  1  -1.238974  0  -0.640194  -0.849125  0  2.01755  0
O  O126  1  0.46407371  0.19435201  0.74688548  1  -1.239232  0  -0.640292  -0.849124  0  2.017605  0
O  O127  1  0.03590212  0.69434755  0.75311329  1  -1.23935  0  -0.639984  -0.848784  0  2.017703  0
O  O128  1  0.67975470  0.14370065  0.12020829  1  -1.306994  0  -0.68062  -0.883559  0  2.139977  0
O  O129  1  0.82024680  0.64368413  0.37978965  1  -1.306913  0  -0.680506  -0.883343  0  2.140115  0
O  O130  1  0.32024193  0.85631651  0.87979241  1  -1.306967  0  -0.680516  -0.883226  0  2.140025  0
O  O131  1  0.17975360  0.35631300  0.62020620  1  -1.306901  0  -0.680548  -0.883273  0  2.139982  0
O  O132  1  0.60245088  0.06298603  0.28722394  1  -1.266883  0  -0.65308  -0.859697  0  2.099465  0
O  O133  1  0.89753834  0.56299771  0.21277098  1  -1.267655  0  -0.652991  -0.859519  0  2.099457  0
O  O134  1  0.39754376  0.93701205  0.71277466  1  -1.266948  0  -0.65302  -0.859621  0  2.099561  0
O  O135  1  0.10244591  0.43699942  0.78722160  1  -1.267543  0  -0.653179  -0.859946  0  2.099257  0
O  O136  1  0.89354944  0.94335424  0.09504288  1  -1.255141  0  -0.628564  -0.840002  0  2.088128  0
O  O137  1  0.60645541  0.44334427  0.40496997  1  -1.255678  0  -0.628482  -0.84003  0  2.088169  0
O  O138  1  0.10645005  0.05663717  0.90494001  1  -1.255015  0  -0.628506  -0.840164  0  2.087994  0
O  O139  1  0.39354828  0.55663761  0.59504807  1  -1.255475  0  -0.628596  -0.840262  0  2.087831  0
