# generated using pymatgen
data_MnH14C14S2(N2O)2
_symmetry_space_group_name_H-M   'P 1'
_cell_length_a   7.87424360
_cell_length_b   9.15856151
_cell_length_c   11.38310002
_cell_angle_alpha   82.77314554
_cell_angle_beta   86.51612812
_cell_angle_gamma   78.20924270
_symmetry_Int_Tables_number   1
_chemical_formula_structural   MnH14C14S2(N2O)2
_chemical_formula_sum   'Mn2 H28 C28 S4 N8 O4'
_cell_volume   796.68754794
_cell_formula_units_Z   2
loop_
 _symmetry_equiv_pos_site_id
 _symmetry_equiv_pos_as_xyz
  1  'x, y, z'
loop_
 _atom_site_type_symbol
 _atom_site_label
 _atom_site_symmetry_multiplicity
 _atom_site_fract_x
 _atom_site_fract_y
 _atom_site_fract_z
 _atom_site_occupancy
 _atom_site_hle17_ddec_charge
 _atom_site_hle17_ddec_spin_density
 _atom_site_hle17_ddec_sum_bond_order
 _atom_site_hle17_magmom
 _atom_site_hse06_10hf_ddec_charge
 _atom_site_hse06_10hf_ddec_spin_density
 _atom_site_hse06_10hf_ddec_sum_bond_order
 _atom_site_hse06_10hf_magmom
 _atom_site_pbe_cm5_charge
 _atom_site_pbe_ddec_charge
 _atom_site_pbe_ddec_spin_density
 _atom_site_pbe_ddec_sum_bond_order
 _atom_site_pbe_magmom
Mn  Mn0  1  0.19024392  0.92023143  0.08024825  1  1.068609  -4.838341  2.060977  -4.604  0.925774  -4.671243  2.593972  -4.427  0.591509  0.877162  -4.585121  2.652997  -4.316
Mn  Mn1  1  0.82245614  0.07442919  0.91445929  1  0.775295  1.174804  3.064883  1.082  0.712981  1.056851  3.62514  0.996  0.640181  0.689328  1.073798  3.662413  1.015
H  H2  1  0.82880634  0.86479992  0.20899254  1  0.120727  0.000477  0.968562  0.0  0.122131  0.000102  1.041871  0.0  0.128783  0.118815  3.8e-05  1.045429  0.0
H  H3  1  0.17057340  0.13915069  0.78521527  1  0.123354  0.00021  0.974792  0.0  0.125177  -0.000273  1.047577  0.0  0.129249  0.121706  -0.000347  1.051364  0.0
H  H4  1  0.57471167  0.49413353  0.17431634  1  0.103825  0.000231  0.95598  0.0  0.111135  -0.000205  1.023165  0.0  0.10438  0.107937  -0.00032  1.026305  0.0
H  H5  1  0.41999388  0.51240815  0.82103982  1  0.099438  0.00044  0.967129  0.001  0.105456  -5.9e-05  1.038724  0.0  0.100084  0.101968  -0.000228  1.042444  0.0
H  H6  1  0.70714284  0.48881545  0.96928611  1  0.118646  7e-06  0.962793  0.0  0.126794  5.3e-05  1.022122  0.0  0.110734  0.125072  0.000234  1.021371  0.0
H  H7  1  0.27297795  0.52614050  0.02132401  1  0.117507  0.000194  0.967945  0.0  0.125126  0.000395  1.028411  0.0  0.10878  0.123407  0.00035  1.028306  0.0
H  H8  1  0.89191258  0.67886953  0.89290935  1  0.114264  0.000353  0.931004  0.0  0.121742  -7e-05  0.995801  0.0  0.131907  0.119149  -2e-05  0.999113  0.0
H  H9  1  0.08548405  0.33608424  0.09572670  1  0.116605  0.000525  0.920685  0.0  0.125112  7.9e-05  0.983249  0.0  0.131969  0.12227  -4e-05  0.986476  0.0
H  H10  1  0.71146582  0.65383224  0.40069356  1  0.109779  0.000285  0.949445  0.0  0.130692  0.000241  1.012768  0.0  0.089964  0.129958  0.000267  1.012692  0.0
H  H11  1  0.29692894  0.34556976  0.59430148  1  0.106792  0.000187  0.957891  0.0  0.128196  -3.4e-05  1.021368  0.0  0.087168  0.127288  -6.7e-05  1.021758  0.0
H  H12  1  0.51375932  0.61963101  0.35361715  1  0.111787  5.1e-05  0.974208  0.0  0.12971  -1.8e-05  1.0404  0.0  0.087934  0.128714  -2.7e-05  1.039792  0.0
H  H13  1  0.49201638  0.37972826  0.64573751  1  0.113157  -9.1e-05  0.981586  0.0  0.13059  -7.8e-05  1.048514  0.0  0.087823  0.129424  -0.000134  1.048293  0.0
H  H14  1  0.54747425  0.80670538  0.34392576  1  0.113642  0.000184  0.945378  0.0  0.135783  0.00016  1.005638  0.0  0.092944  0.135904  0.000105  1.003878  0.0
H  H15  1  0.45641544  0.19287180  0.65760762  1  0.116026  0.000199  0.943588  0.0  0.139049  6.4e-05  1.001603  0.0  0.094363  0.139667  6.1e-05  0.999144  0.0
H  H16  1  0.05013226  0.76969849  0.39415300  1  0.115913  0.000666  0.941288  0.001  0.126027  8.7e-05  1.001478  0.0  0.126664  0.122965  -6.6e-05  1.004672  0.0
H  H17  1  0.95142452  0.22746182  0.60964928  1  0.117616  0.000525  0.934593  0.001  0.12826  -3.1e-05  0.992899  0.0  0.130107  0.124586  -7.8e-05  0.997212  0.0
H  H18  1  0.34937292  0.93697444  0.63455710  1  0.105529  0.000175  0.959117  0.001  0.113778  -0.000795  1.027317  0.0  0.100513  0.110674  -0.001039  1.029817  0.0
H  H19  1  0.65329835  0.04956037  0.37532565  1  0.108704  0.0005  0.936498  0.001  0.120099  -5.6e-05  0.996364  0.0  0.107077  0.115962  -0.000355  1.000846  0.0
H  H20  1  0.35563535  0.15912559  0.47887483  1  0.103707  -0.000327  0.973039  0.0  0.115093  -0.00014  1.031805  0.0  0.105471  0.11289  -0.000328  1.032776  0.0
H  H21  1  0.64915763  0.83145647  0.53450575  1  0.106008  -0.000362  0.963634  0.0  0.118834  -0.000147  1.020056  0.0  0.10651  0.11613  -0.000299  1.021665  0.0
H  H22  1  0.20160022  0.17540537  0.29011614  1  0.110056  0.000614  0.963207  0.001  0.114826  -6.5e-05  1.032428  0.0  0.1198  0.110534  -0.000318  1.037691  0.0
H  H23  1  0.80204821  0.82245471  0.72223511  1  0.111635  0.000176  0.959777  0.001  0.119207  0.000156  1.02444  0.0  0.124994  0.114111  -0.000119  1.031966  0.0
H  H24  1  0.11603793  0.62652120  0.58720668  1  0.105685  -0.000128  0.972986  0.0  0.119725  -2.9e-05  1.046021  0.0  0.081394  0.118129  -0.000102  1.046331  0.0
H  H25  1  0.88333546  0.36562281  0.41505488  1  0.10598  1.2e-05  0.974115  0.0  0.121114  -0.000113  1.045336  0.0  0.082547  0.119689  -7e-05  1.045124  0.0
H  H26  1  0.15388906  0.73219032  0.70165410  1  0.121863  0.000421  0.948347  0.0  0.140757  0.000239  1.013239  0.0  0.091377  0.139071  0.000233  1.013535  0.0
H  H27  1  0.84675263  0.25610511  0.30278646  1  0.121183  -3.2e-05  0.95328  0.0  0.137716  -0.000159  1.022448  0.0  0.090132  0.135132  -0.000229  1.023666  0.0
H  H28  1  0.33154227  0.63138196  0.62433260  1  0.114525  0.00029  0.95785  0.0  0.136944  0.000123  1.020379  0.0  0.091827  0.135669  -6e-06  1.020571  0.0
H  H29  1  0.66823902  0.35827674  0.37921194  1  0.114907  0.000227  0.951829  0.0  0.136967  -8.6e-05  1.014131  0.0  0.091861  0.135595  -0.000166  1.014255  0.0
C  C30  1  0.51776359  0.92909099  0.88098900  1  0.256865  -0.035361  3.975023  -0.03  0.241064  -0.013134  4.291733  -0.009  0.130481  0.225366  -0.013377  4.279047  -0.008
C  C31  1  0.50669438  0.08698925  0.10629294  1  0.302629  -0.022868  3.939422  -0.024  0.296013  -0.032332  4.227169  -0.032  0.173971  0.279201  -0.035486  4.208424  -0.035
C  C32  1  0.23067976  0.59858942  0.23800677  1  0.291135  -0.023666  4.075028  -0.024  0.277842  -0.028997  4.373546  -0.029  0.145385  0.262836  -0.030726  4.361562  -0.031
C  C33  1  0.76269724  0.38364256  0.76822833  1  0.258396  0.007481  4.043868  0.006  0.248962  0.015842  4.346116  0.014  0.135763  0.235093  0.015549  4.333616  0.014
C  C34  1  0.79325782  0.77859979  0.16300435  1  -0.030924  -0.006492  3.546046  -0.005  -0.075929  -0.0094  3.796795  -0.007  0.052641  -0.081054  -0.011243  3.789558  -0.008
C  C35  1  0.20056854  0.22852590  0.83003652  1  -0.03622  -0.011005  3.538714  -0.009  -0.083367  -0.011829  3.790678  -0.009  0.050435  -0.088214  -0.014679  3.783695  -0.011
C  C36  1  0.68855881  0.67902865  0.21082940  1  0.129312  0.004665  3.732734  0.004  0.161209  0.003027  3.965932  0.003  0.008365  0.163591  0.001943  3.950156  0.003
C  C37  1  0.30799625  0.32660381  0.78410309  1  0.135724  0.007405  3.727654  0.007  0.168282  0.003668  3.960115  0.004  0.009903  0.170624  0.002903  3.944072  0.004
C  C38  1  0.65670303  0.57346186  0.14006548  1  -0.064034  -0.010657  3.6608  -0.009  -0.094808  -0.013101  3.908927  -0.01  -0.065963  -0.09893  -0.016579  3.899961  -0.012
C  C39  1  0.33540759  0.43461061  0.85388008  1  -0.061189  -0.01317  3.65687  -0.011  -0.093755  -0.014546  3.90536  -0.011  -0.06751  -0.097252  -0.017877  3.895943  -0.014
C  C40  1  0.72942588  0.57032460  0.02542239  1  -0.095373  0.006004  3.764255  0.005  -0.107029  0.003655  4.022735  0.004  -0.076768  -0.104018  0.002856  4.011347  0.004
C  C41  1  0.25474709  0.44217163  0.96606191  1  -0.094308  0.007922  3.756808  0.007  -0.105042  0.003996  4.015398  0.004  -0.079949  -0.102188  0.003441  4.003696  0.004
C  C42  1  0.83084297  0.67289052  0.98096917  1  0.026715  -0.009032  3.602907  -0.008  -0.017653  -0.011178  3.867328  -0.008  0.05204  -0.024358  -0.013668  3.862152  -0.01
C  C43  1  0.15061296  0.34122214  0.00889977  1  0.018338  -0.010331  3.601971  -0.009  -0.030376  -0.010537  3.871876  -0.008  0.04498  -0.036334  -0.013491  3.865586  -0.01
C  C44  1  0.61125955  0.69015264  0.33402984  1  -0.330157  1.8e-05  3.696421  0.0  -0.40991  0.00015  3.924296  0.0  -0.235479  -0.407794  5.2e-05  3.915973  0.0
C  C45  1  0.39310233  0.31044783  0.66370086  1  -0.332682  -0.000384  3.698882  -0.001  -0.41303  -0.000255  3.926543  0.0  -0.239093  -0.410867  -0.000352  3.918203  0.0
C  C46  1  0.12018335  0.85067319  0.41958359  1  -0.062339  -0.016769  3.573068  -0.014  -0.111353  -0.014647  3.828437  -0.011  0.033537  -0.113775  -0.016963  3.818789  -0.013
C  C47  1  0.88216889  0.14493372  0.58603929  1  -0.045531  -0.014544  3.560743  -0.012  -0.087455  -0.008048  3.807353  -0.006  0.044404  -0.093298  -0.014626  3.801995  -0.01
C  C48  1  0.20259418  0.83358654  0.52630275  1  0.132902  0.011048  3.76387  0.01  0.163251  0.004247  4.002125  0.005  0.002363  0.163373  0.003106  3.987366  0.004
C  C49  1  0.79946567  0.15854407  0.47970734  1  0.129628  0.00942  3.762465  0.009  0.160024  0.002519  3.996479  0.003  0.003183  0.16008  0.00202  3.984171  0.003
C  C50  1  0.28814471  0.94656253  0.54974249  1  -0.093814  -0.020297  3.686033  -0.017  -0.12779  -0.019677  3.942843  -0.015  -0.084604  -0.130388  -0.023453  3.933587  -0.018
C  C51  1  0.71532429  0.04334928  0.45935766  1  -0.089619  -0.021747  3.682443  -0.018  -0.117867  -0.012417  3.934152  -0.009  -0.078769  -0.124477  -0.023399  3.929661  -0.018
C  C52  1  0.29002887  0.06963754  0.46472363  1  -0.109159  0.011071  3.808953  0.01  -0.120812  0.004568  4.068623  0.005  -0.090188  -0.11781  0.003068  4.057103  0.004
C  C53  1  0.71370767  0.92239368  0.54663442  1  -0.107512  0.010044  3.791138  0.009  -0.117607  0.002209  4.041949  0.003  -0.084699  -0.115091  0.001535  4.034584  0.003
C  C54  1  0.20677768  0.08200090  0.35939280  1  0.004063  -0.016497  3.621768  -0.014  -0.041843  -0.01389  3.887602  -0.011  0.031301  -0.047511  -0.016715  3.882251  -0.013
C  C55  1  0.79636519  0.91436747  0.65174701  1  0.020376  -0.014619  3.607441  -0.011  -0.017698  -0.007368  3.860819  -0.005  0.043158  -0.025893  -0.012647  3.860717  -0.008
C  C56  1  0.19920614  0.69800349  0.61410429  1  -0.345097  -0.000771  3.719854  -0.001  -0.426884  -0.000267  3.951781  0.0  -0.2432  -0.423928  -0.000601  3.945529  0.0
C  C57  1  0.80100556  0.29247018  0.38968529  1  -0.344711  -0.00079  3.715279  -0.001  -0.425793  -0.000574  3.945853  0.0  -0.242111  -0.422315  -0.000751  3.940228  0.0
S  S58  1  0.35293056  0.84498673  0.88469025  1  -0.342829  -0.04006  2.212049  -0.016  -0.333855  -0.045061  2.575862  -0.014  -0.122399  -0.313921  -0.049089  2.584298  -0.017
S  S59  1  0.67954325  0.16219779  0.08870578  1  -0.227916  -0.021982  2.343349  -0.028  -0.220896  -0.016111  2.697732  -0.019  -0.070224  -0.194374  -0.016337  2.693695  -0.019
S  S60  1  0.23313119  0.45432073  0.33564063  1  -0.383411  -0.017952  2.003133  -0.013  -0.356277  -0.024839  2.281212  -0.017  -0.165898  -0.340572  -0.029892  2.283372  -0.02
S  S61  1  0.75833505  0.53904174  0.68189630  1  -0.406285  0.015665  1.990509  0.012  -0.388485  0.019622  2.277885  0.014  -0.185697  -0.369275  0.024677  2.279774  0.018
N  N62  1  0.63497394  0.99285302  0.88184826  1  -0.513068  -0.011695  3.288903  -0.007  -0.489321  -0.019928  3.629209  -0.018  -0.444765  -0.473784  -0.0228  3.620998  -0.021
N  N63  1  0.38385280  0.02986588  0.12127219  1  -0.549921  -0.012737  2.958563  0.01  -0.500846  -0.017733  3.255249  0.012  -0.379665  -0.475998  -0.021387  3.248515  0.01
N  N64  1  0.23133758  0.70472248  0.16609252  1  -0.577259  -0.018166  2.974134  0.005  -0.529684  -0.021378  3.282355  0.009  -0.408548  -0.511818  -0.027323  3.282106  0.003
N  N65  1  0.76419447  0.26886364  0.83054772  1  -0.499132  -0.013306  3.19291  -0.021  -0.466299  -0.009642  3.511131  -0.02  -0.432119  -0.452019  -0.006305  3.505465  -0.017
N  N66  1  0.85866717  0.77467197  0.05052210  1  0.26525  -8.5e-05  3.61464  0.0  0.316059  -0.006466  3.871021  -0.007  -0.113925  0.314683  -0.009925  3.855193  -0.011
N  N67  1  0.12743614  0.23626159  0.94041386  1  0.268457  0.006238  3.640758  0.007  0.320446  -0.002422  3.900128  -0.002  -0.113241  0.31914  -0.006587  3.884716  -0.006
N  N68  1  0.12104654  0.97374443  0.33855898  1  0.276116  0.00667  3.724801  0.008  0.330143  -0.002266  3.983337  -0.002  -0.114607  0.328882  -0.006724  3.966923  -0.006
N  N69  1  0.88082653  0.02451603  0.66928909  1  0.262627  0.000374  3.658749  0.001  0.317832  0.000137  3.916218  0.0  -0.114312  0.315384  -0.008199  3.900585  -0.009
O  O70  1  0.94951851  0.88106615  0.00409446  1  -0.508811  -0.015653  2.037395  -0.011  -0.449403  -0.015417  2.320014  -0.006  -0.222375  -0.426163  -0.016891  2.321803  -0.008
O  O71  1  0.03814981  0.13121394  0.98828653  1  -0.509314  -0.027689  2.026806  -0.019  -0.455024  -0.028624  2.312305  -0.014  -0.2136  -0.433483  -0.030436  2.316025  -0.016
O  O72  1  0.03617777  0.98965457  0.23971721  1  -0.538431  -0.022238  1.854415  -0.012  -0.493129  -0.026253  2.119027  -0.013  -0.223655  -0.473554  -0.029282  2.121189  -0.016
O  O73  1  0.96976179  0.01349634  0.76779507  1  -0.472253  0.004067  1.910451  0.0  -0.436705  0.009752  2.178805  0.004  -0.216593  -0.4167  0.011055  2.177446  0.006
