# generated using pymatgen
data_ZnH12C14(NO)4
_symmetry_space_group_name_H-M   'P 1'
_cell_length_a   8.05794602
_cell_length_b   11.60168310
_cell_length_c   16.62200000
_cell_angle_alpha   90.00000000
_cell_angle_beta   90.00000000
_cell_angle_gamma   100.11726370
_symmetry_Int_Tables_number   1
_chemical_formula_structural   ZnH12C14(NO)4
_chemical_formula_sum   'Zn4 H48 C56 N16 O16'
_cell_volume   1529.75691060
_cell_formula_units_Z   4
loop_
 _symmetry_equiv_pos_site_id
 _symmetry_equiv_pos_as_xyz
  1  'x, y, z'
loop_
 _atom_site_type_symbol
 _atom_site_label
 _atom_site_symmetry_multiplicity
 _atom_site_fract_x
 _atom_site_fract_y
 _atom_site_fract_z
 _atom_site_occupancy
 _atom_site_hle17_bader_spin_density
 _atom_site_hle17_ddec_charge
 _atom_site_hle17_ddec_spin_density
 _atom_site_hle17_ddec_sum_bond_order
 _atom_site_hle17_magmom
 _atom_site_hse06_10hf_bader_spin_density
 _atom_site_hse06_10hf_ddec_charge
 _atom_site_hse06_10hf_ddec_spin_density
 _atom_site_hse06_10hf_ddec_sum_bond_order
 _atom_site_hse06_10hf_magmom
 _atom_site_hse06_bader_spin_density
 _atom_site_hse06_ddec_charge
 _atom_site_hse06_ddec_spin_density
 _atom_site_hse06_ddec_sum_bond_order
 _atom_site_hse06_magmom
 _atom_site_pbe_bader_charge
 _atom_site_pbe_bader_spin_density
 _atom_site_pbe_cm5_charge
 _atom_site_pbe_ddec_charge
 _atom_site_pbe_ddec_spin_density
 _atom_site_pbe_ddec_sum_bond_order
 _atom_site_pbe_magmom
Zn  Zn0  1  0.35314067  0.92050888  0.29955240  1  0  0.9669  0  1.908832  0  0  0.770218  0  2.39622  0  0  0.817003  0  2.342568  0  1.255896  0  0.70362  0.737669  0  2.43306  0
Zn  Zn1  1  0.35314454  0.42050715  0.20044760  1  0  0.966887  0  1.908839  0  0  0.770213  0  2.396216  0  0  0.816998  0  2.342562  0  1.255895  0  0.703618  0.737661  0  2.433054  0
Zn  Zn2  1  0.64685661  0.07949284  0.70044940  1  0  0.966853  0  1.908898  0  0  0.770147  0  2.396314  0  0  0.816938  0  2.342655  0  1.255901  0  0.703572  0.737594  0  2.433156  0
Zn  Zn3  1  0.64685682  0.57949107  0.79955300  1  0  0.966916  0  1.908774  0  0  0.770241  0  2.396145  0  0  0.817026  0  2.342492  0  1.255899  0  0.703633  0.737692  0  2.432985  0
H  H4  1  0.31011669  0.63848358  0.29202503  1  0  0.104  0  0.961694  0  0  0.111457  0  1.029414  0  0  0.114039  0  1.026735  0  0.138686  0  0.119707  0.109534  0  1.031348  0
H  H5  1  0.31011661  0.13848097  0.20797497  1  0  0.103991  0  0.961719  0  0  0.111459  0  1.029416  0  0  0.114041  0  1.026738  0  0.138674  0  0.119714  0.10954  0  1.031344  0
H  H6  1  0.68987518  0.36151639  0.70797678  1  0  0.103964  0  0.961703  0  0  0.111433  0  1.029408  0  0  0.114015  0  1.026729  0  0.138601  0  0.1197  0.109506  0  1.031332  0
H  H7  1  0.68988080  0.86151637  0.79202322  1  0  0.104  0  0.961678  0  0  0.111467  0  1.029383  0  0  0.114049  0  1.026704  0  0.138651  0  0.119714  0.109547  0  1.031312  0
H  H8  1  0.38530866  0.51073171  0.42350499  1  0  0.122944  0  0.976755  0  0  0.133708  0  1.032572  0  0  0.13581  0  1.033798  0  0.113265  0  0.106605  0.132201  0  1.031855  0
H  H9  1  0.38530655  0.01073085  0.07649441  1  0  0.122895  0  0.976844  0  0  0.133659  0  1.032647  0  0  0.135762  0  1.033874  0  0.113198  0  0.106595  0.132153  0  1.03193  0
H  H10  1  0.61468862  0.48927001  0.57649621  1  0  0.122951  0  0.976756  0  0  0.133675  0  1.032611  0  0  0.135777  0  1.033839  0  0.113203  0  0.106601  0.132168  0  1.031894  0
H  H11  1  0.61469277  0.98926912  0.92350259  1  0  0.122965  0  0.976781  0  0  0.133698  0  1.032623  0  0  0.135802  0  1.033848  0  0.113201  0  0.106614  0.132191  0  1.031905  0
H  H12  1  0.48039179  0.68107338  0.54035375  1  0  0.108668  0  0.973484  0  0  0.117659  0  1.036558  0  0  0.120704  0  1.033675  0  0.186585  0  0.121181  0.115359  0  1.038679  0
H  H13  1  0.48039216  0.18107252  0.95964625  1  0  0.108608  0  0.973467  0  0  0.117597  0  1.036552  0  0  0.120642  0  1.033669  0  0.186576  0  0.121165  0.115297  0  1.038672  0
H  H14  1  0.51960943  0.31892922  0.45964746  1  0  0.108631  0  0.973536  0  0  0.117629  0  1.036603  0  0  0.120673  0  1.033721  0  0.186593  0  0.121197  0.115329  0  1.038723  0
H  H15  1  0.51961301  0.81893095  0.04035315  1  0  0.108635  0  0.973542  0  0  0.117639  0  1.036594  0  0  0.120689  0  1.033709  0  0.18659  0  0.121196  0.11534  0  1.038714  0
H  H16  1  0.70487767  0.88190113  0.22753279  1  0  0.098936  0  0.958693  0  0  0.108892  0  1.02086  0  0  0.111153  0  1.018397  0  0.105164  0  0.120061  0.107243  0  1.022555  0
H  H17  1  0.70488659  0.38190464  0.27246721  1  0  0.098927  0  0.958702  0  0  0.108864  0  1.020887  0  0  0.111123  0  1.018424  0  0.105209  0  0.120054  0.107215  0  1.022579  0
H  H18  1  0.29511536  0.11809359  0.77246541  1  0  0.09896  0  0.958686  0  0  0.108888  0  1.02088  0  0  0.111148  0  1.018416  0  0.105253  0  0.120062  0.107239  0  1.022573  0
H  H19  1  0.29511375  0.61809445  0.72753339  1  0  0.098941  0  0.958703  0  0  0.108883  0  1.020879  0  0  0.111143  0  1.018418  0  0.105231  0  0.120062  0.107236  0  1.022571  0
H  H20  1  0.99487871  0.04688879  0.24804055  1  0  0.143032  0  0.963664  0  0  0.150729  0  1.022276  0  0  0.154527  0  1.020693  0  0.115937  0  0.111428  0.147971  0  1.023628  0
H  H21  1  0.99488193  0.54689403  0.25195584  1  0  0.143108  0  0.96365  0  0  0.150809  0  1.022246  0  0  0.15461  0  1.020657  0  0.115947  0  0.111461  0.148051  0  1.023599  0
H  H22  1  0.00511636  0.95310418  0.75195644  1  0  0.143058  0  0.96358  0  0  0.150762  0  1.022189  0  0  0.154563  0  1.020602  0  0.11596  0  0.111426  0.148003  0  1.023543  0
H  H23  1  0.00511739  0.45310594  0.74804296  1  0  0.143127  0  0.963697  0  0  0.150834  0  1.022276  0  0  0.154632  0  1.020693  0  0.115936  0  0.111464  0.148075  0  1.023629  0
H  H24  1  0.87655075  0.23857745  0.30751354  1  0  0.108691  0  0.951725  0  0  0.11959  0  1.012316  0  0  0.12184  0  1.010308  0  0.158693  0  0.126425  0.117918  0  1.013728  0
H  H25  1  0.87654981  0.73858094  0.19248285  1  0  0.108669  0  0.951724  0  0  0.11959  0  1.012289  0  0  0.12184  0  1.010281  0  0.159008  0  0.126428  0.11792  0  1.013699  0
H  H26  1  0.12345221  0.76141726  0.69248526  1  0  0.108658  0  0.951743  0  0  0.119576  0  1.012309  0  0  0.121825  0  1.010301  0  0.159027  0  0.126421  0.117906  0  1.013718  0
H  H27  1  0.12344951  0.26141903  0.80751654  1  0  0.108648  0  0.951739  0  0  0.119567  0  1.012304  0  0  0.121818  0  1.010293  0  0.159001  0  0.126423  0.117896  0  1.013715  0
H  H28  1  0.13781285  0.05019577  0.55965708  1  0  0.103075  0  0.940319  0  0  0.112913  0  1.000493  0  0  0.115808  0  1.000142  0  0.088555  0  0.104363  0.110844  0  1.000856  0
H  H29  1  0.13781554  0.55019401  0.94034292  1  0  0.10311  0  0.940358  0  0  0.112948  0  1.000521  0  0  0.115845  0  1.000163  0  0.088498  0  0.104379  0.110879  0  1.000884  0
H  H30  1  0.86218523  0.94980420  0.44034292  1  0  0.103122  0  0.940337  0  0  0.112956  0  1.000504  0  0  0.115849  0  1.000154  0  0.088526  0  0.104389  0.110888  0  1.000865  0
H  H31  1  0.86218457  0.44980421  0.05966069  1  0  0.103128  0  0.940346  0  0  0.112971  0  1.0005  0  0  0.115868  0  1.000141  0  0.088464  0  0.104398  0.110903  0  1.00086  0
H  H32  1  0.98227617  0.18741419  0.62976838  1  0  0.089709  0  0.956582  0  0  0.099697  0  1.020186  0  0  0.102743  0  1.018296  0  0.085194  0  0.100403  0.097509  0  1.021563  0
H  H33  1  0.98227842  0.68741067  0.87022861  1  0  0.08978  0  0.956484  0  0  0.099739  0  1.020121  0  0  0.102791  0  1.018216  0  0.085136  0  0.100431  0.097546  0  1.021511  0
H  H34  1  0.01772067  0.81258578  0.37022921  1  0  0.089769  0  0.956522  0  0  0.099745  0  1.020124  0  0  0.102798  0  1.018214  0  0.085367  0  0.100425  0.097552  0  1.021513  0
H  H35  1  0.01772374  0.31258579  0.12977199  1  0  0.08975  0  0.956519  0  0  0.099718  0  1.020135  0  0  0.102765  0  1.01824  0  0.085345  0  0.100407  0.097529  0  1.021511  0
H  H36  1  0.93855211  0.37122458  0.56177055  1  0  0.078608  0  0.983905  0  0  0.089066  0  1.047285  0  0  0.091235  0  1.047294  0  0.078921  0  0.093633  0.087454  0  1.047447  0
H  H37  1  0.93854917  0.87122019  0.93822765  1  0  0.078637  0  0.983815  0  0  0.089083  0  1.047209  0  0  0.09125  0  1.047219  0  0.078922  0  0.093659  0.087471  0  1.047369  0
H  H38  1  0.06144868  0.62877626  0.43822885  1  0  0.078599  0  0.983827  0  0  0.089046  0  1.047222  0  0  0.091214  0  1.047233  0  0.078946  0  0.093644  0.087438  0  1.047379  0
H  H39  1  0.06145387  0.12877978  0.06177055  1  0  0.078628  0  0.983885  0  0  0.089066  0  1.047289  0  0  0.091235  0  1.047299  0  0.078906  0  0.093654  0.08748  0  1.047424  0
H  H40  1  0.06383420  0.42139671  0.42617916  1  0  0.093391  0  0.959386  0  0  0.103897  0  1.021079  0  0  0.107035  0  1.019355  0  0.071936  0  0.100655  0.101666  0  1.022341  0
H  H41  1  0.06382630  0.92139232  0.07381964  1  0  0.093418  0  0.959485  0  0  0.103911  0  1.021194  0  0  0.107049  0  1.019466  0  0.071872  0  0.100653  0.10168  0  1.022455  0
H  H42  1  0.93617243  0.57860763  0.57382144  1  0  0.093374  0  0.95953  0  0  0.103877  0  1.021222  0  0  0.107012  0  1.0195  0  0.071857  0  0.100637  0.101646  0  1.022482  0
H  H43  1  0.93617741  0.07861028  0.92617856  1  0  0.093378  0  0.959547  0  0  0.103871  0  1.02125  0  0  0.107012  0  1.019517  0  0.071854  0  0.100635  0.101641  0  1.022509  0
H  H44  1  0.46952523  0.87445888  0.47324510  1  0  0.3149  0  0.906924  0  0  0.287767  0  0.979096  0  0  0.297038  0  0.970936  0  0.581116  0  0.320652  0.281159  0  0.985018  0
H  H45  1  0.46952560  0.37445802  0.02675550  1  0  0.314897  0  0.906953  0  0  0.287766  0  0.97912  0  0  0.297036  0  0.970964  0  0.581149  0  0.320645  0.281158  0  0.985042  0
H  H46  1  0.53047329  0.12554284  0.52675430  1  0  0.314933  0  0.906884  0  0  0.287799  0  0.979058  0  0  0.29707  0  0.970896  0  0.581183  0  0.320656  0.281191  0  0.984982  0
H  H47  1  0.53047789  0.62554370  0.97324510  1  0  0.314876  0  0.906964  0  0  0.287763  0  0.979113  0  0  0.29703  0  0.97096  0  0.58116  0  0.32065  0.281156  0  0.985035  0
H  H48  1  0.55415028  0.17497776  0.31816087  1  0  0.305403  0  0.913867  0  0  0.283244  0  0.981647  0  0  0.291031  0  0.975425  0  0.54772  0  0.326005  0.277676  0  0.986209  0
H  H49  1  0.55414743  0.67497862  0.18183853  1  0  0.305374  0  0.913908  0  0  0.283216  0  0.981691  0  0  0.291004  0  0.975469  0  0.547699  0  0.325988  0.277649  0  0.986254  0
H  H50  1  0.44585188  0.82501871  0.68183853  1  0  0.305399  0  0.913926  0  0  0.283234  0  0.981726  0  0  0.291022  0  0.975504  0  0.547656  0  0.325993  0.277666  0  0.986289  0
H  H51  1  0.44585065  0.32502135  0.81816328  1  0  0.30542  0  0.913871  0  0  0.283261  0  0.981661  0  0  0.291049  0  0.975441  0  0.54768  0  0.326006  0.277694  0  0.986223  0
C  C52  1  0.35419710  0.66821755  0.35145229  1  0  0.056893  0  3.715822  0  0  0.011704  0  3.991268  0  0  0.020998  0  4.005587  0  0.430759  0  0.017688  0.005867  0  3.98138  0
C  C53  1  0.35419702  0.16821494  0.14854711  1  0  0.056839  0  3.71585  0  0  0.011643  0  3.991316  0  0  0.020936  0  4.005637  0  0.430879  0  0.017684  0.005804  0  3.981431  0
C  C54  1  0.64579646  0.33178417  0.64854891  1  0  0.056807  0  3.715867  0  0  0.0116  0  3.991347  0  0  0.020894  0  4.005665  0  0.430673  0  0.01764  0.005776  0  3.981445  0
C  C55  1  0.64580084  0.83178415  0.85145109  1  0  0.056817  0  3.715879  0  0  0.011628  0  3.991328  0  0  0.020924  0  4.005647  0  0.430722  0  0.017682  0.005789  0  3.98144  0
C  C56  1  0.39218462  0.60445938  0.41863133  1  0  -0.217641  0  3.770755  0  0  -0.22736  0  4.028421  0  0  -0.237401  0  4.049418  0  -0.029181  0  -0.117256  -0.220885  0  4.01417  0
C  C57  1  0.39218016  0.10445414  0.08136927  1  0  -0.217583  0  3.770753  0  0  -0.227291  0  4.028392  0  0  -0.237331  0  4.049388  0  -0.029364  0  -0.117248  -0.220819  0  4.014145  0
C  C58  1  0.60781332  0.39554497  0.58137047  1  0  -0.217578  0  3.770661  0  0  -0.227254  0  4.028324  0  0  -0.237294  0  4.049322  0  -0.029085  0  -0.117204  -0.220781  0  4.014071  0
C  C59  1  0.60781668  0.89554583  0.91862772  1  0  -0.21767  0  3.770697  0  0  -0.227365  0  4.028358  0  0  -0.237404  0  4.04935  0  -0.029168  0  -0.117273  -0.22089  0  4.014106  0
C  C60  1  0.44082140  0.68789573  0.47828059  1  0  0.066675  0  3.669473  0  0  0.019417  0  3.928374  0  0  0.028306  0  3.942763  0  0.290774  0  0.027457  0.013971  0  3.918367  0
C  C61  1  0.44081862  0.18789224  0.02171881  1  0  0.066819  0  3.669237  0  0  0.019558  0  3.928133  0  0  0.028446  0  3.942522  0  0.290802  0  0.027489  0.014113  0  3.918128  0
C  C62  1  0.55917881  0.31210774  0.52171881  1  0  0.066756  0  3.6693  0  0  0.019487  0  3.928189  0  0  0.028375  0  3.942578  0  0.290759  0  0.027435  0.014043  0  3.918187  0
C  C63  1  0.55918318  0.81210772  0.97828300  1  0  0.066728  0  3.669232  0  0  0.019485  0  3.928092  0  0  0.028367  0  3.942484  0  0.29074  0  0.02745  0.014043  0  3.918089  0
C  C64  1  0.72033505  0.97088327  0.24969739  1  0  0.060182  0  3.724102  0  0  0.020301  0  3.987706  0  0  0.029348  0  4.002507  0  0.411978  0  0.020678  0.014626  0  3.977431  0
C  C65  1  0.72034149  0.47088679  0.25030141  1  0  0.06025  0  3.724062  0  0  0.020388  0  3.987672  0  0  0.029435  0  4.002476  0  0.41198  0  0.020695  0.014718  0  3.977386  0
C  C66  1  0.27966192  0.02911232  0.75030141  1  0  0.06027  0  3.72403  0  0  0.020409  0  3.987641  0  0  0.029457  0  4.002442  0  0.41198  0  0.020719  0.01474  0  3.977355  0
C  C67  1  0.27965885  0.52911231  0.74969919  1  0  0.060272  0  3.724063  0  0  0.020403  0  3.987667  0  0  0.02945  0  4.00247  0  0.411972  0  0.020713  0.014734  0  3.97738  0
C  C68  1  0.86548733  0.05589829  0.25916195  1  0  -0.198936  0  3.747094  0  0  -0.210963  0  4.005047  0  0  -0.220711  0  4.02464  0  -0.004781  0  -0.110308  -0.204685  0  3.991787  0
C  C69  1  0.86548865  0.55590090  0.24083444  1  0  -0.199084  0  3.747179  0  0  -0.211117  0  4.005143  0  0  -0.220866  0  4.024732  0  -0.004928  0  -0.110326  -0.204837  0  3.991885  0
C  C70  1  0.13451314  0.94409643  0.74083504  1  0  -0.199064  0  3.74709  0  0  -0.211105  0  4.005056  0  0  -0.220855  0  4.024649  0  -0.004863  0  -0.110318  -0.204826  0  3.991799  0
C  C71  1  0.13451067  0.44409907  0.75916496  1  0  -0.199178  0  3.747265  0  0  -0.211217  0  4.005224  0  0  -0.220967  0  4.024815  0  -0.004739  0  -0.110378  -0.204937  0  3.991967  0
C  C72  1  0.80807203  0.15299423  0.29052160  1  0  0.063504  0  3.660393  0  0  0.015874  0  3.922121  0  0  0.025027  0  3.936601  0  0.352179  0  0.027965  0.010194  0  3.91209  0
C  C73  1  0.80807189  0.65299597  0.20947479  1  0  0.0635  0  3.660553  0  0  0.01585  0  3.922292  0  0  0.025002  0  3.936776  0  0.351993  0  0.027923  0.010169  0  3.912261  0
C  C74  1  0.19192866  0.84700136  0.70947479  1  0  0.0635  0  3.660604  0  0  0.015867  0  3.922316  0  0  0.02502  0  3.936798  0  0.35191  0  0.027918  0.010186  0  3.912286  0
C  C75  1  0.19192619  0.34700400  0.79052521  1  0  0.063621  0  3.660522  0  0  0.016  0  3.922252  0  0  0.025154  0  3.93673  0  0.351772  0  0.027981  0.010318  0  3.912223  0
C  C76  1  0.18959262  0.15895416  0.45440501  1  0  -0.057613  0  3.74282  0  0  -0.043902  0  3.977717  0  0  -0.04822  0  3.998951  0  -0.041522  0  -0.009933  -0.041061  0  3.963516  0
C  C77  1  0.18958844  0.65894976  0.04559560  1  0  -0.057501  0  3.742841  0  0  -0.043825  0  3.977733  0  0  -0.048144  0  3.998968  0  -0.041466  0  -0.009929  -0.040985  0  3.963531  0
C  C78  1  0.81041401  0.84105019  0.54559620  1  0  -0.057574  0  3.742957  0  0  -0.043886  0  3.977843  0  0  -0.048204  0  3.999076  0  -0.041496  0  -0.009942  -0.041043  0  3.963636  0
C  C79  1  0.81040919  0.34104845  0.95440621  1  0  -0.057485  0  3.742869  0  0  -0.0438  0  3.977736  0  0  -0.048116  0  3.998969  0  -0.041518  0  -0.009941  -0.040968  0  3.96355  0
C  C80  1  0.12162835  0.13196069  0.53090242  1  0  -0.076551  0  3.723096  0  0  -0.099525  0  3.97345  0  0  -0.101224  0  3.993341  0  -0.017548  0  -0.083303  -0.098391  0  3.960043  0
C  C81  1  0.12163104  0.63195892  0.96909638  1  0  -0.076621  0  3.723211  0  0  -0.099576  0  3.973526  0  0  -0.101281  0  3.993432  0  -0.017582  0  -0.083342  -0.098441  0  3.960118  0
C  C82  1  0.87837018  0.86804103  0.46909698  1  0  -0.076549  0  3.723202  0  0  -0.099506  0  3.973516  0  0  -0.101211  0  3.993421  0  -0.017566  0  -0.083316  -0.098372  0  3.960108  0
C  C83  1  0.87836828  0.36804105  0.03090482  1  0  -0.076664  0  3.72318  0  0  -0.099632  0  3.9735  0  0  -0.101337  0  3.993405  0  -0.017571  0  -0.083365  -0.098496  0  3.960094  0
C  C84  1  0.03328914  0.20888814  0.56984238  1  0  -0.049594  0  3.74554  0  0  -0.067106  0  3.999112  0  0  -0.067262  0  4.018542  0  -0.08307  0  -0.088452  -0.066882  0  3.985905  0
C  C85  1  0.03328970  0.70888287  0.93015582  1  0  -0.049684  0  3.74548  0  0  -0.067174  0  3.999048  0  0  -0.06733  0  4.018483  0  -0.083156  0  -0.088471  -0.066949  0  3.985837  0
C  C86  1  0.96671107  0.79111533  0.43015642  1  0  -0.049753  0  3.745522  0  0  -0.067249  0  3.999099  0  0  -0.067405  0  4.018534  0  -0.083366  0  -0.088491  -0.067025  0  3.985889  0
C  C87  1  0.96670917  0.29111535  0.06984418  1  0  -0.049632  0  3.745397  0  0  -0.067119  0  3.998967  0  0  -0.067277  0  4.018401  0  -0.083282  0  -0.088448  -0.066894  0  3.985763  0
C  C88  1  0.00987154  0.31215765  0.53184454  1  0  -0.066183  0  3.778726  0  0  -0.080435  0  4.027233  0  0  -0.082599  0  4.048917  0  -0.016487  0  -0.093535  -0.07897  0  4.012532  0
C  C89  1  0.00987189  0.81215150  0.96815305  1  0  -0.066173  0  3.778654  0  0  -0.080417  0  4.027142  0  0  -0.08258  0  4.048826  0  -0.016416  0  -0.093559  -0.07895  0  4.012441  0
C  C90  1  0.99012787  0.68784758  0.46815425  1  0  -0.066102  0  3.778649  0  0  -0.080346  0  4.027145  0  0  -0.082509  0  4.04883  0  -0.016444  0  -0.093538  -0.078882  0  4.012443  0
C  C91  1  0.99013195  0.18784672  0.03184575  1  0  -0.066193  0  3.778654  0  0  -0.080437  0  4.027158  0  0  -0.082601  0  4.048843  0  -0.016412  0  -0.093539  -0.078992  0  4.012446  0
C  C92  1  0.07831063  0.33989009  0.45574419  1  0  -0.088922  0  3.760897  0  0  -0.109336  0  4.006563  0  0  -0.109925  0  4.026848  0  -0.005533  0  -0.08991  -0.108814  0  3.992836  0
C  C93  1  0.07830419  0.83988657  0.04425460  1  0  -0.088943  0  3.761018  0  0  -0.109353  0  4.006675  0  0  -0.109938  0  4.026959  0  -0.005318  0  -0.089895  -0.108832  0  3.992946  0
C  C94  1  0.92169578  0.66011338  0.54425581  1  0  -0.088913  0  3.761049  0  0  -0.109321  0  4.006706  0  0  -0.109907  0  4.026991  0  -0.005325  0  -0.08991  -0.1088  0  3.992978  0
C  C95  1  0.92169907  0.16011427  0.95574359  1  0  -0.088915  0  3.760946  0  0  -0.109312  0  4.0066  0  0  -0.109895  0  4.02688  0  -0.005269  0  -0.08991  -0.108791  0  3.992878  0
C  C96  1  0.17183342  0.26498868  0.41719107  1  0  -0.0942  0  3.766036  0  0  -0.079078  0  4.000058  0  0  -0.086348  0  4.023084  0  -0.066036  0  -0.018871  -0.074417  0  3.984738  0
C  C97  1  0.17182969  0.76498604  0.08280893  1  0  -0.094232  0  3.766072  0  0  -0.079101  0  4.000092  0  0  -0.086372  0  4.023117  0  -0.06608  0  -0.018874  -0.074439  0  3.984769  0
C  C98  1  0.82817299  0.73501479  0.58280893  1  0  -0.094219  0  3.76607  0  0  -0.079085  0  4.000082  0  0  -0.086356  0  4.023108  0  -0.065635  0  -0.018851  -0.074422  0  3.984756  0
C  C99  1  0.82817176  0.23501743  0.91719047  1  0  -0.094276  0  3.76598  0  0  -0.079181  0  4.000047  0  0  -0.08645  0  4.023069  0  -0.065632  0  -0.018926  -0.074517  0  3.984726  0
C  C100  1  0.27860769  0.07310914  0.41261762  1  0  0.646083  0  3.917028  0  0  0.590581  0  4.220984  0  0  0.624608  0  4.212295  0  1.557038  0  0.203957  0.567415  0  4.226192  0
C  C101  1  0.27860746  0.57310562  0.08738238  1  0  0.645968  0  3.917111  0  0  0.590529  0  4.220989  0  0  0.624557  0  4.2123  0  1.556706  0  0.203924  0.567362  0  4.226198  0
C  C102  1  0.72139105  0.92689345  0.58738238  1  0  0.645951  0  3.917109  0  0  0.59049  0  4.221016  0  0  0.624518  0  4.212327  0  1.557072  0  0.203897  0.567324  0  4.226225  0
C  C103  1  0.72139266  0.42689259  0.91262002  1  0  0.645953  0  3.917073  0  0  0.590524  0  4.220931  0  0  0.624547  0  4.212246  0  1.55697  0  0.203935  0.56736  0  4.226137  0
C  C104  1  0.26735489  0.30385385  0.34180424  1  0  0.648349  0  3.908071  0  0  0.597292  0  4.203963  0  0  0.631715  0  4.195723  0  1.56027  0  0.205284  0.573916  0  4.208875  0
C  C105  1  0.26735306  0.80385383  0.15819516  1  0  0.648318  0  3.908132  0  0  0.597271  0  4.203999  0  0  0.631694  0  4.195761  0  1.560274  0  0.205283  0.573895  0  4.20891  0
C  C106  1  0.73264837  0.69614699  0.65819757  1  0  0.648277  0  3.908021  0  0  0.59722  0  4.203907  0  0  0.631643  0  4.195671  0  1.559864  0  0.205264  0.573842  0  4.208818  0
C  C107  1  0.73264940  0.19614876  0.84180424  1  0  0.648402  0  3.908042  0  0  0.597347  0  4.203922  0  0  0.631766  0  4.195681  0  1.559773  0  0.205332  0.57397  0  4.208832  0
N  N108  1  0.37907883  0.78333862  0.36918963  1  0  -0.259651  0  3.240885  0  0  -0.193985  0  3.539731  0  0  -0.210162  0  3.55401  0  -0.751405  0  -0.259683  -0.183132  0  3.530088  0
N  N109  1  0.37908044  0.28333776  0.13081158  1  0  -0.259622  0  3.240782  0  0  -0.193971  0  3.539655  0  0  -0.210147  0  3.553932  0  -0.751429  0  -0.25968  -0.183116  0  3.530011  0
N  N110  1  0.62091451  0.21666222  0.63081158  1  0  -0.259591  0  3.240873  0  0  -0.193914  0  3.539721  0  0  -0.21009  0  3.553997  0  -0.751368  0  -0.259663  -0.18306  0  3.530075  0
N  N111  1  0.62092012  0.71666221  0.86918842  1  0  -0.259618  0  3.240772  0  0  -0.193959  0  3.539649  0  0  -0.210141  0  3.553929  0  -0.75138  0  -0.259669  -0.183101  0  3.530007  0
N  N112  1  0.43118988  0.79327884  0.44647215  1  0  -0.14581  0  3.481196  0  0  -0.081684  0  3.70982  0  0  -0.094349  0  3.72955  0  -0.840883  0  -0.271215  -0.073344  0  3.69659  0
N  N113  1  0.43118901  0.29327798  0.05352906  1  0  -0.145861  0  3.480991  0  0  -0.081734  0  3.709619  0  0  -0.094398  0  3.72935  0  -0.840794  0  -0.271241  -0.073398  0  3.696396  0
N  N114  1  0.56880842  0.20672201  0.55352906  1  0  -0.145881  0  3.48098  0  0  -0.081755  0  3.709591  0  0  -0.094419  0  3.729318  0  -0.840848  0  -0.271223  -0.073421  0  3.696373  0
N  N115  1  0.56881301  0.70672287  0.94647215  1  0  -0.145768  0  3.480969  0  0  -0.08167  0  3.709609  0  0  -0.09433  0  3.729341  0  -0.840798  0  -0.27123  -0.073342  0  3.696397  0
N  N116  1  0.58310418  0.01299416  0.27373300  1  0  -0.261126  0  3.240239  0  0  -0.199424  0  3.541734  0  0  -0.215067  0  3.555362  0  -0.759456  0  -0.261479  -0.188953  0  3.532568  0
N  N117  1  0.58310776  0.51299590  0.22626639  1  0  -0.261213  0  3.240187  0  0  -0.199514  0  3.541691  0  0  -0.215157  0  3.555316  0  -0.759441  0  -0.261495  -0.189042  0  3.532527  0
N  N118  1  0.41689426  0.98700230  0.72626700  1  0  -0.26124  0  3.240245  0  0  -0.199526  0  3.541746  0  0  -0.215169  0  3.55537  0  -0.759451  0  -0.2615  -0.189054  0  3.53258  0
N  N119  1  0.41689134  0.48700319  0.77373481  1  0  -0.261194  0  3.240258  0  0  -0.199467  0  3.541769  0  0  -0.21511  0  3.555397  0  -0.759403  0  -0.261479  -0.188995  0  3.532605  0
N  N120  1  0.63904694  0.12394845  0.29856515  1  0  -0.147961  0  3.477058  0  0  -0.086638  0  3.708086  0  0  -0.098762  0  3.727112  0  -0.800969  0  -0.275278  -0.078674  0  3.69538  0
N  N121  1  0.63904782  0.62394931  0.20143304  1  0  -0.147813  0  3.477078  0  0  -0.086493  0  3.70809  0  0  -0.098615  0  3.727116  0  -0.80102  0  -0.275226  -0.078531  0  3.695385  0
N  N122  1  0.36095273  0.87604802  0.70143424  1  0  -0.147823  0  3.477231  0  0  -0.086508  0  3.708232  0  0  -0.098634  0  3.72726  0  -0.801043  0  -0.275217  -0.078546  0  3.695528  0
N  N123  1  0.36094880  0.37604978  0.79856816  1  0  -0.147927  0  3.477139  0  0  -0.086672  0  3.708238  0  0  -0.098796  0  3.727262  0  -0.801021  0  -0.275284  -0.078709  0  3.695534  0
O  O124  1  0.21953424  0.03556694  0.34324810  1  0  -0.637784  0  2.041733  0  0  -0.561812  0  2.311523  0  0  -0.591273  0  2.298379  0  -1.162818  0  -0.327573  -0.541205  0  2.319848  0
O  O125  1  0.21953366  0.53556692  0.15675190  1  0  -0.637799  0  2.041838  0  0  -0.561826  0  2.311581  0  0  -0.591291  0  2.29844  0  -1.162777  0  -0.327576  -0.541219  0  2.319908  0
O  O126  1  0.78046552  0.96443478  0.65675250  1  0  -0.63775  0  2.04172  0  0  -0.561779  0  2.311487  0  0  -0.591241  0  2.298339  0  -1.162774  0  -0.327543  -0.54116  0  2.319785  0
O  O127  1  0.78046735  0.46443479  0.84325111  1  0  -0.637768  0  2.041839  0  0  -0.561788  0  2.311549  0  0  -0.591247  0  2.298405  0  -1.162746  0  -0.327556  -0.541177  0  2.319866  0
O  O128  1  0.40105145  0.03925479  0.44617916  1  0  -0.607508  0  1.992712  0  0  -0.558679  0  2.227971  0  0  -0.580727  0  2.21734  0  -1.17963  0  -0.306772  -0.543106  0  2.234746  0
O  O129  1  0.40105312  0.53925390  0.05381843  1  0  -0.607448  0  1.992597  0  0  -0.558677  0  2.227844  0  0  -0.580723  0  2.217212  0  -1.179377  0  -0.306768  -0.543104  0  2.23462  0
O  O130  1  0.59894721  0.96074255  0.55381964  1  0  -0.607414  0  1.992676  0  0  -0.558609  0  2.227919  0  0  -0.580657  0  2.217286  0  -1.179787  0  -0.306736  -0.543039  0  2.234696  0
O  O131  1  0.59894620  0.46074607  0.94618217  1  0  -0.607446  0  1.992555  0  0  -0.558666  0  2.227791  0  0  -0.580712  0  2.217161  0  -1.179732  0  -0.306759  -0.543093  0  2.234565  0
O  O132  1  0.19709137  0.36507115  0.29148959  1  0  -0.624326  0  2.002105  0  0  -0.547342  0  2.261124  0  0  -0.575522  0  2.246743  0  -1.163554  0  -0.325699  -0.527674  0  2.270287  0
O  O133  1  0.19708976  0.86507201  0.20850981  1  0  -0.624324  0  2.00208  0  0  -0.547347  0  2.261105  0  0  -0.575527  0  2.246727  0  -1.163567  0  -0.325707  -0.52768  0  2.270269  0
O  O134  1  0.80290875  0.63492706  0.70851101  1  0  -0.624297  0  2.001969  0  0  -0.547347  0  2.261036  0  0  -0.575518  0  2.246636  0  -1.163602  0  -0.32573  -0.527681  0  2.270201  0
O  O135  1  0.80291293  0.13493146  0.79148959  1  0  -0.624331  0  2.002075  0  0  -0.547374  0  2.261118  0  0  -0.57558  0  2.246793  0  -1.16357  0  -0.325708  -0.527709  0  2.270285  0
O  O136  1  0.41414077  0.28146056  0.33209000  1  0  -0.646128  0  1.971792  0  0  -0.596723  0  2.208223  0  0  -0.6204  0  2.19796  0  -1.207763  0  -0.318486  -0.579989  0  2.214546  0
O  O137  1  0.41414018  0.78146055  0.16790819  1  0  -0.646091  0  1.971801  0  0  -0.596709  0  2.208268  0  0  -0.62039  0  2.19801  0  -1.207703  0  -0.318466  -0.57997  0  2.214581  0
O  O138  1  0.58586249  0.71854028  0.66791000  1  0  -0.646087  0  1.971812  0  0  -0.596675  0  2.208246  0  0  -0.620353  0  2.197984  0  -1.207686  0  -0.318451  -0.57995  0  2.214589  0
O  O139  1  0.58586476  0.21854205  0.83209181  1  0  -0.646156  0  1.971915  0  0  -0.596663  0  2.208256  0  0  -0.620336  0  2.197994  0  -1.207644  0  -0.318446  -0.579935  0  2.214594  0
