# generated using pymatgen
data_Zn5H68C60N8(ClO7)2
_symmetry_space_group_name_H-M   'P 1'
_cell_length_a   11.30285939
_cell_length_b   12.74242603
_cell_length_c   23.89111959
_cell_angle_alpha   90.00010442
_cell_angle_beta   104.17913199
_cell_angle_gamma   89.99977796
_symmetry_Int_Tables_number   1
_chemical_formula_structural   Zn5H68C60N8(ClO7)2
_chemical_formula_sum   'Zn10 H136 C120 N16 Cl4 O28'
_cell_volume   3336.10932775
_cell_formula_units_Z   2
loop_
 _symmetry_equiv_pos_site_id
 _symmetry_equiv_pos_as_xyz
  1  'x, y, z'
loop_
 _atom_site_type_symbol
 _atom_site_label
 _atom_site_symmetry_multiplicity
 _atom_site_fract_x
 _atom_site_fract_y
 _atom_site_fract_z
 _atom_site_occupancy
 _atom_site_pbe_bader_charge
 _atom_site_pbe_bader_spin_density
 _atom_site_pbe_cm5_charge
 _atom_site_pbe_ddec_charge
 _atom_site_pbe_ddec_spin_density
 _atom_site_pbe_ddec_sum_bond_order
 _atom_site_pbe_magmom
Zn  Zn0  1  0.40340062  0.48190180  0.31428475  1  1.166325  0  0.691506  0.655936  0  2.324017  0
Zn  Zn1  1  0.59659919  0.98190337  0.18571628  1  1.166354  0  0.691517  0.655944  0  2.324034  0
Zn  Zn2  1  0.59659841  0.51809929  0.68571677  1  1.166353  0  0.691508  0.655826  0  2.324053  0
Zn  Zn3  1  0.40340255  0.01809693  0.81428469  1  1.166279  0  0.691513  0.655898  0  2.324086  0
Zn  Zn4  1  0.80685569  0.93514224  0.38719057  1  1.258207  0  0.588196  0.887419  0  2.362076  0
Zn  Zn5  1  0.19314705  0.43514620  0.11281073  1  1.258129  0  0.588176  0.887323  0  2.362077  0
Zn  Zn6  1  0.19314965  0.06486041  0.61280953  1  1.258109  0  0.588209  0.887372  0  2.361995  0
Zn  Zn7  1  0.80684924  0.56485803  0.88719049  1  1.258133  0  0.58817  0.88734  0  2.362086  0
Zn  Zn8  1  0.00000081  0.50000369  0.00000074  1  1.361118  0  0.638506  1.010876  0  2.255225  0
Zn  Zn9  1  0.00000712  0.99999410  0.50000161  1  1.360959  0  0.638493  1.010836  0  2.255295  0
H  H10  1  0.84466667  0.23285093  0.19213899  1  0.091215  0  0.096724  0.096665  0  1.029896  0
H  H11  1  0.15532772  0.73285128  0.30785954  1  0.091653  0  0.09675  0.096689  0  1.029886  0
H  H12  1  0.15533313  0.76715094  0.80785884  1  0.091303  0  0.096734  0.096641  0  1.029925  0
H  H13  1  0.84467035  0.26714745  0.69214061  1  0.091559  0  0.096703  0.096635  0  1.02996  0
H  H14  1  0.02338799  0.35417778  0.21563377  1  0.091071  0  0.097883  0.107906  0  1.03959  0
H  H15  1  0.97660214  0.85417682  0.28436149  1  0.090819  0  0.097928  0.107998  0  1.039343  0
H  H16  1  0.97660907  0.64582488  0.78436376  1  0.091031  0  0.097918  0.107979  0  1.039506  0
H  H17  1  0.02339309  0.14581799  0.71563585  1  0.090982  0  0.097913  0.107941  0  1.039523  0
H  H18  1  0.04448210  0.31329259  0.39697781  1  0.0221  0  0.097169  0.098257  0  1.000365  0
H  H19  1  0.95552000  0.81329030  0.10301703  1  0.022005  0  0.097172  0.098217  0  1.000367  0
H  H20  1  0.95551767  0.68671007  0.60301918  1  0.022362  0  0.097155  0.098221  0  1.000313  0
H  H21  1  0.04448068  0.18670451  0.89698007  1  0.022054  0  0.097166  0.098236  0  1.000326  0
H  H22  1  0.86811022  0.19087332  0.37311520  1  0.15189  0  0.103101  0.115067  0  1.044939  0
H  H23  1  0.13189344  0.69087000  0.12688346  1  0.151814  0  0.103105  0.115095  0  1.045057  0
H  H24  1  0.13188871  0.80912933  0.62688380  1  0.151803  0  0.103094  0.115061  0  1.045134  0
H  H25  1  0.86810916  0.30912559  0.87311635  1  0.151855  0  0.103114  0.115036  0  1.045113  0
H  H26  1  0.13232527  0.48421261  0.29067358  1  0.090553  0  0.110407  0.101077  0  1.010307  0
H  H27  1  0.86767337  0.98421412  0.20932063  1  0.090616  0  0.110419  0.1011  0  1.010251  0
H  H28  1  0.86767811  0.51578926  0.70932297  1  0.090616  0  0.110409  0.101077  0  1.010297  0
H  H29  1  0.13232555  0.01578304  0.79067794  1  0.090516  0  0.11041  0.101038  0  1.010372  0
H  H30  1  0.16585858  0.44850912  0.36455162  1  0.021531  0  0.099595  0.071759  0  0.982819  0
H  H31  1  0.83413664  0.94850814  0.13544428  1  0.02135  0  0.099571  0.071668  0  0.982927  0
H  H32  1  0.83414118  0.55149432  0.63544496  1  0.021394  0  0.099588  0.071717  0  0.982807  0
H  H33  1  0.16586047  0.05148981  0.86455452  1  0.021369  0  0.099551  0.071635  0  0.982936  0
H  H34  1  0.25912310  0.21584209  0.35009488  1  0.091278  0  0.104743  0.088751  0  1.01924  0
H  H35  1  0.74087505  0.71584148  0.14990488  1  0.091312  0  0.104742  0.088762  0  1.019226  0
H  H36  1  0.74087494  0.78415899  0.64990444  1  0.091287  0  0.104748  0.088771  0  1.019231  0
H  H37  1  0.25912022  0.28415803  0.85009330  1  0.091299  0  0.104725  0.088724  0  1.019217  0
H  H38  1  0.30581799  0.31838223  0.40031417  1  0.012376  0  0.101611  0.072516  0  0.985852  0
H  H39  1  0.69417515  0.81837925  0.09968473  1  0.012422  0  0.101618  0.072536  0  0.985865  0
H  H40  1  0.69417821  0.68161886  0.59968453  1  0.012381  0  0.10159  0.072498  0  0.985872  0
H  H41  1  0.30582108  0.18161948  0.90031481  1  0.012399  0  0.101616  0.072522  0  0.985841  0
H  H42  1  0.48233256  0.20387389  0.39313643  1  0.079641  0  0.104106  0.090258  0  1.012207  0
H  H43  1  0.51766572  0.70387154  0.10686543  1  0.07965  0  0.104103  0.090255  0  1.012174  0
H  H44  1  0.51766553  0.79612562  0.60686415  1  0.079671  0  0.104122  0.090277  0  1.012161  0
H  H45  1  0.48233138  0.29612483  0.89313295  1  0.079737  0  0.104141  0.090341  0  1.012185  0
H  H46  1  0.45058246  0.22769581  0.31835978  1  0.03401  0  0.111274  0.096468  0  1.009261  0
H  H47  1  0.54941751  0.72769675  0.18164145  1  0.03395  0  0.111256  0.096457  0  1.009245  0
H  H48  1  0.54941745  0.77230292  0.68164100  1  0.03402  0  0.111256  0.096448  0  1.00926  0
H  H49  1  0.45057868  0.27230120  0.81835725  1  0.033987  0  0.111245  0.096436  0  1.009283  0
H  H50  1  0.67347776  0.27182916  0.35165024  1  0.105719  0  0.108303  0.102827  0  1.006157  0
H  H51  1  0.32651567  0.77183466  0.14835116  1  0.105764  0  0.10833  0.102851  0  1.006105  0
H  H52  1  0.32652212  0.72816957  0.64834970  1  0.105726  0  0.108298  0.10281  0  1.006115  0
H  H53  1  0.67347694  0.22816642  0.85164883  1  0.105788  0  0.108298  0.102808  0  1.006139  0
H  H54  1  0.69478720  0.40955801  0.36018927  1  0.036075  0  0.105806  0.085537  0  0.98269  0
H  H55  1  0.30521199  0.90956434  0.13981121  1  0.035968  0  0.10578  0.08552  0  0.982708  0
H  H56  1  0.30521270  0.59043993  0.63981109  1  0.036036  0  0.105788  0.085502  0  0.982756  0
H  H57  1  0.69478418  0.09043596  0.86018665  1  0.036046  0  0.105777  0.085502  0  0.982722  0
H  H58  1  0.52861024  0.29740522  0.25613596  1  0.06618  0  0.100632  0.084201  0  1.014997  0
H  H59  1  0.47139114  0.79740820  0.24386214  1  0.066225  0  0.100578  0.084116  0  1.015018  0
H  H60  1  0.47138871  0.70259508  0.74386346  1  0.066176  0  0.10063  0.084226  0  1.014992  0
H  H61  1  0.52860504  0.20259367  0.75613614  1  0.066331  0  0.100617  0.084204  0  1.015046  0
H  H62  1  0.66920578  0.36015049  0.25837177  1  0.063977  0  0.104284  0.090224  0  1.00537  0
H  H63  1  0.33079461  0.86015473  0.24163088  1  0.063951  0  0.104314  0.090289  0  1.005272  0
H  H64  1  0.33079230  0.63985138  0.74162839  1  0.063942  0  0.104291  0.090237  0  1.005312  0
H  H65  1  0.66920345  0.13984871  0.75836886  1  0.064014  0  0.104271  0.090217  0  1.005337  0
H  H66  1  0.64174649  0.57611028  0.30343613  1  0.000543  0  0.098679  0.079757  0  0.999523  0
H  H67  1  0.35825228  0.07611317  0.19656483  1  0.000481  0  0.09863  0.079767  0  0.99955  0
H  H68  1  0.35825257  0.42389002  0.69656623  1  0.000506  0  0.098598  0.07964  0  0.999501  0
H  H69  1  0.64174846  0.92388870  0.80343394  1  0.000523  0  0.098592  0.079642  0  0.99948  0
H  H70  1  0.52667813  0.61815888  0.24325119  1  0.089939  0  0.107097  0.094505  0  1.021598  0
H  H71  1  0.47331772  0.11816080  0.25674907  1  0.089956  0  0.107107  0.094517  0  1.021652  0
H  H72  1  0.47331918  0.38184064  0.75675266  1  0.089815  0  0.107106  0.094543  0  1.021533  0
H  H73  1  0.52668294  0.88184185  0.74324760  1  0.08982  0  0.107123  0.094551  0  1.021586  0
H  H74  1  0.55063951  0.49122288  0.14576513  1  0.079606  0  0.103078  0.116471  0  1.003128  0
H  H75  1  0.44935757  0.99122474  0.35423645  1  0.079645  0  0.103066  0.116465  0  1.003129  0
H  H76  1  0.44934859  0.50878527  0.85423562  1  0.079813  0  0.103108  0.116558  0  1.003001  0
H  H77  1  0.55064950  0.00878498  0.64576133  1  0.07974  0  0.103082  0.11648  0  1.00308  0
H  H78  1  0.70454368  0.47083472  0.08767721  1  0.080785  0  0.098031  0.100086  0  1.049697  0
H  H79  1  0.29545349  0.97083573  0.41232478  1  0.080728  0  0.097975  0.100032  0  1.049664  0
H  H80  1  0.29544352  0.52916872  0.91232387  1  0.080771  0  0.097929  0.099975  0  1.04965  0
H  H81  1  0.70455728  0.02916614  0.58767465  1  0.080742  0  0.09797  0.099974  0  1.049648  0
H  H82  1  0.98802354  0.57176738  0.23161098  1  0.096835  0  0.099969  0.098445  0  1.048448  0
H  H83  1  0.01197333  0.07176542  0.26838725  1  0.096791  0  0.099992  0.098466  0  1.048473  0
H  H84  1  0.01196903  0.42822821  0.76838775  1  0.09667  0  0.100012  0.098441  0  1.048713  0
H  H85  1  0.98802479  0.92822939  0.73161417  1  0.096749  0  0.099996  0.098453  0  1.048622  0
H  H86  1  0.83502804  0.59819520  0.28986725  1  0.052812  0  0.094421  0.097595  0  1.010807  0
H  H87  1  0.16497249  0.09819566  0.21013433  1  0.052858  0  0.094416  0.097569  0  1.010741  0
H  H88  1  0.16497013  0.40180117  0.71013543  1  0.052891  0  0.094453  0.097633  0  1.010852  0
H  H89  1  0.83502378  0.90180699  0.78986605  1  0.052869  0  0.09442  0.097618  0  1.010696  0
H  H90  1  0.63774116  0.35634234  0.45353653  1  0.040291  0  0.100517  0.084954  0  1.009529  0
H  H91  1  0.36225468  0.85634581  0.04646563  1  0.040206  0  0.100525  0.085002  0  1.009487  0
H  H92  1  0.36226148  0.64365090  0.54646412  1  0.040547  0  0.100553  0.085036  0  1.009536  0
H  H93  1  0.63773883  0.14365135  0.95353403  1  0.04056  0  0.100548  0.085074  0  1.009526  0
H  H94  1  0.48090555  0.37630740  0.44750994  1  0.035176  0  0.102783  0.074607  0  1.014881  0
H  H95  1  0.51909198  0.87630643  0.05249116  1  0.035263  0  0.102773  0.074592  0  1.014932  0
H  H96  1  0.51909801  0.62369133  0.55249123  1  0.035171  0  0.102784  0.074643  0  1.014846  0
H  H97  1  0.48090330  0.12369230  0.94750744  1  0.035201  0  0.102797  0.074701  0  1.014865  0
H  H98  1  0.59556277  0.54166980  0.47554341  1  0.027735  0  0.096609  0.071801  0  0.984833  0
H  H99  1  0.40443438  0.04167116  0.02445901  1  0.027745  0  0.096624  0.071883  0  0.984759  0
H  H100  1  0.40444082  0.45832579  0.52445860  1  0.02801  0  0.096606  0.071839  0  0.984802  0
H  H101  1  0.59556098  0.95832757  0.97554170  1  0.028  0  0.096622  0.071836  0  0.9848  0
H  H102  1  0.65432038  0.53688322  0.41342631  1  0.027034  0  0.111529  0.090464  0  0.975207  0
H  H103  1  0.34568237  0.03688578  0.08657922  1  0.027043  0  0.111511  0.090468  0  0.975138  0
H  H104  1  0.34568597  0.46311237  0.58657641  1  0.027056  0  0.111546  0.090537  0  0.975146  0
H  H105  1  0.65431300  0.96311138  0.91342148  1  0.027035  0  0.111533  0.090497  0  0.97517  0
H  H106  1  0.43206844  0.70544793  0.34426515  1  0.103411  0  0.108541  0.105259  0  0.996131  0
H  H107  1  0.56793710  0.20544761  0.15573665  1  0.103305  0  0.108582  0.105289  0  0.99604  0
H  H108  1  0.56794610  0.29455473  0.65573804  1  0.103767  0  0.108606  0.105375  0  0.996185  0
H  H109  1  0.43205729  0.79455269  0.84426227  1  0.103809  0  0.108568  0.105286  0  0.996152  0
H  H110  1  0.57820242  0.70262883  0.39283988  1  0.078153  0  0.104296  0.095928  0  1.002508  0
H  H111  1  0.42180225  0.20263042  0.10716266  1  0.077911  0  0.104282  0.095929  0  1.002591  0
H  H112  1  0.42181487  0.29736597  0.60716402  1  0.078032  0  0.104275  0.095923  0  1.002726  0
H  H113  1  0.57818856  0.79736596  0.89283755  1  0.077998  0  0.104269  0.095918  0  1.002671  0
H  H114  1  0.25116654  0.67157409  0.40049014  1  0.046684  0  0.101293  0.102974  0  1.011127  0
H  H115  1  0.74883829  0.17157454  0.09951323  1  0.04637  0  0.101262  0.102925  0  1.011133  0
H  H116  1  0.74884714  0.32842464  0.59951421  1  0.046245  0  0.101265  0.102929  0  1.01108  0
H  H117  1  0.25115342  0.82842262  0.90048708  1  0.046336  0  0.101245  0.102897  0  1.011058  0
H  H118  1  0.15829887  0.76774836  0.47014575  1  0.070459  0  0.104858  0.10705  0  1.009198  0
H  H119  1  0.84170464  0.26774982  0.02985715  1  0.070377  0  0.10486  0.107055  0  1.009237  0
H  H120  1  0.84171385  0.23224958  0.52985724  1  0.070533  0  0.104865  0.107014  0  1.009172  0
H  H121  1  0.15828894  0.73224891  0.97014419  1  0.070498  0  0.104855  0.107033  0  1.009174  0
H  H122  1  0.49492810  0.93069646  0.53648824  1  0.0949  0  0.106741  0.106842  0  1.021025  0
H  H123  1  0.50507562  0.43069427  0.96351182  1  0.094921  0  0.106715  0.106829  0  1.020978  0
H  H124  1  0.50508644  0.06930384  0.46351495  1  0.095043  0  0.1067  0.106843  0  1.020968  0
H  H125  1  0.49491968  0.56930289  0.03648721  1  0.094983  0  0.10673  0.106835  0  1.020969  0
H  H126  1  0.59127353  0.83396186  0.46837237  1  0.081865  0  0.109305  0.126178  0  0.98879  0
H  H127  1  0.40873055  0.33396480  0.03162898  1  0.081919  0  0.109317  0.126191  0  0.988854  0
H  H128  1  0.40874108  0.16603452  0.53163250  1  0.082104  0  0.109377  0.126286  0  0.98872  0
H  H129  1  0.59126107  0.66603471  0.96836881  1  0.082038  0  0.109357  0.126282  0  0.988831  0
H  H130  1  0.25303278  0.33774969  0.27377616  1  0.439597  0  0.280754  0.247813  0  0.970545  0
H  H131  1  0.74696846  0.83775324  0.22622279  1  0.439648  0  0.280719  0.247886  0  0.97046  0
H  H132  1  0.74697070  0.66225061  0.72622290  1  0.439621  0  0.280728  0.247829  0  0.97046  0
H  H133  1  0.25302958  0.16224471  0.77377652  1  0.439635  0  0.280717  0.247821  0  0.970611  0
H  H134  1  0.45742331  0.45105970  0.22063898  1  0.463906  0  0.287041  0.248216  0  0.983246  0
H  H135  1  0.54257570  0.95106098  0.27936152  1  0.463902  0  0.287035  0.248204  0  0.983229  0
H  H136  1  0.54257389  0.54894296  0.77936234  1  0.46393  0  0.287005  0.248132  0  0.983264  0
H  H137  1  0.45742144  0.04893932  0.72063812  1  0.463858  0  0.287013  0.248173  0  0.983309  0
H  H138  1  0.39611229  0.55683747  0.41244136  1  0.396201  0  0.295758  0.229762  0  0.958936  0
H  H139  1  0.60388841  0.05683523  0.08756020  1  0.396171  0  0.295732  0.2297  0  0.959005  0
H  H140  1  0.60389678  0.44316440  0.58756124  1  0.396295  0  0.295682  0.229671  0  0.959046  0
H  H141  1  0.39610424  0.94316271  0.91244063  1  0.396175  0  0.295704  0.229758  0  0.958988  0
H  H142  1  0.04675656  0.32242525  0.04144864  1  0.547244  0  0.272398  0.353948  0  0.967974  0
H  H143  1  0.95324022  0.82241868  0.45855066  1  0.547212  0  0.272375  0.353909  0  0.968031  0
H  H144  1  0.95323874  0.67757898  0.95855038  1  0.547253  0  0.272399  0.353982  0  0.967924  0
H  H145  1  0.04675318  0.17757299  0.54144607  1  0.547187  0  0.27239  0.353924  0  0.968002  0
C  C146  1  0.73831602  0.13182260  0.26684573  1  1.560305  0  0.201964  0.564686  0  4.220038  0
C  C147  1  0.26168517  0.63182233  0.23315303  1  1.560436  0  0.201862  0.564618  0  4.220275  0
C  C148  1  0.26168474  0.86817849  0.73315346  1  1.560419  0  0.201884  0.564602  0  4.220324  0
C  C149  1  0.73831743  0.36818032  0.76684678  1  1.560463  0  0.201969  0.564803  0  4.22021  0
C  C150  1  0.84429295  0.20594255  0.28107338  1  -0.02083  0  -0.023893  -0.050811  0  3.991458  0
C  C151  1  0.15570700  0.70594103  0.21892489  1  -0.020688  0  -0.023886  -0.050754  0  3.991391  0
C  C152  1  0.15570139  0.79406403  0.71892428  1  -0.020793  0  -0.023891  -0.05083  0  3.991426  0
C  C153  1  0.84429741  0.29406084  0.78107469  1  -0.02063  0  -0.023972  -0.050927  0  3.991522  0
C  C154  1  0.88932904  0.25099033  0.23685507  1  -0.075278  0  -0.088945  -0.0913  0  3.989329  0
C  C155  1  0.11066798  0.75099147  0.26314293  1  -0.075601  0  -0.08902  -0.091377  0  3.989296  0
C  C156  1  0.11066527  0.74901467  0.76314175  1  -0.075476  0  -0.089023  -0.091318  0  3.989306  0
C  C157  1  0.88933463  0.24900726  0.73685730  1  -0.075664  0  -0.08896  -0.091303  0  3.989423  0
C  C158  1  0.98879207  0.31846007  0.25001215  1  0.002209  0  -0.094656  -0.133715  0  3.968173  0
C  C159  1  0.01120455  0.81846072  0.24998252  1  0.002551  0  -0.094746  -0.133952  0  3.968354  0
C  C160  1  0.01120408  0.68154337  0.74998529  1  0.002448  0  -0.0947  -0.133876  0  3.968319  0
C  C161  1  0.98879067  0.18153723  0.75001440  1  0.00235  0  -0.094727  -0.133881  0  3.968349  0
C  C162  1  0.04436082  0.34257728  0.30771416  1  -0.080643  0  -0.017621  0.086998  0  3.981994  0
C  C163  1  0.95563761  0.84258000  0.19228282  1  -0.080689  0  -0.017519  0.087213  0  3.98225  0
C  C164  1  0.95563628  0.65742851  0.69228422  1  -0.080805  0  -0.0176  0.087185  0  3.9819  0
C  C165  1  0.04435862  0.15741794  0.80771672  1  -0.080701  0  -0.017562  0.08711  0  3.982096  0
C  C166  1  0.00008846  0.29677689  0.35182520  1  -0.029504  0  -0.095675  -0.142753  0  3.987297  0
C  C167  1  0.99991564  0.79677774  0.14817277  1  -0.02971  0  -0.095763  -0.142778  0  3.987327  0
C  C168  1  0.99990862  0.70322969  0.64817275  1  -0.029973  0  -0.095739  -0.14282  0  3.987275  0
C  C169  1  0.00008600  0.20321785  0.85182568  1  -0.029785  0  -0.095659  -0.142669  0  3.987088  0
C  C170  1  0.90051043  0.22881732  0.33877292  1  -0.097285  0  -0.084511  -0.083304  0  3.963184  0
C  C171  1  0.09949575  0.72881579  0.16122437  1  -0.097157  0  -0.084401  -0.083263  0  3.963289  0
C  C172  1  0.09948476  0.77119162  0.66122315  1  -0.096931  0  -0.084347  -0.083155  0  3.963441  0
C  C173  1  0.90050684  0.27118529  0.83877502  1  -0.097051  0  -0.084424  -0.083204  0  3.963146  0
C  C174  1  0.15042901  0.41725599  0.32037342  1  0.27175  0  -0.069235  -0.078793  0  3.923077  0
C  C175  1  0.84957080  0.91725668  0.17962043  1  0.271802  0  -0.069217  -0.078747  0  3.923028  0
C  C176  1  0.84957164  0.58274509  0.67962283  1  0.271846  0  -0.069228  -0.078824  0  3.922935  0
C  C177  1  0.15043084  0.08273970  0.82037802  1  0.271846  0  -0.069161  -0.078625  0  3.923006  0
C  C178  1  0.31400503  0.28802686  0.35825879  1  0.275944  0  -0.073016  -0.053469  0  3.902656  0
C  C179  1  0.68599007  0.78802797  0.14174029  1  0.275666  0  -0.072988  -0.053473  0  3.902775  0
C  C180  1  0.68599392  0.71197266  0.64174062  1  0.275914  0  -0.072978  -0.053482  0  3.902761  0
C  C181  1  0.31400428  0.21196919  0.85825737  1  0.27603  0  -0.073017  -0.053516  0  3.902797  0
C  C182  1  0.44643536  0.26288307  0.35967540  1  0.271581  0  -0.071486  -0.093936  0  3.881476  0
C  C183  1  0.55356173  0.76288385  0.14032555  1  0.27171  0  -0.071456  -0.093899  0  3.881503  0
C  C184  1  0.55356273  0.73711566  0.64032518  1  0.271493  0  -0.071466  -0.093879  0  3.881403  0
C  C185  1  0.44643448  0.23711567  0.85967357  1  0.271389  0  -0.071481  -0.093991  0  3.88146  0
C  C186  1  0.62806738  0.34843865  0.34164541  1  0.255852  0  -0.071796  -0.094609  0  3.877267  0
C  C187  1  0.37193026  0.84844325  0.15835526  1  0.256069  0  -0.071775  -0.094593  0  3.877292  0
C  C188  1  0.37193254  0.65155851  0.65835536  1  0.255907  0  -0.07177  -0.094524  0  3.877146  0
C  C189  1  0.62806505  0.15155862  0.84164377  1  0.255677  0  -0.071713  -0.094453  0  3.87711  0
C  C190  1  0.58828727  0.36211104  0.27616822  1  0.24466  0  -0.077618  -0.063192  0  3.887271  0
C  C191  1  0.41171118  0.86211494  0.22383172  1  0.244658  0  -0.077631  -0.06324  0  3.887431  0
C  C192  1  0.41171267  0.63788769  0.72383340  1  0.244633  0  -0.077684  -0.063345  0  3.887296  0
C  C193  1  0.58828137  0.13788771  0.77616659  1  0.244459  0  -0.077664  -0.063301  0  3.887459  0
C  C194  1  0.59305335  0.55532225  0.25915101  1  0.284068  0  -0.072627  -0.085592  0  3.913178  0
C  C195  1  0.40694461  0.05532670  0.24085026  1  0.284086  0  -0.072546  -0.085607  0  3.913005  0
C  C196  1  0.40694304  0.44468040  0.74085274  1  0.284399  0  -0.072536  -0.085525  0  3.912969  0
C  C197  1  0.59305608  0.94467831  0.75914725  1  0.284326  0  -0.072577  -0.085485  0  3.913003  0
C  C198  1  0.68344509  0.54439947  0.22244497  1  -0.061917  0  -0.017351  0.086541  0  3.974729  0
C  C199  1  0.31655383  0.04440199  0.27755639  1  -0.061852  0  -0.017381  0.08658  0  3.974645  0
C  C200  1  0.31654666  0.45560476  0.77755618  1  -0.061843  0  -0.017346  0.086553  0  3.974714  0
C  C201  1  0.68344784  0.95560615  0.72244290  1  -0.062007  0  -0.017366  0.08652  0  3.97485  0
C  C202  1  0.64665490  0.50897290  0.16508639  1  -0.062714  0  -0.094475  -0.141504  0  3.956237  0
C  C203  1  0.35334417  0.00897471  0.33491495  1  -0.063368  0  -0.094443  -0.141489  0  3.956229  0
C  C204  1  0.35333504  0.49102976  0.83491499  1  -0.063406  0  -0.094429  -0.141587  0  3.956266  0
C  C205  1  0.64666023  0.99103109  0.66508421  1  -0.062948  0  -0.094404  -0.141474  0  3.95618  0
C  C206  1  0.73219113  0.49712017  0.13233639  1  -0.040896  0  -0.087086  -0.092342  0  3.973678  0
C  C207  1  0.26780770  0.99712269  0.36766413  1  -0.040255  0  -0.087017  -0.092287  0  3.973634  0
C  C208  1  0.26780059  0.50287935  0.86766392  1  -0.039926  0  -0.086941  -0.09204  0  3.973443  0
C  C209  1  0.73219854  0.00288075  0.63233565  1  -0.040627  0  -0.087021  -0.09218  0  3.973449  0
C  C210  1  0.94791262  0.50004936  0.12132102  1  1.574172  0  0.213374  0.584522  0  4.179249  0
C  C211  1  0.05208369  0.00004529  0.37867834  1  1.574468  0  0.213407  0.584608  0  4.179514  0
C  C212  1  0.05207635  0.49995251  0.87867858  1  1.574751  0  0.213559  0.584783  0  4.179498  0
C  C213  1  0.94792286  0.99995313  0.62132267  1  1.574538  0  0.213546  0.584611  0  4.17957  0
C  C214  1  0.85614888  0.51785466  0.15652229  1  0.04941  0  -0.017955  -0.036051  0  3.963611  0
C  C215  1  0.14384922  0.01785643  0.34347854  1  0.049515  0  -0.017902  -0.035978  0  3.963678  0
C  C216  1  0.14384376  0.48213857  0.84347854  1  0.048695  0  -0.018172  -0.036402  0  3.963879  0
C  C217  1  0.85615522  0.98214308  0.65652189  1  0.049092  0  -0.018072  -0.036175  0  3.963648  0
C  C218  1  0.89228666  0.55412487  0.21333076  1  -0.10969  0  -0.085117  -0.087495  0  3.998951  0
C  C219  1  0.10771221  0.05412500  0.28667019  1  -0.110075  0  -0.085213  -0.087614  0  3.999012  0
C  C220  1  0.10770323  0.44587307  0.78666936  1  -0.109596  0  -0.085159  -0.087471  0  3.999083  0
C  C221  1  0.89229140  0.94587608  0.71333224  1  -0.10964  0  -0.085169  -0.087522  0  3.999101  0
C  C222  1  0.80650690  0.56831389  0.24574554  1  -0.050582  0  -0.096037  -0.141892  0  3.984898  0
C  C223  1  0.19349282  0.06831519  0.25425551  1  -0.050592  0  -0.096016  -0.141853  0  3.984788  0
C  C224  1  0.19348757  0.43168484  0.75425548  1  -0.050754  0  -0.096098  -0.141933  0  3.984722  0
C  C225  1  0.80650797  0.93168825  0.74574453  1  -0.050621  0  -0.096011  -0.141882  0  3.984769  0
C  C226  1  0.55608759  0.39626968  0.42758226  1  0.298257  0  -0.07183  -0.098145  0  3.925136  0
C  C227  1  0.44390897  0.89627061  0.07241918  1  0.298313  0  -0.071833  -0.09814  0  3.925203  0
C  C228  1  0.44391229  0.60372669  0.57241767  1  0.297754  0  -0.071855  -0.098262  0  3.925122  0
C  C229  1  0.55608730  0.10372812  0.92758121  1  0.298034  0  -0.071927  -0.098515  0  3.925314  0
C  C230  1  0.57542399  0.51501078  0.43017826  1  0.301341  0  -0.069251  -0.055526  0  3.935449  0
C  C231  1  0.42457595  0.01501066  0.06982276  1  0.301008  0  -0.069295  -0.055706  0  3.935188  0
C  C232  1  0.42458321  0.48498481  0.56982288  1  0.300907  0  -0.069295  -0.055697  0  3.935371  0
C  C233  1  0.57541756  0.98498650  0.93017691  1  0.300692  0  -0.06925  -0.055519  0  3.935258  0
C  C234  1  0.48158052  0.68401009  0.38833884  1  0.232057  0  -0.071089  -0.091446  0  3.882315  0
C  C235  1  0.51842425  0.18401214  0.11166412  1  0.232663  0  -0.071151  -0.091454  0  3.882271  0
C  C236  1  0.51843230  0.31598472  0.61166667  1  0.232071  0  -0.07116  -0.091465  0  3.882588  0
C  C237  1  0.48156833  0.81598345  0.88833503  1  0.231899  0  -0.071176  -0.091362  0  3.882559  0
C  C238  1  0.42898540  0.74381911  0.43093811  1  -0.083387  0  -0.011099  0.094424  0  3.974745  0
C  C239  1  0.57101816  0.24382163  0.06906352  1  -0.0837  0  -0.011102  0.094411  0  3.974901  0
C  C240  1  0.57102737  0.25617805  0.56906615  1  -0.083508  0  -0.011057  0.094254  0  3.974963  0
C  C241  1  0.42897257  0.75617632  0.93093459  1  -0.083593  0  -0.011049  0.09417  0  3.974998  0
C  C242  1  0.30641060  0.72622141  0.43148749  1  -0.078753  0  -0.098735  -0.16377  0  4.00843  0
C  C243  1  0.69359306  0.22622273  0.06851497  1  -0.078381  0  -0.098678  -0.163724  0  4.008431  0
C  C244  1  0.69360494  0.27377732  0.56851790  1  -0.078824  0  -0.098683  -0.163563  0  4.008121  0
C  C245  1  0.30639676  0.77377443  0.93148346  1  -0.078557  0  -0.098641  -0.163473  0  4.008159  0
C  C246  1  0.25344344  0.77995545  0.46972218  1  0.012896  0  -0.082966  -0.084859  0  4.003938  0
C  C247  1  0.74656366  0.27995567  0.03028112  1  0.013261  0  -0.082956  -0.084817  0  4.003946  0
C  C248  1  0.74657478  0.22004563  0.53028225  1  0.014759  0  -0.08301  -0.084853  0  4.003851  0
C  C249  1  0.25342987  0.72004228  0.96971896  1  0.013568  0  -0.083018  -0.084936  0  4.003921  0
C  C250  1  0.32113638  0.85376866  0.50809683  1  -0.063753  0  -0.015339  -0.036532  0  3.956941  0
C  C251  1  0.67886953  0.35376911  0.99190464  1  -0.063068  0  -0.015387  -0.036544  0  3.95689  0
C  C252  1  0.67887537  0.14623007  0.49190480  1  -0.064464  0  -0.015263  -0.036379  0  3.956609  0
C  C253  1  0.32112761  0.64622806  0.00809500  1  -0.063197  0  -0.015291  -0.03646  0  3.956736  0
C  C254  1  0.25852481  0.91341838  0.54681131  1  1.56801  0  0.207997  0.581132  0  4.170089  0
C  C255  1  0.74148264  0.41341299  0.95318913  1  1.567204  0  0.207964  0.581179  0  4.170223  0
C  C256  1  0.74149419  0.08659133  0.45318943  1  1.566701  0  0.208005  0.581182  0  4.169907  0
C  C257  1  0.25851452  0.58658495  0.04681093  1  1.567162  0  0.207928  0.581159  0  4.170106  0
C  C258  1  0.44292139  0.87216212  0.50730360  1  -0.014849  0  -0.079044  -0.08823  0  3.971278  0
C  C259  1  0.55708170  0.37216142  0.99269717  1  -0.015165  0  -0.079049  -0.088344  0  3.971204  0
C  C260  1  0.55708952  0.12783818  0.49269962  1  -0.015299  0  -0.079112  -0.088484  0  3.971409  0
C  C261  1  0.44291448  0.62783574  0.00730111  1  -0.015356  0  -0.07907  -0.088288  0  3.971259  0
C  C262  1  0.49684324  0.81749184  0.46920454  1  -0.030438  0  -0.087686  -0.139118  0  3.947055  0
C  C263  1  0.50316091  0.31749132  0.03079681  1  -0.030434  0  -0.087663  -0.139047  0  3.947161  0
C  C264  1  0.50317409  0.18250689  0.53080021  1  -0.030413  0  -0.087763  -0.139102  0  3.947329  0
C  C265  1  0.49683162  0.68250505  0.96920108  1  -0.030479  0  -0.087745  -0.139137  0  3.947269  0
N  N266  1  0.52280499  0.35833887  0.36764481  1  -1.049226  0  -0.348131  -0.116738  0  3.510019  0
N  N267  1  0.47719264  0.85833753  0.13235713  1  -1.049357  0  -0.348165  -0.116806  0  3.510124  0
N  N268  1  0.47719580  0.64165829  0.63235523  1  -1.049102  0  -0.348157  -0.116814  0  3.509962  0
N  N269  1  0.52280267  0.14165885  0.86764231  1  -1.048955  0  -0.348105  -0.116612  0  3.509802  0
N  N270  1  0.26700634  0.36986607  0.31464419  1  -1.089334  0  -0.481816  -0.308672  0  3.478481  0
N  N271  1  0.73299290  0.86986638  0.18535332  1  -1.089268  0  -0.481834  -0.3088  0  3.478544  0
N  N272  1  0.73299347  0.63013423  0.68535406  1  -1.089277  0  -0.481822  -0.308651  0  3.478453  0
N  N273  1  0.26700420  0.13013156  0.81464506  1  -1.089363  0  -0.481828  -0.308653  0  3.478582  0
N  N274  1  0.51813565  0.46011916  0.26017380  1  -1.093124  0  -0.489594  -0.313699  0  3.531689  0
N  N275  1  0.48186423  0.96011895  0.23982638  1  -1.093112  0  -0.489613  -0.313676  0  3.531654  0
N  N276  1  0.48186342  0.53988271  0.73982856  1  -1.093164  0  -0.489473  -0.313408  0  3.53142  0
N  N277  1  0.51813199  0.03988292  0.76017274  1  -1.093139  0  -0.489531  -0.31366  0  3.531704  0
N  N278  1  0.46797058  0.56796393  0.39392765  1  -1.057315  0  -0.479282  -0.299009  0  3.46258  0
N  N279  1  0.53203552  0.06796357  0.10607409  1  -1.056991  0  -0.479164  -0.298813  0  3.462301  0
N  N280  1  0.53203847  0.43203637  0.60607453  1  -1.057036  0  -0.479174  -0.298839  0  3.462462  0
N  N281  1  0.46795983  0.93203359  0.89392619  1  -1.056819  0  -0.479204  -0.299034  0  3.462501  0
Cl  Cl282  1  0.70361952  0.81654479  0.32029057  1  -0.69129  0  -0.309916  -0.544186  0  1.147518  0
Cl  Cl283  1  0.29637731  0.31654313  0.17970957  1  -0.691316  0  -0.309922  -0.544145  0  1.147497  0
Cl  Cl284  1  0.29638039  0.18345865  0.67971021  1  -0.691321  0  -0.309915  -0.544152  0  1.147486  0
Cl  Cl285  1  0.70361986  0.68345874  0.82029091  1  -0.691316  0  -0.309907  -0.544149  0  1.147508  0
O  O286  1  0.70902628  0.10121457  0.21318218  1  -1.193777  0  -0.344668  -0.569139  0  2.387334  0
O  O287  1  0.29097504  0.60121517  0.28681656  1  -1.193843  0  -0.344605  -0.569068  0  2.387385  0
O  O288  1  0.29097444  0.89878651  0.78681575  1  -1.193749  0  -0.344619  -0.569108  0  2.387449  0
O  O289  1  0.70903033  0.39878984  0.71318439  1  -1.193813  0  -0.344641  -0.569136  0  2.387356  0
O  O290  1  0.68444131  0.10444178  0.30438720  1  -1.177664  0  -0.317769  -0.544618  0  2.176768  0
O  O291  1  0.31555729  0.60443964  0.19561209  1  -1.17775  0  -0.317743  -0.544635  0  2.176896  0
O  O292  1  0.31556325  0.89555224  0.69561617  1  -1.177815  0  -0.317765  -0.544578  0  2.176979  0
O  O293  1  0.68444250  0.39555674  0.80438532  1  -1.177755  0  -0.317783  -0.54468  0  2.176975  0
O  O294  1  0.10503912  0.37622102  0.03751841  1  -1.185626  0  -0.599434  -0.856648  0  2.10182  0
O  O295  1  0.89496113  0.87621466  0.46248257  1  -1.185531  0  -0.599361  -0.856564  0  2.101908  0
O  O296  1  0.89495898  0.62378477  0.96248259  1  -1.185548  0  -0.599399  -0.856655  0  2.101818  0
O  O297  1  0.10504238  0.12378250  0.53751734  1  -1.185448  0  -0.599433  -0.856609  0  2.101834  0
O  O298  1  0.05869962  0.48287366  0.14967376  1  -1.172505  0  -0.319337  -0.562401  0  2.362671  0
O  O299  1  0.94129835  0.98287305  0.35032666  1  -1.17257  0  -0.3194  -0.562509  0  2.362766  0
O  O300  1  0.94129210  0.51712585  0.85032655  1  -1.172724  0  -0.319391  -0.562434  0  2.362698  0
O  O301  1  0.05870795  0.01713039  0.64967480  1  -1.172722  0  -0.319396  -0.562413  0  2.36263  0
O  O302  1  0.90768003  0.50204817  0.06720685  1  -1.163301  0  -0.30506  -0.538563  0  2.333715  0
O  O303  1  0.09231627  0.00203865  0.43279251  1  -1.16331  0  -0.305071  -0.538608  0  2.333926  0
O  O304  1  0.09231073  0.49796233  0.93279210  1  -1.163484  0  -0.305062  -0.53866  0  2.334022  0
O  O305  1  0.90769003  0.99795537  0.56720896  1  -1.163225  0  -0.305119  -0.53861  0  2.334095  0
O  O306  1  0.31809638  0.98589355  0.57899506  1  -1.152966  0  -0.313535  -0.527568  0  2.258093  0
O  O307  1  0.68191177  0.48588982  0.92100803  1  -1.152751  0  -0.313683  -0.527724  0  2.257902  0
O  O308  1  0.68191984  0.01411696  0.42100454  1  -1.152978  0  -0.313761  -0.527782  0  2.257545  0
O  O309  1  0.31808996  0.51410734  0.07899294  1  -1.152782  0  -0.313615  -0.527667  0  2.257871  0
O  O310  1  0.14855157  0.88969389  0.54514439  1  -1.191723  0  -0.316943  -0.571637  0  2.279284  0
O  O311  1  0.85145601  0.38968420  0.95485688  1  -1.191864  0  -0.316781  -0.571558  0  2.279601  0
O  O312  1  0.85146656  0.11031661  0.45485751  1  -1.191317  0  -0.316729  -0.571533  0  2.279734  0
O  O313  1  0.14854217  0.61031296  0.04514622  1  -1.191867  0  -0.316785  -0.571557  0  2.279656  0
