# generated using pymatgen
data_CuH12C16NO4
_symmetry_space_group_name_H-M   'P 1'
_cell_length_a   9.55494329
_cell_length_b   10.56833349
_cell_length_c   18.95969434
_cell_angle_alpha   89.99949948
_cell_angle_beta   89.99986530
_cell_angle_gamma   114.31967601
_symmetry_Int_Tables_number   1
_chemical_formula_structural   CuH12C16NO4
_chemical_formula_sum   'Cu4 H48 C64 N4 O16'
_cell_volume   1744.65343264
_cell_formula_units_Z   4
loop_
 _symmetry_equiv_pos_site_id
 _symmetry_equiv_pos_as_xyz
  1  'x, y, z'
loop_
 _atom_site_type_symbol
 _atom_site_label
 _atom_site_symmetry_multiplicity
 _atom_site_fract_x
 _atom_site_fract_y
 _atom_site_fract_z
 _atom_site_occupancy
 _atom_site_pbe_bader_charge
 _atom_site_pbe_bader_spin_density
 _atom_site_pbe_cm5_charge
 _atom_site_pbe_ddec_charge
 _atom_site_pbe_ddec_spin_density
 _atom_site_pbe_ddec_sum_bond_order
 _atom_site_pbe_magmom
Cu  Cu0  1  0.14078953  0.02152127  0.49713657  1  1.0652  -0.543773  0.686585  0.754332  -0.702614  2.431483  -0.541
Cu  Cu1  1  0.35920778  0.47847899  0.99713864  1  1.065068  -0.543778  0.686553  0.754181  -0.702619  2.431629  -0.541
Cu  Cu2  1  0.85918839  0.97846157  0.50286334  1  1.065524  0.543813  0.686549  0.75436  0.702643  2.431421  0.541
Cu  Cu3  1  0.64081150  0.52154050  0.00286232  1  1.06559  0.543809  0.68655  0.754398  0.702639  2.431444  0.541
H  H4  1  0.26668296  0.20207199  0.28889061  1  0.058869  -0.000323  0.105805  0.111655  -0.000264  0.994653  0.0
H  H5  1  0.23330702  0.29792840  0.78888527  1  0.058685  -0.000323  0.105769  0.111608  -0.000263  0.994736  0.0
H  H6  1  0.73329430  0.79792118  0.71111668  1  0.05848  0.000323  0.105797  0.111703  0.000264  0.994649  0.0
H  H7  1  0.76672279  0.70207469  0.21111147  1  0.058274  0.000323  0.105796  0.11174  0.000264  0.994519  0.0
H  H8  1  0.27485909  0.25805937  0.16038101  1  0.102633  0.000226  0.10067  0.104964  0.000124  1.01608  0.0
H  H9  1  0.22515145  0.24193878  0.66037543  1  0.102787  0.000227  0.10062  0.104854  0.000124  1.015828  0.0
H  H10  1  0.72514277  0.74194442  0.83962680  1  0.102673  -0.000226  0.100717  0.105033  -0.000124  1.015991  0.0
H  H11  1  0.77488690  0.75806235  0.33962131  1  0.102638  -0.000225  0.100625  0.104897  -0.000124  1.016136  0.0
H  H12  1  0.03376501  0.18497131  0.09227950  1  0.058432  -4.4e-05  0.100459  0.097171  -4.4e-05  1.022147  0.0
H  H13  1  0.46626024  0.31501914  0.59228276  1  0.0586  -4.4e-05  0.100487  0.097195  -4.4e-05  1.022127  0.0
H  H14  1  0.96624566  0.81504291  0.90771988  1  0.057989  4.5e-05  0.100476  0.097186  4.4e-05  1.022188  0.0
H  H15  1  0.53378410  0.68497896  0.40771925  1  0.058432  4.5e-05  0.100411  0.097121  4.4e-05  1.022073  0.0
H  H16  1  0.78072046  0.06670030  0.15292271  1  0.033626  -0.000223  0.099133  0.097089  -0.000123  1.022246  0.0
H  H17  1  0.71929195  0.43329143  0.65293467  1  0.034047  -0.000223  0.099123  0.097081  -0.000123  1.022407  0.0
H  H18  1  0.21928219  0.93330762  0.84706875  1  0.033904  0.000223  0.09912  0.097066  0.000123  1.022328  0.0
H  H19  1  0.28075042  0.56672111  0.34706998  1  0.034084  0.000223  0.099129  0.09715  0.000122  1.02244  0.0
H  H20  1  0.77313754  0.01460632  0.28159739  1  0.089207  0.000257  0.10131  0.101733  0.000219  1.018154  0.0
H  H21  1  0.72685267  0.48538865  0.78160434  1  0.089209  0.000256  0.10132  0.101799  0.000219  1.018256  0.0
H  H22  1  0.22683729  0.98538371  0.71839250  1  0.089725  -0.000256  0.101345  0.101818  -0.000219  1.018233  0.0
H  H23  1  0.27317846  0.51462685  0.21839873  1  0.089302  -0.000256  0.101329  0.101757  -0.000219  1.018119  0.0
H  H24  1  0.90012297  0.36815936  0.58993159  1  0.091407  0.000296  0.101019  0.101705  0.000253  1.017616  0.0
H  H25  1  0.59987441  0.13183557  0.08994011  1  0.091416  0.000296  0.100967  0.101584  0.000253  1.017615  0.0
H  H26  1  0.09985298  0.63182140  0.41005671  1  0.091691  -0.000296  0.100863  0.101393  -0.000253  1.017725  0.0
H  H27  1  0.40013133  0.86818169  0.91006507  1  0.091654  -0.000296  0.100985  0.101653  -0.000253  1.017562  0.0
H  H28  1  0.97527179  0.61576440  0.62659029  1  0.055759  -0.000223  0.098161  0.095416  -0.00012  1.007349  0.0
H  H29  1  0.52471531  0.88422667  0.12659874  1  0.05591  -0.000223  0.098133  0.095395  -0.000119  1.007113  0.0
H  H30  1  0.02469646  0.38421316  0.37340434  1  0.055981  0.000223  0.098139  0.095334  0.00012  1.007342  0.0
H  H31  1  0.47529161  0.11578853  0.87340381  1  0.056029  0.000223  0.098141  0.095382  0.00012  1.007326  0.0
H  H32  1  0.24187610  0.78805112  0.60972033  1  0.100236  -2.4e-05  0.09526  0.090357  -3e-05  1.037937  0.0
H  H33  1  0.25811230  0.71194382  0.10972246  1  0.100169  -2.4e-05  0.095297  0.090364  -3e-05  1.037883  0.0
H  H34  1  0.75809590  0.21192545  0.39028696  1  0.100006  2.5e-05  0.095219  0.0904  3e-05  1.037797  0.0
H  H35  1  0.74189626  0.28807038  0.89027850  1  0.099974  2.5e-05  0.095304  0.090423  3e-05  1.0379  0.0
H  H36  1  0.43891472  0.71496619  0.55801596  1  0.073799  0.000198  0.095984  0.094981  0.000103  1.024666  0.0
H  H37  1  0.06108560  0.78503617  0.05800902  1  0.073799  0.000198  0.095997  0.095057  0.000103  1.024693  0.0
H  H38  1  0.56106610  0.28502082  0.44199713  1  0.073529  -0.000198  0.095994  0.094975  -0.000103  1.024669  0.0
H  H39  1  0.93892580  0.21497496  0.94198825  1  0.073691  -0.000198  0.096005  0.094997  -0.000103  1.02467  0.0
H  H40  1  0.36270836  0.46827171  0.52291636  1  0.09875  -0.000311  0.102684  0.104014  -0.000275  1.013905  0.0
H  H41  1  0.13730221  0.03173447  0.02291160  1  0.099111  -0.000311  0.102667  0.103985  -0.000275  1.013932  0.0
H  H42  1  0.63728423  0.53172060  0.47709040  1  0.098615  0.000312  0.102657  0.104016  0.000275  1.01407  0.0
H  H43  1  0.86270589  0.96827869  0.97708672  1  0.098737  0.000312  0.102645  0.103966  0.000275  1.014034  0.0
H  H44  1  0.35639142  0.97999810  0.39135077  1  0.137699  5.5e-05  0.131517  0.112712  4.1e-05  0.965392  0.0
H  H45  1  0.14359440  0.51997751  0.89134741  1  0.137896  5.5e-05  0.131518  0.112731  4.1e-05  0.965575  0.0
H  H46  1  0.64358546  0.01996821  0.60865125  1  0.13764  -5.5e-05  0.1315  0.112707  -4e-05  0.965409  0.0
H  H47  1  0.85642015  0.48003366  0.10864827  1  0.137682  -5.4e-05  0.131561  0.112751  -4e-05  0.965472  0.0
H  H48  1  0.40510655  0.07116022  0.60498876  1  0.131336  2e-05  0.124479  0.099024  2.3e-05  1.012379  0.0
H  H49  1  0.09489543  0.42883692  0.10498899  1  0.131297  2e-05  0.124482  0.099007  2.3e-05  1.012338  0.0
H  H50  1  0.59487314  0.92881955  0.39500956  1  0.131434  -1.9e-05  0.124436  0.098884  -2.2e-05  1.012506  0.0
H  H51  1  0.90512471  0.57117742  0.89500722  1  0.131393  -2e-05  0.124427  0.098858  -2.2e-05  1.012452  0.0
C  C52  1  0.01501714  0.06658820  0.36877582  1  1.518303  0.000472  0.214456  0.574275  0.000333  4.163511  0.001
C  C53  1  0.48496409  0.43341454  0.86877637  1  1.518277  0.000472  0.21459  0.574281  0.000333  4.163341  0.001
C  C54  1  0.98494638  0.93339757  0.63122040  1  1.518104  -0.000468  0.214503  0.57419  -0.000331  4.163589  -0.001
C  C55  1  0.51506342  0.56659988  0.13122248  1  1.517984  -0.000469  0.214412  0.574064  -0.000331  4.163818  -0.001
C  C56  1  0.01946952  0.10412445  0.29259464  1  -0.065466  -0.00055  -0.020295  -0.037293  -0.000377  3.977321  0.0
C  C57  1  0.48053764  0.39588639  0.79259433  1  -0.066053  -0.000547  -0.020323  -0.037353  -0.000375  3.977408  0.0
C  C58  1  0.98050971  0.89587080  0.70740843  1  -0.064988  0.000548  -0.020298  -0.03751  0.000376  3.977519  0.0
C  C59  1  0.51948605  0.60412179  0.20740768  1  -0.065071  0.000547  -0.020309  -0.03752  0.000375  3.977426  0.0
C  C60  1  0.16114233  0.17323907  0.25856852  1  -0.030017  0.000915  -0.082987  -0.092118  0.000564  3.961689  0.001
C  C61  1  0.33885427  0.32676409  0.75856767  1  -0.029759  0.000915  -0.082929  -0.092104  0.000565  3.961457  0.001
C  C62  1  0.83883842  0.82675723  0.74143613  1  -0.029598  -0.000916  -0.083065  -0.092311  -0.000565  3.961955  -0.001
C  C63  1  0.66117554  0.67323900  0.24143382  1  -0.029904  -0.000917  -0.083099  -0.092446  -0.000566  3.9616  -0.001
C  C64  1  0.16536468  0.20393254  0.18697077  1  -0.001587  0.000645  -0.091331  -0.080724  0.000471  4.003877  0.001
C  C65  1  0.33464929  0.29607129  0.68697007  1  -0.001383  0.000645  -0.091217  -0.080521  0.000471  4.003556  0.001
C  C66  1  0.83463342  0.79607223  0.81303388  1  -0.002673  -0.000645  -0.091253  -0.080574  -0.000472  4.003714  -0.001
C  C67  1  0.66538847  0.70393086  0.31303089  1  -0.002159  -0.000645  -0.091218  -0.080539  -0.000472  4.004016  -0.001
C  C68  1  0.02872758  0.16420336  0.14873933  1  -0.09499  -0.000105  -0.088386  -0.079841  -8e-05  4.007923  0.0
C  C69  1  0.47128595  0.33579197  0.64874248  1  -0.095012  -0.000105  -0.088441  -0.079848  -8e-05  4.007903  0.0
C  C70  1  0.97127658  0.83580562  0.85126269  1  -0.093688  0.000103  -0.088478  -0.079873  7.9e-05  4.008077  0.0
C  C71  1  0.52874833  0.66420705  0.35125901  1  -0.094648  0.000104  -0.088253  -0.079515  7.9e-05  4.007742  0.0
C  C72  1  0.88734059  0.09722959  0.18266461  1  0.032838  -0.000758  -0.095158  -0.093367  -0.000548  4.020981  -0.001
C  C73  1  0.61267600  0.40277190  0.68267316  1  0.032182  -0.000758  -0.095126  -0.093368  -0.000548  4.02097  -0.001
C  C74  1  0.11265331  0.90277513  0.81733002  1  0.03263  0.000757  -0.095154  -0.093413  0.000547  4.021223  0.001
C  C75  1  0.38736077  0.59723747  0.31733044  1  0.032729  0.000757  -0.095302  -0.093779  0.000547  4.021309  0.001
C  C76  1  0.88243476  0.06801199  0.25458410  1  -0.0436  -0.001079  -0.085588  -0.092638  -0.00069  3.976099  -0.001
C  C77  1  0.61756247  0.43198674  0.75458986  1  -0.043244  -0.001078  -0.085643  -0.092711  -0.00069  3.976452  -0.001
C  C78  1  0.11755579  0.93198753  0.74541159  1  -0.044507  0.00108  -0.085599  -0.092553  0.000691  3.976195  0.001
C  C79  1  0.38246437  0.56802148  0.24541374  1  -0.043748  0.001078  -0.085473  -0.092246  0.00069  3.976168  0.001
C  C80  1  0.08260908  0.25613642  0.53433495  1  1.495061  0.000151  0.211857  0.569004  0.000175  4.167675  0.0
C  C81  1  0.41739061  0.24386423  0.03433568  1  1.495009  0.000151  0.211799  0.568915  0.000175  4.167952  0.0
C  C82  1  0.91738180  0.74384968  0.46566443  1  1.494421  -0.000145  0.211751  0.56889  -0.000171  4.167843  0.0
C  C83  1  0.58261138  0.75615402  0.96566739  1  1.494303  -0.000146  0.211805  0.568926  -0.000171  4.167736  0.0
C  C84  1  0.12739209  0.40407075  0.55505483  1  -0.065496  -0.000182  -0.019048  -0.035542  -0.000123  3.976434  0.0
C  C85  1  0.37260494  0.09593356  0.05505792  1  -0.06497  -0.000179  -0.019042  -0.035541  -0.000121  3.976394  0.0
C  C86  1  0.87259478  0.59592046  0.44493980  1  -0.065847  0.000178  -0.019027  -0.03552  0.00012  3.976703  0.0
C  C87  1  0.62739777  0.90408160  0.94494463  1  -0.065802  0.00018  -0.019131  -0.035809  0.000121  3.976832  0.0
C  C88  1  0.01789298  0.44531512  0.58419715  1  0.069205  -0.001005  -0.083867  -0.09253  -0.00066  3.973188  -0.001
C  C89  1  0.48210266  0.05467927  0.08420346  1  0.068788  -0.001006  -0.083791  -0.092401  -0.000661  3.972966  -0.001
C  C90  1  0.98208330  0.55466873  0.41579432  1  0.069375  0.001004  -0.083656  -0.092124  0.00066  3.972866  0.001
C  C91  1  0.51790052  0.94533693  0.91579855  1  0.06927  0.001005  -0.083758  -0.09232  0.00066  3.972793  0.001
C  C92  1  0.06021645  0.58295635  0.60425249  1  -0.150504  -0.000725  -0.09252  -0.085564  -0.000514  4.010787  -0.001
C  C93  1  0.43977262  0.91703768  0.10425816  1  -0.150477  -0.000724  -0.09252  -0.085509  -0.000513  4.010607  -0.001
C  C94  1  0.93975542  0.41702229  0.39574214  1  -0.150863  0.000724  -0.092535  -0.085425  0.000513  4.01045  0.001
C  C95  1  0.56023581  0.08297858  0.89574280  1  -0.151094  0.000724  -0.092479  -0.085398  0.000513  4.010612  0.001
C  C96  1  0.21133920  0.68036000  0.59480423  1  -0.040008  -7.4e-05  -0.086368  -0.058418  -5e-05  3.982323  0.0
C  C97  1  0.28865093  0.81963631  0.09480580  1  -0.040076  -7.4e-05  -0.086384  -0.058427  -5e-05  3.982064  0.0
C  C98  1  0.78863544  0.31962487  0.40519779  1  -0.040529  7.4e-05  -0.08643  -0.05869  5e-05  3.982181  0.0
C  C99  1  0.71135658  0.18037787  0.90519463  1  -0.040506  7.4e-05  -0.086441  -0.05866  4.9e-05  3.982126  0.0
C  C100  1  0.32062526  0.63976371  0.56538765  1  0.035026  0.000638  -0.097558  -0.096571  0.000479  4.014253  0.001
C  C101  1  0.17936877  0.86023636  0.06538441  1  0.034925  0.000638  -0.097562  -0.096685  0.000479  4.014365  0.001
C  C102  1  0.67935405  0.36022225  0.43461806  1  0.036409  -0.000639  -0.097491  -0.096388  -0.000479  4.014303  -0.001
C  C103  1  0.82063933  0.13977680  0.93461338  1  0.036309  -0.000639  -0.097558  -0.096439  -0.000479  4.014221  -0.001
C  C104  1  0.27898775  0.50190145  0.54571205  1  -0.130882  0.001042  -0.084023  -0.089977  0.000637  3.969448  0.001
C  C105  1  0.22101194  0.99809703  0.04571127  1  -0.13124  0.001042  -0.084012  -0.0899  0.000637  3.969596  0.001
C  C106  1  0.72099411  0.49808557  0.45428996  1  -0.131273  -0.001043  -0.084031  -0.090103  -0.000638  3.96982  -0.001
C  C107  1  0.77899406  0.00191610  0.95428917  1  -0.13123  -0.001043  -0.084005  -0.089965  -0.000638  3.969849  -0.001
C  C108  1  0.42156881  0.98880407  0.43976182  1  0.469342  0.001217  0.065203  0.05913  0.000822  3.899261  0.001
C  C109  1  0.07842337  0.51118404  0.93975490  1  0.46927  0.001219  0.065191  0.059122  0.000822  3.898932  0.001
C  C110  1  0.57840813  0.01116947  0.56023650  1  0.469929  -0.001217  0.065262  0.059201  -0.000821  3.899505  -0.001
C  C111  1  0.92159270  0.48882818  0.06023973  1  0.469273  -0.001217  0.065284  0.059318  -0.000822  3.898715  -0.001
C  C112  1  0.44878233  0.03984743  0.55810567  1  0.527262  0.001183  0.061349  0.049715  0.000796  3.921014  0.001
C  C113  1  0.05121985  0.46014965  0.05810159  1  0.528115  0.001182  0.061302  0.049737  0.000795  3.921364  0.001
C  C114  1  0.55119375  0.96013126  0.44189160  1  0.527344  -0.001181  0.061368  0.049949  -0.000795  3.920756  -0.001
C  C115  1  0.94880147  0.53986263  0.94189252  1  0.527349  -0.001181  0.061468  0.050152  -0.000795  3.921025  -0.001
N  N116  1  0.37102825  0.02903877  0.49789064  1  -1.203927  0.000803  -0.31664  -0.194116  0.000202  3.503986  -0.001
N  N117  1  0.12896366  0.47094695  0.99789567  1  -1.204775  0.000803  -0.316622  -0.194221  0.000202  3.504092  -0.001
N  N118  1  0.62894902  0.97093787  0.50210716  1  -1.204928  -0.000804  -0.31658  -0.194113  -0.000202  3.503916  0.001
N  N119  1  0.87105135  0.52906526  0.00210002  1  -1.204413  -0.000803  -0.316691  -0.194374  -0.000202  3.503693  0.001
O  O120  1  0.13946204  0.07182969  0.39596393  1  -1.100546  -0.091935  -0.312576  -0.513669  -0.06  2.353748  -0.083
O  O121  1  0.36052775  0.42818085  0.89596361  1  -1.100803  -0.091898  -0.312611  -0.513563  -0.059977  2.353749  -0.083
O  O122  1  0.86049010  0.92814458  0.60403650  1  -1.100811  0.091932  -0.312417  -0.513349  0.059999  2.353645  0.083
O  O123  1  0.63950199  0.57184805  0.10403471  1  -1.100844  0.091901  -0.312419  -0.513307  0.059979  2.353883  0.083
O  O124  1  0.11340310  0.96897912  0.59930103  1  -1.121197  -0.08125  -0.31265  -0.532454  -0.053248  2.398532  -0.073
O  O125  1  0.38659795  0.53101825  0.09930441  1  -1.121062  -0.081286  -0.312568  -0.532348  -0.05327  2.398391  -0.073
O  O126  1  0.88656456  0.03101599  0.40069677  1  -1.12172  0.081257  -0.312452  -0.532286  0.053251  2.398132  0.073
O  O127  1  0.61342495  0.46898579  0.90069761  1  -1.121468  0.081283  -0.312545  -0.532375  0.053267  2.398106  0.073
O  O128  1  0.19152976  0.21852953  0.52203625  1  -1.100982  -0.089784  -0.314238  -0.519464  -0.058515  2.364446  -0.081
O  O129  1  0.30846708  0.28146927  0.02203746  1  -1.101049  -0.089783  -0.314219  -0.519439  -0.058514  2.364459  -0.081
O  O130  1  0.80845934  0.78145964  0.47796102  1  -1.100845  0.089763  -0.31423  -0.519573  0.0585  2.36453  0.081
O  O131  1  0.69153320  0.71854276  0.97796139  1  -1.100653  0.089769  -0.314231  -0.519551  0.058503  2.364478  0.081
O  O132  1  0.06064950  0.82166692  0.46884150  1  -1.093601  -0.085402  -0.312807  -0.523061  -0.055743  2.382407  -0.077
O  O133  1  0.43934391  0.67833608  0.96885021  1  -1.093557  -0.085402  -0.312863  -0.52304  -0.055742  2.382431  -0.077
O  O134  1  0.93934105  0.17831608  0.53115893  1  -1.094319  0.085374  -0.312907  -0.523252  0.055726  2.382449  0.077
O  O135  1  0.56065538  0.32168316  0.03115919  1  -1.094263  0.085377  -0.312884  -0.523205  0.055728  2.382498  0.077
