# generated using pymatgen
data_Hf3H8C20(N3O8)2
_symmetry_space_group_name_H-M   'P 1'
_cell_length_a   16.44567833
_cell_length_b   17.11710639
_cell_length_c   17.14095873
_cell_angle_alpha   71.30564834
_cell_angle_beta   89.97523177
_cell_angle_gamma   89.80679083
_symmetry_Int_Tables_number   1
_chemical_formula_structural   Hf3H8C20(N3O8)2
_chemical_formula_sum   'Hf6 H16 C40 N12 O32'
_cell_volume   4570.62478748
_cell_formula_units_Z   2
loop_
 _symmetry_equiv_pos_site_id
 _symmetry_equiv_pos_as_xyz
  1  'x, y, z'
loop_
 _atom_site_type_symbol
 _atom_site_label
 _atom_site_symmetry_multiplicity
 _atom_site_fract_x
 _atom_site_fract_y
 _atom_site_fract_z
 _atom_site_occupancy
 _atom_site_pbe_bader_charge
 _atom_site_pbe_bader_spin_density
 _atom_site_pbe_cm5_charge
 _atom_site_pbe_ddec_charge
 _atom_site_pbe_ddec_spin_density
 _atom_site_pbe_ddec_sum_bond_order
 _atom_site_pbe_magmom
Hf  Hf0  1  0.10261053  0.90013749  0.10578390  1  2.609454  0  1.459106  2.145024  0  3.32839  0
Hf  Hf1  1  0.88813841  0.90841386  0.09842268  1  2.615423  0  1.465585  2.164127  0  3.306911  0
Hf  Hf2  1  0.11212171  0.07676231  0.92997773  1  2.613036  0  1.458315  2.142464  0  3.339922  0
Hf  Hf3  1  0.89817411  0.08409240  0.92142717  1  2.607544  0  1.457821  2.145217  0  3.327603  0
Hf  Hf4  1  0.00062275  0.90269365  0.92550515  1  2.625421  0  1.495189  2.123669  0  3.340542  0
Hf  Hf5  1  0.99984714  0.08135738  0.10293724  1  2.622787  0  1.497628  2.123311  0  3.348744  0
H  H6  1  0.99910633  0.92064774  0.22415202  1  0.6178  0  0.33879  0.420603  0  0.851463  0
H  H7  1  0.82899104  0.92790331  0.94054991  1  0.61805  0  0.339591  0.421431  0  0.850584  0
H  H8  1  0.00228179  0.20352551  0.94054428  1  0.644851  0  0.34392  0.431353  0  0.830409  0
H  H9  1  0.17315205  0.91910843  0.94903245  1  0.599096  0  0.344615  0.432651  0  0.829254  0
H  H10  1  0.72500742  0.89315721  0.07572026  1  0.60725  0  0.315421  0.406034  0  0.883523  0
H  H11  1  0.75763031  0.00852527  0.00105094  1  0.64756  0  0.288441  0.408825  0  0.931033  0
H  H12  1  0.90213175  0.19308587  0.77022079  1  0.616612  0  0.309689  0.399626  0  0.89543  0
H  H13  1  0.01725742  0.19088685  0.81337947  1  0.634709  0  0.287625  0.405448  0  0.936176  0
H  H14  1  0.27033484  0.09432273  0.95400585  1  0.606619  0  0.311566  0.401376  0  0.892124  0
H  H15  1  0.24280367  0.97875907  0.02908577  1  0.636672  0  0.288301  0.406233  0  0.934782  0
H  H16  1  0.09630794  0.74860298  0.21354188  1  0.597896  0  0.310858  0.401589  0  0.892605  0
H  H17  1  0.98363932  0.79188671  0.21276457  1  0.628182  0  0.286745  0.405464  0  0.936561  0
H  H18  1  0.10269293  0.17443329  0.77038717  1  0.601225  0  0.332357  0.415589  0  0.86611  0
H  H19  1  0.26034648  0.93701352  0.12867855  1  0.638014  0  0.333678  0.417008  0  0.863454  0
H  H20  1  0.89494957  0.79508200  0.25843860  1  0.624708  0  0.337388  0.416504  0  0.857976  0
H  H21  1  0.74054928  0.10809741  0.95802143  1  0.634942  0  0.334608  0.419662  0  0.85853  0
C  C22  1  0.12745702  0.75980988  0.01835751  1  1.689313  0  0.254731  0.698032  0  4.170129  0
C  C23  1  0.86125485  0.99881394  0.23636797  1  1.671349  0  0.251292  0.693327  0  4.176317  0
C  C24  1  0.86628597  0.76718827  0.01015382  1  1.678933  0  0.253438  0.69738  0  4.167264  0
C  C25  1  0.13730965  0.00022904  0.23705761  1  1.691819  0  0.25321  0.697041  0  4.171937  0
C  C26  1  0.14145479  0.21153714  0.02334434  1  1.704629  0  0.25325  0.696186  0  4.173864  0
C  C27  1  0.87400517  0.99470211  0.78226217  1  1.68599  0  0.252074  0.695516  0  4.169301  0
C  C28  1  0.86322698  0.21593828  0.02159681  1  1.695505  0  0.253162  0.698432  0  4.170526  0
C  C29  1  0.13197776  0.98803573  0.78664935  1  1.685779  0  0.253034  0.696781  0  4.174957  0
C  C30  1  0.25953470  0.99731140  0.44551037  1  1.137535  0  0.271262  0.438607  0  4.085947  0
C  C31  1  0.37706617  0.99231291  0.51541200  1  1.167544  0  0.271698  0.441437  0  4.078684  0
C  C32  1  0.25645134  0.98971247  0.57962203  1  1.154936  0  0.270928  0.437682  0  4.085894  0
C  C33  1  0.74172952  0.99678838  0.44598530  1  1.22592  0  0.271414  0.439465  0  4.086637  0
C  C34  1  0.74522278  0.99295055  0.57898834  1  1.193244  0  0.27121  0.440726  0  4.081424  0
C  C35  1  0.62444489  0.99310002  0.51595420  1  1.111504  0  0.271837  0.441336  0  4.08051  0
C  C36  1  0.25975533  0.42064176  0.02445628  1  1.146562  0  0.271264  0.438245  0  4.084166  0
C  C37  1  0.25490889  0.55369258  0.02096020  1  1.201298  0  0.272152  0.441835  0  4.078449  0
C  C38  1  0.37633641  0.49067077  0.02321162  1  1.119696  0  0.271309  0.440056  0  4.083981  0
C  C39  1  0.74160414  0.42350078  0.02454744  1  1.25644  0  0.271583  0.440364  0  4.081043  0
C  C40  1  0.74371689  0.55766448  0.01745783  1  1.128794  0  0.271535  0.441689  0  4.07824  0
C  C41  1  0.62360111  0.49224631  0.02271824  1  1.151416  0  0.270148  0.439959  0  4.083784  0
C  C42  1  0.46302928  0.49271267  0.02347182  1  0.070689  0  0.005154  -0.070184  0  3.933478  0
C  C43  1  0.53686925  0.49312201  0.02343060  1  -0.163952  0  0.006615  -0.06695  0  3.931072  0
C  C44  1  0.53768118  0.99222372  0.51762660  1  0.055006  0  0.005939  -0.068937  0  3.92963  0
C  C45  1  0.46382841  0.99197324  0.51709302  1  -0.146082  0  0.006433  -0.068172  0  3.928971  0
C  C46  1  0.83013902  0.99355879  0.70955197  1  0.087306  0  -0.003851  -0.1167  0  3.876264  0
C  C47  1  0.79079573  0.99266046  0.64983737  1  -0.248097  0  0.002708  -0.05558  0  3.946931  0
C  C48  1  0.78317348  0.99893371  0.37226784  1  0.050669  0  0.001434  -0.059074  0  3.950307  0
C  C49  1  0.81842241  0.00002939  0.30960759  1  -0.23266  0  -0.003972  -0.113434  0  3.87729  0
C  C50  1  0.17402668  0.98735447  0.71270924  1  -0.019041  0  -0.003499  -0.115707  0  3.872703  0
C  C51  1  0.21157821  0.98754614  0.65153976  1  -0.175403  0  0.002982  -0.054801  0  3.944128  0
C  C52  1  0.21768599  0.00075021  0.37159567  1  -0.015281  0  0.001652  -0.056329  0  3.947716  0
C  C53  1  0.18163081  0.00222455  0.30924935  1  -0.174604  0  -0.004964  -0.117364  0  3.876008  0
C  C54  1  0.81900789  0.28791300  0.02499609  1  -0.058557  0  -0.004611  -0.117381  0  3.875389  0
C  C55  1  0.78362347  0.35006608  0.02590427  1  -0.162442  0  0.004063  -0.054619  0  3.946349  0
C  C56  1  0.82477015  0.69245909  0.01134383  1  0.039282  0  -0.002483  -0.112582  0  3.871942  0
C  C57  1  0.78794169  0.63031949  0.01365523  1  -0.217032  0  0.002227  -0.058852  0  3.947254  0
C  C58  1  0.21917518  0.34688269  0.02537386  1  -0.310072  0  0.003199  -0.055297  0  3.947696  0
C  C59  1  0.18475646  0.28421302  0.02528150  1  0.117874  0  -0.004364  -0.115953  0  3.877338  0
C  C60  1  0.17035002  0.68579364  0.01892827  1  0.072016  0  -0.001628  -0.111726  0  3.870996  0
C  C61  1  0.20903463  0.62498642  0.01950783  1  -0.229008  0  0.002972  -0.058129  0  3.943596  0
N  N62  1  0.34146746  0.99698180  0.44319481  1  -1.062684  0  -0.29214  -0.388011  0  3.071325  0
N  N63  1  0.33822296  0.98823557  0.58585005  1  -1.077216  0  -0.290522  -0.384604  0  3.069106  0
N  N64  1  0.21339124  0.99403243  0.51149298  1  -1.089638  0  -0.290196  -0.384348  0  3.073734  0
N  N65  1  0.78806519  0.99550653  0.51119992  1  -1.105826  0  -0.290721  -0.386026  0  3.073031  0
N  N66  1  0.66347020  0.99142191  0.58562150  1  -1.142086  0  -0.291894  -0.387688  0  3.068409  0
N  N67  1  0.65982577  0.99577423  0.44419096  1  -1.149708  0  -0.291255  -0.385625  0  3.071115  0
N  N68  1  0.21273860  0.48584591  0.02257743  1  -1.111239  0  -0.289718  -0.382739  0  3.067011  0
N  N69  1  0.33660878  0.56030877  0.02107980  1  -1.127161  0  -0.291422  -0.387108  0  3.069062  0
N  N70  1  0.34169157  0.41885167  0.02498328  1  -1.071898  0  -0.291772  -0.387268  0  3.072035  0
N  N71  1  0.78726144  0.48993578  0.02044842  1  -1.098883  0  -0.289775  -0.383659  0  3.0656  0
N  N72  1  0.66187625  0.56307609  0.01809189  1  -1.082049  0  -0.291203  -0.388198  0  3.070669  0
N  N73  1  0.65971227  0.42035352  0.02633165  1  -1.154017  0  -0.292046  -0.388476  0  3.073162  0
O  O74  1  0.14338950  0.78685340  0.07781348  1  -1.167122  0  -0.325662  -0.583059  0  2.26403  0
O  O75  1  0.07931539  0.79115303  0.95831063  1  -1.14836  0  -0.320769  -0.555862  0  2.252666  0
O  O76  1  0.84439598  0.93909659  0.21001377  1  -1.154321  0  -0.324415  -0.58379  0  2.265442  0
O  O77  1  0.91231392  0.05640920  0.20661582  1  -1.146947  0  -0.322069  -0.554803  0  2.251137  0
O  O78  1  0.84603995  0.79722591  0.06630343  1  -1.153433  0  -0.321344  -0.574591  0  2.264657  0
O  O79  1  0.91781256  0.79602783  0.95258048  1  -1.142486  0  -0.326831  -0.56052  0  2.249155  0
O  O80  1  0.15774868  0.94361575  0.20744736  1  -1.163353  0  -0.319709  -0.586455  0  2.258756  0
O  O81  1  0.08149659  0.05410243  0.21125623  1  -1.148196  0  -0.323494  -0.555285  0  2.249378  0
O  O82  1  0.07081492  0.80070061  0.21091080  1  -1.22404  0  -0.638965  -0.894236  0  1.945143  0
O  O83  1  0.23579411  0.92531767  0.08191129  1  -1.256145  0  -0.594631  -0.789789  0  2.042559  0
O  O84  1  0.91860388  0.79657706  0.20599578  1  -1.244305  0  -0.592172  -0.790642  0  2.051656  0
O  O85  1  0.76447911  0.93585639  0.07323920  1  -1.244802  0  -0.638903  -0.899496  0  1.949699  0
O  O86  1  0.99675520  0.88082276  0.05002815  1  -1.210866  0  -0.756044  -1.066039  0  2.180258  0
O  O87  1  0.99848077  0.94259712  0.16447171  1  -1.251081  0  -0.656226  -0.980285  0  2.363351  0
O  O88  1  0.16153389  0.18221394  0.96646782  1  -1.155171  0  -0.324603  -0.580738  0  2.262902  0
O  O89  1  0.08683586  0.18497484  0.07796709  1  -1.153027  0  -0.322311  -0.556221  0  2.257386  0
O  O90  1  0.85808186  0.05496744  0.80826049  1  -1.15838  0  -0.324407  -0.579721  0  2.26056  0
O  O91  1  0.92295523  0.93507490  0.81344096  1  -1.144419  0  -0.321445  -0.555105  0  2.245736  0
O  O92  1  0.84313474  0.18689149  0.96470740  1  -1.156973  0  -0.315998  -0.585746  0  2.256526  0
O  O93  1  0.91903907  0.18963823  0.07523776  1  -1.140204  0  -0.325968  -0.558268  0  2.25657  0
O  O94  1  0.14766729  0.04838355  0.81232203  1  -1.166681  0  -0.317947  -0.586673  0  2.260482  0
O  O95  1  0.08438837  0.92786412  0.81925132  1  -1.149458  0  -0.324303  -0.557551  0  2.251965  0
O  O96  1  0.08188131  0.18516098  0.81923545  1  -1.225411  0  -0.595749  -0.789885  0  2.041916  0
O  O97  1  0.23590488  0.04866292  0.95292549  1  -1.240099  0  -0.640083  -0.89573  0  1.945635  0
O  O98  1  0.92877052  0.18883598  0.82200803  1  -1.243475  0  -0.639751  -0.896091  0  1.947137  0
O  O99  1  0.76503451  0.06083883  0.94686762  1  -1.261945  0  -0.595973  -0.792865  0  2.033016  0
O  O100  1  0.00335543  0.14367400  0.96239104  1  -1.271022  0  -0.646723  -0.954713  0  2.295763  0
O  O101  1  0.00373717  0.02690966  0.90402624  1  -1.210493  0  -0.763211  -1.080544  0  2.228718  0
O  O102  1  0.08827961  0.02784103  0.05348000  1  -1.211027  0  -0.76306  -1.079103  0  2.229211  0
O  O103  1  0.87866056  0.94686168  0.95908463  1  -1.244669  0  -0.654725  -0.982136  0  2.361339  0
O  O104  1  0.12365893  0.93858299  0.96781598  1  -1.219806  0  -0.646565  -0.955925  0  2.293948  0
O  O105  1  0.91061562  0.03211672  0.04980106  1  -1.206546  0  -0.757056  -1.06392  0  2.177106  0
