# generated using pymatgen
data_CuH14C15(NO)4
_symmetry_space_group_name_H-M   'P 1'
_cell_length_a   12.76022270
_cell_length_b   14.25354385
_cell_length_c   15.41907799
_cell_angle_alpha   66.01326706
_cell_angle_beta   89.73826284
_cell_angle_gamma   83.30281590
_symmetry_Int_Tables_number   1
_chemical_formula_structural   CuH14C15(NO)4
_chemical_formula_sum   'Cu6 H84 C90 N24 O24'
_cell_volume   2541.88699203
_cell_formula_units_Z   6
loop_
 _symmetry_equiv_pos_site_id
 _symmetry_equiv_pos_as_xyz
  1  'x, y, z'
loop_
 _atom_site_type_symbol
 _atom_site_label
 _atom_site_symmetry_multiplicity
 _atom_site_fract_x
 _atom_site_fract_y
 _atom_site_fract_z
 _atom_site_occupancy
 _atom_site_pbe_bader_charge
 _atom_site_pbe_bader_spin_density
 _atom_site_pbe_cm5_charge
 _atom_site_pbe_ddec_charge
 _atom_site_pbe_ddec_spin_density
 _atom_site_pbe_ddec_sum_bond_order
 _atom_site_pbe_magmom
Cu  Cu0  1  0.26488001  0.00308571  0.25668613  1  1.042428  0.561247  0.74111  0.759606  0.717994  2.233556  0.561
Cu  Cu1  1  0.73512124  0.99691317  0.74331677  1  1.042481  0.561249  0.741108  0.759622  0.717995  2.233602  0.561
Cu  Cu2  1  0.75961136  0.40665220  0.17323294  1  1.096049  0.589257  0.753435  0.817864  0.744564  2.25865  0.586
Cu  Cu3  1  0.24039166  0.59334517  0.82676727  1  1.095907  0.589245  0.753438  0.817896  0.744547  2.258548  0.586
Cu  Cu4  1  0.74457960  0.58088257  0.32436768  1  1.103607  0.592536  0.74513  0.821255  0.747994  2.249692  0.589
Cu  Cu5  1  0.25541883  0.41911398  0.67563543  1  1.103609  0.592534  0.745129  0.821263  0.747993  2.249685  0.589
H  H6  1  0.06596189  0.95348516  0.17409588  1  0.178483  0.000679  0.133283  0.107339  0.000247  1.045295  0.0
H  H7  1  0.93404202  0.04651143  0.82590526  1  0.17849  0.000678  0.133261  0.10731  0.000247  1.045324  0.0
H  H8  1  0.12509336  0.94018218  0.44770628  1  0.124112  0.000865  0.120576  0.116333  0.000348  1.015157  0.001
H  H9  1  0.87490288  0.05981902  0.55229448  1  0.124461  0.000865  0.120543  0.116312  0.000349  1.015118  0.001
H  H10  1  0.91726890  0.90459489  0.43322650  1  0.138952  0.001209  0.123291  0.128426  0.000587  1.023227  0.001
H  H11  1  0.08272881  0.09540711  0.56677201  1  0.138957  0.001209  0.123284  0.128424  0.000587  1.02324  0.001
H  H12  1  0.84837704  0.83593324  0.28221382  1  0.108351  -0.000103  0.112715  0.101138  -0.00013  1.003189  0.0
H  H13  1  0.15162245  0.16406724  0.71778265  1  0.108362  -0.000103  0.112739  0.101197  -0.00013  1.003188  0.0
H  H14  1  0.88102280  0.93328301  0.17344743  1  0.074304  2.5e-05  0.113002  0.088342  -1e-06  0.979959  0.0
H  H15  1  0.11897940  0.06672056  0.82655050  1  0.07415  2.5e-05  0.113  0.088372  -1e-06  0.97999  0.0
H  H16  1  0.74470415  0.96274517  0.32723153  1  0.059302  4.7e-05  0.097216  0.099139  2.5e-05  0.996208  0.0
H  H17  1  0.25529894  0.03725762  0.67276668  1  0.059593  4.7e-05  0.097215  0.099131  2.5e-05  0.996261  0.0
H  H18  1  0.78936066  0.06861153  0.22985781  1  0.122103  4e-05  0.097126  0.108394  5.2e-05  1.023225  0.0
H  H19  1  0.21064008  0.93139126  0.77013975  1  0.122167  4e-05  0.097159  0.108444  5.2e-05  1.023177  0.0
H  H20  1  0.69929359  0.02368004  0.11474026  1  0.088521  -3.2e-05  0.109191  0.090194  -4.8e-05  0.98593  0.0
H  H21  1  0.30070460  0.97632427  0.88525804  1  0.088602  -3.2e-05  0.109159  0.090163  -4.8e-05  0.98587  0.0
H  H22  1  0.67247924  0.90438791  0.20548341  1  0.087541  6.4e-05  0.113979  0.093099  2.5e-05  1.014049  0.0
H  H23  1  0.32751973  0.09561638  0.79451685  1  0.087448  6.3e-05  0.113951  0.093087  2.5e-05  1.014074  0.0
H  H24  1  0.48695084  0.90853054  0.21867224  1  0.168029  0.000248  0.139281  0.112352  -1.3e-05  1.013751  0.0
H  H25  1  0.51304999  0.09147142  0.78133148  1  0.167954  0.000248  0.139283  0.112282  -1.3e-05  1.013783  0.0
H  H26  1  0.60812182  0.18184910  0.19481857  1  0.155704  0.000871  0.127713  0.137543  0.000379  1.027324  0.001
H  H27  1  0.39187627  0.81815600  0.80517815  1  0.155733  0.000871  0.127722  0.137545  0.000379  1.027337  0.001
H  H28  1  0.39150198  0.20177081  0.21857047  1  0.117975  0.000596  0.122547  0.121617  0.000195  0.997071  0.001
H  H29  1  0.60849475  0.79823272  0.78142813  1  0.118071  0.000596  0.122554  0.121638  0.000195  0.99705  0.001
H  H30  1  0.83938181  0.18019101  0.32547591  1  0.111431  0.000832  0.120474  0.119454  0.000331  0.999362  0.001
H  H31  1  0.16061887  0.81980637  0.67452235  1  0.111455  0.000832  0.120463  0.11942  0.000331  0.999439  0.001
H  H32  1  0.70045922  0.06840579  0.45954539  1  0.191463  0.00076  0.117195  0.139118  0.000399  1.070551  0.001
H  H33  1  0.29954235  0.93159080  0.54045511  1  0.191511  0.00076  0.117233  0.139187  0.000399  1.070517  0.001
H  H34  1  0.54622013  0.36558386  0.28106362  1  0.16275  0.00054  0.138177  0.114459  0.000169  0.998752  0.0
H  H35  1  0.45378279  0.63441427  0.71893695  1  0.16269  0.00054  0.138243  0.11448  0.00017  0.998667  0.0
H  H36  1  0.47999808  0.11303038  0.44267315  1  0.102165  0.000291  0.11386  0.106608  0.000178  0.967148  0.0
H  H37  1  0.52000062  0.88697009  0.55732333  1  0.102098  0.000292  0.113846  0.106654  0.000178  0.967145  0.0
H  H38  1  0.43716595  0.24672834  0.40188593  1  0.054212  4e-05  0.11234  0.089641  8e-06  0.975648  0.0
H  H39  1  0.56283656  0.75327291  0.59811156  1  0.054207  4e-05  0.112346  0.089674  8e-06  0.975598  0.0
H  H40  1  0.58747616  0.12357336  0.57718511  1  0.089492  -0.000218  0.095192  0.092608  -0.00038  1.027391  0.0
H  H41  1  0.41252411  0.87642711  0.42281332  1  0.089469  -0.000218  0.095198  0.092607  -0.00038  1.027423  0.0
H  H42  1  0.44901810  0.14382599  0.58190404  1  0.095014  0.000166  0.103221  0.115357  9.9e-05  0.990423  0.0
H  H43  1  0.55098190  0.85617062  0.41809451  1  0.094908  0.000166  0.103217  0.115332  9.9e-05  0.990503  0.0
H  H44  1  0.44739495  0.33421766  0.51550287  1  0.101862  -3e-06  0.114928  0.097479  -4.2e-05  0.975308  0.0
H  H45  1  0.55260170  0.66578045  0.48449773  1  0.101937  -3e-06  0.114906  0.097434  -4.2e-05  0.975368  0.0
H  H46  1  0.51203627  0.26680668  0.62758268  1  0.087331  0.000157  0.11268  0.102043  9.4e-05  0.985935  0.0
H  H47  1  0.48796049  0.73319066  0.37241755  1  0.087338  0.000157  0.112705  0.101996  9.4e-05  0.985972  0.0
H  H48  1  0.53568391  0.47684685  0.40682825  1  0.142211  0.000268  0.13665  0.109684  -1.4e-05  0.999271  0.0
H  H49  1  0.46431667  0.52315128  0.59317168  1  0.142184  0.000268  0.136642  0.109663  -1.4e-05  0.999213  0.0
H  H50  1  0.85675699  0.37729320  0.49355525  1  0.161775  0.000873  0.123388  0.123988  0.00037  1.004502  0.001
H  H51  1  0.14324216  0.62269799  0.50644465  1  0.161824  0.000872  0.123415  0.124115  0.00037  1.004436  0.001
H  H52  1  0.73712231  0.22325555  0.60509708  1  0.14823  0.000897  0.117537  0.122993  0.000363  1.051493  0.001
H  H53  1  0.26287210  0.77674179  0.39490251  1  0.148224  0.000897  0.117542  0.12306  0.000362  1.051513  0.001
H  H54  1  0.97014781  0.51671440  0.10890228  1  0.119033  0.000373  0.138057  0.110055  4.9e-05  0.995136  0.0
H  H55  1  0.02985590  0.48328373  0.89109894  1  0.119106  0.000373  0.138082  0.110072  4.9e-05  0.995146  0.0
H  H56  1  0.66401195  0.58421411  0.98076736  1  0.15013  0.000805  0.126023  0.130448  0.00033  0.990285  0.001
H  H57  1  0.33598939  0.41578395  0.01923973  1  0.15009  0.000804  0.126018  0.130446  0.00033  0.990218  0.001
H  H58  1  0.78912982  0.73315825  0.86563233  1  0.166241  0.001018  0.117271  0.129493  0.000598  1.059714  0.001
H  H59  1  0.21086918  0.26683986  0.13436956  1  0.166198  0.001018  0.117328  0.129622  0.000598  1.059664  0.001
H  H60  1  0.01579130  0.70076191  0.87578174  1  0.095839  0.000133  0.115204  0.107875  8e-06  0.990017  0.0
H  H61  1  0.98421094  0.29923546  0.12421782  1  0.095643  0.000133  0.115234  0.107902  8e-06  0.990037  0.0
H  H62  1  0.06414607  0.65151287  0.99438370  1  0.065632  7e-06  0.115183  0.097218  -3.9e-05  0.970739  0.0
H  H63  1  0.93585529  0.34848526  0.00561623  1  0.065671  7e-06  0.1152  0.097293  -3.9e-05  0.970705  0.0
H  H64  1  0.04644493  0.84491111  0.90431794  1  0.080971  0.000175  0.10459  0.122084  0.000114  0.990498  0.0
H  H65  1  0.95355162  0.15508777  0.09568237  1  0.081016  0.000175  0.104598  0.122085  0.000114  0.99055  0.0
H  H66  1  0.90718123  0.85024437  0.90077600  1  0.065347  -0.000186  0.097386  0.094065  -0.00036  1.015391  0.0
H  H67  1  0.09281652  0.14975143  0.09922415  1  0.065267  -0.000186  0.097406  0.094036  -0.00036  1.01544  0.0
H  H68  1  0.05094896  0.76858722  0.08310259  1  0.078801  3e-05  0.115264  0.094318  3e-06  0.972949  0.0
H  H69  1  0.94904926  0.23141090  0.91689800  1  0.078799  3e-05  0.115277  0.094333  3e-06  0.972896  0.0
H  H70  1  0.98438491  0.89594486  0.02718028  1  0.066522  0.000231  0.109087  0.090412  0.000147  0.971577  0.0
H  H71  1  0.01561233  0.10405481  0.97281974  1  0.066599  0.000231  0.109112  0.090429  0.000147  0.971695  0.0
H  H72  1  0.95659934  0.64993302  0.21992216  1  0.174476  0.000458  0.14191  0.120376  0.00012  0.984892  0.0
H  H73  1  0.04339888  0.35006508  0.78007973  1  0.174394  0.000458  0.141925  0.120413  0.00012  0.984884  0.0
H  H74  1  0.76590655  0.89363246  0.99977271  1  0.165297  0.000722  0.119148  0.134275  0.00028  1.05283  0.001
H  H75  1  0.23409177  0.10636488  0.00022882  1  0.165254  0.000722  0.119151  0.134311  0.00028  1.05289  0.001
H  H76  1  0.63901940  0.77706188  0.14239569  1  0.087828  0.000705  0.118989  0.114684  0.000236  1.018426  0.001
H  H77  1  0.36097939  0.22293775  0.85760824  1  0.087864  0.000705  0.11895  0.114651  0.000236  1.018384  0.001
H  H78  1  0.28810764  0.17024470  0.50352422  1  0.090819  5.4e-05  0.102266  0.102905  -1.1e-05  1.04647  0.0
H  H79  1  0.71189207  0.82976579  0.49647441  1  0.09133  5.4e-05  0.102235  0.102894  -1.1e-05  1.046356  0.0
H  H80  1  0.03884994  0.42097959  0.44852734  1  0.143119  0.000432  0.111659  0.128159  0.000332  0.996248  0.0
H  H81  1  0.96115045  0.57903173  0.55146579  1  0.142755  0.000431  0.111614  0.128061  0.000332  0.996298  0.0
H  H82  1  0.05969841  0.25131383  0.27225417  1  0.103446  0.00075  0.103917  0.113033  0.00067  1.025126  0.0
H  H83  1  0.94029668  0.74868424  0.72774969  1  0.103379  0.00075  0.103914  0.113028  0.00067  1.025118  0.0
H  H84  1  0.44676008  0.74149484  0.23707840  1  0.092586  0.000751  0.100031  0.102682  0.000679  1.04859  0.0
H  H85  1  0.55324802  0.25850568  0.76291739  1  0.092386  0.000751  0.100031  0.102662  0.000679  1.048619  0.0
H  H86  1  0.21759384  0.83934881  0.00349707  1  0.100134  2.4e-05  0.100046  0.100504  -3.3e-05  1.039187  0.0
H  H87  1  0.78240663  0.16065009  0.99650322  1  0.100072  2.4e-05  0.10003  0.100482  -3.3e-05  1.039223  0.0
H  H88  1  0.45960747  0.58414931  0.05111461  1  0.133585  0.000468  0.110684  0.126138  0.000367  0.996816  0.0
H  H89  1  0.54039487  0.41584728  0.94888589  1  0.133656  0.000468  0.110678  0.126086  0.000367  0.996898  0.0
C  C90  1  0.05363324  0.94599575  0.24618979  1  0.951426  -0.000875  0.139196  0.08215  -0.00141  3.910236  0.0
C  C91  1  0.94636920  0.05400006  0.75381229  1  0.951382  -0.000875  0.139236  0.082266  -0.001411  3.910094  0.0
C  C92  1  0.08117901  0.93907377  0.38825023  1  0.3725  0.001906  -0.000844  -0.03159  0.001477  3.991018  0.002
C  C93  1  0.91881907  0.06093130  0.61174975  1  0.372176  0.001906  -0.00079  -0.031551  0.001477  3.991162  0.002
C  C94  1  0.97819466  0.92202632  0.38177789  1  0.33671  0.003546  0.005031  -0.094391  0.002325  3.88848  0.003
C  C95  1  0.02180394  0.07797491  0.61822025  1  0.336677  0.003546  0.004993  -0.094419  0.002325  3.88843  0.003
C  C96  1  0.86495784  0.91653679  0.24807195  1  0.268125  0.001001  -0.047387  -0.054655  0.000704  3.86181  0.001
C  C97  1  0.13504321  0.08346366  0.75192777  1  0.268293  0.001001  -0.047393  -0.054706  0.000704  3.861981  0.001
C  C98  1  0.76975910  0.98913510  0.25369042  1  -0.07277  0.000326  -0.163493  -0.201705  0.000215  3.923132  0.0
C  C99  1  0.23024311  0.01086846  0.74630751  1  -0.072955  0.000326  -0.163563  -0.201779  0.000215  3.923223  0.0
C  C100  1  0.68087763  0.98531363  0.18996256  1  0.282537  0.001035  -0.047743  -0.056613  0.000752  3.872524  0.001
C  C101  1  0.31912202  0.01469146  0.81003546  1  0.282316  0.001035  -0.047627  -0.056475  0.000752  3.87247  0.001
C  C102  1  0.48886167  0.98586995  0.21474198  1  0.955794  -0.001106  0.141839  0.091944  -0.001475  3.908173  0.0
C  C103  1  0.51113917  0.01413202  0.78526043  1  0.95575  -0.001106  0.141934  0.092237  -0.001475  3.908253  0.0
C  C104  1  0.55032187  0.12925108  0.20292020  1  0.26428  0.003406  0.006581  -0.094388  0.002146  3.879173  0.002
C  C105  1  0.44967631  0.87075323  0.79707876  1  0.340583  0.003302  0.006593  -0.094374  0.002146  3.878965  0.002
C  C106  1  0.44333820  0.13809596  0.21456587  1  0.443073  0.001427  -0.001474  -0.025826  0.001034  3.989702  0.002
C  C107  1  0.55666097  0.86190680  0.78543431  1  0.366857  0.001531  -0.001438  -0.025776  0.001034  3.989662  0.002
C  C108  1  0.75786590  0.20130159  0.33698021  1  0.43898  0.000257  -0.001968  -0.029155  -0.000135  4.009976  0.0
C  C109  1  0.24213655  0.79869425  0.66301862  1  0.439003  0.000257  -0.001956  -0.029085  -0.000135  4.009985  0.0
C  C110  1  0.69057637  0.14561761  0.40249723  1  0.248342  0.003339  -0.010308  -0.132802  0.002172  3.91735  0.002
C  C111  1  0.30942588  0.85437975  0.59750364  1  0.248362  0.003339  -0.010283  -0.132819  0.002172  3.917309  0.002
C  C112  1  0.60741691  0.30040994  0.31144191  1  0.948554  -0.00086  0.139539  0.083792  -0.000983  3.922391  0.0
C  C113  1  0.39258455  0.69958742  0.68855831  1  0.948728  -0.00086  0.139463  0.083775  -0.000983  3.922192  0.0
C  C114  1  0.50190656  0.18601114  0.44106309  1  0.290481  0.001098  -0.04966  -0.059752  0.000825  3.874487  0.001
C  C115  1  0.49809371  0.81398931  0.55893599  1  0.290275  0.001098  -0.049701  -0.059935  0.000825  3.874455  0.001
C  C116  1  0.51668116  0.17805672  0.54233691  1  -0.075421  -0.000109  -0.160992  -0.196659  -0.000178  3.909683  0.0
C  C117  1  0.48331707  0.82194142  0.45766173  1  -0.075203  -0.000109  -0.160972  -0.196612  -0.000178  3.909671  0.0
C  C118  1  0.51751852  0.28028840  0.55250710  1  0.269532  0.000917  -0.049724  -0.056185  0.000668  3.863433  0.001
C  C119  1  0.48247735  0.71970971  0.44749350  1  0.269678  0.000917  -0.049677  -0.05601  0.000668  3.863455  0.001
C  C120  1  0.60726476  0.42966400  0.44494100  1  0.964407  -0.001985  0.133211  0.073099  -0.002468  3.944968  -0.001
C  C121  1  0.39273169  0.57033567  0.55505838  1  0.964412  -0.001983  0.133218  0.073154  -0.002468  3.944952  -0.001
C  C122  1  0.77233806  0.37465097  0.49241240  1  0.361316  0.001406  0.001046  -0.016912  0.001086  3.970173  0.002
C  C123  1  0.22765979  0.62534408  0.50758608  1  0.361052  0.001405  0.001119  -0.016927  0.001085  3.969936  0.002
C  C124  1  0.71437033  0.29781671  0.54700716  1  0.325063  0.003935  -0.002806  -0.10399  0.002561  3.895902  0.003
C  C125  1  0.28562565  0.70218067  0.45298917  1  0.325167  0.003934  -0.002884  -0.10419  0.002561  3.895983  0.003
C  C126  1  0.90309540  0.55449013  0.05925543  1  1.004966  -0.001528  0.136117  0.079254  -0.001921  3.939665  0.0
C  C127  1  0.09690674  0.44550799  0.94074645  1  1.005034  -0.001528  0.136069  0.079258  -0.001921  3.939571  0.0
C  C128  1  0.74601125  0.59285588  0.98946555  1  0.407104  0.000949  -0.000775  -0.022671  0.000643  3.984697  0.001
C  C129  1  0.25399177  0.40714147  0.01053726  1  0.407166  0.000949  -0.000803  -0.022691  0.000643  3.984637  0.001
C  C130  1  0.80628315  0.66633027  0.93281264  1  0.246578  0.003882  -0.008488  -0.122643  0.002504  3.915177  0.003
C  C131  1  0.19371653  0.33366859  0.06719156  1  0.246465  0.003883  -0.008535  -0.122772  0.002504  3.915175  0.003
C  C132  1  0.99646627  0.69764332  0.94630260  1  0.311624  0.000889  -0.05097  -0.061389  0.000604  3.86968  0.001
C  C133  1  0.00353519  0.30235403  0.05369826  1  0.311885  0.000889  -0.051052  -0.061591  0.000604  3.869756  0.001
C  C134  1  0.97993710  0.80703845  0.94282769  1  -0.033684  -5.5e-05  -0.161237  -0.19947  -9.1e-05  3.913719  0.0
C  C135  1  0.02006143  0.19295734  0.05717440  1  -0.033872  -5.5e-05  -0.161231  -0.199319  -9.1e-05  3.913715  0.0
C  C136  1  0.98070138  0.81497905  0.03880676  1  0.268297  0.001085  -0.047403  -0.054985  0.00082  3.881513  0.001
C  C137  1  0.01929626  0.18501752  0.96119440  1  0.268225  0.001085  -0.047394  -0.055004  0.00082  3.881649  0.001
C  C138  1  0.88726709  0.70042430  0.18019108  1  0.950297  -0.001253  0.140176  0.082385  -0.001494  3.917401  0.0
C  C139  1  0.11273034  0.29957380  0.81981146  1  0.950365  -0.001252  0.140134  0.082288  -0.001494  3.917454  0.0
C  C140  1  0.78480592  0.82549648  0.06568961  1  0.295765  0.003322  -0.003755  -0.114386  0.00216  3.904349  0.002
C  C141  1  0.21519219  0.17450239  0.93431330  1  0.295816  0.003322  -0.003752  -0.11452  0.00216  3.904384  0.002
C  C142  1  0.72389452  0.76861204  0.13698710  1  0.444347  0.000392  -0.001208  -0.025566  3.8e-05  3.997333  0.001
C  C143  1  0.27610407  0.23138913  0.86301626  1  0.444327  0.000392  -0.001195  -0.025474  3.8e-05  3.997237  0.001
C  C144  1  0.23701330  0.12213305  0.35579152  1  1.546444  -0.001242  0.194869  0.551743  -0.001936  4.235529  -0.003
C  C145  1  0.76298353  0.87786969  0.64420931  1  1.546689  -0.001242  0.194842  0.551829  -0.001936  4.235417  -0.003
C  C146  1  0.18192885  0.20408305  0.38282973  1  -0.040615  0.009993  -0.029414  -0.049048  0.006886  4.027982  0.008
C  C147  1  0.81807206  0.79592436  0.61716808  1  -0.041144  0.009993  -0.029394  -0.049201  0.006885  4.028214  0.008
C  C148  1  0.21898978  0.21910611  0.46086693  1  -0.032188  0.00118  -0.085351  -0.128381  0.000383  3.974092  0.001
C  C149  1  0.78101150  0.78090440  0.53913039  1  -0.032454  0.00118  -0.085207  -0.128225  0.000384  3.973963  0.001
C  C150  1  0.16814193  0.29711219  0.48487472  1  -0.101094  0.011739  -0.022786  -0.033124  0.007997  3.974598  0.009
C  C151  1  0.83185622  0.70289832  0.51512065  1  -0.100805  0.011738  -0.022826  -0.033138  0.007998  3.97458  0.009
C  C152  1  0.21299044  0.31261757  0.56811179  1  1.565024  -0.000747  0.184802  0.538285  -0.001068  4.273996  -0.002
C  C153  1  0.78700566  0.68739061  0.43188510  1  1.564832  -0.000745  0.184664  0.538125  -0.001068  4.27419  -0.002
C  C154  1  0.07813145  0.35922683  0.43102866  1  0.004874  0.0007  -0.071158  -0.095546  0.000249  3.898041  0.001
C  C155  1  0.92186925  0.64078215  0.56896663  1  0.005606  0.0007  -0.071108  -0.095409  0.000249  3.898016  0.001
C  C156  1  0.03806950  0.34167597  0.35523815  1  -0.044392  0.011475  -0.021556  -0.035059  0.007757  3.978763  0.009
C  C157  1  0.96192946  0.65832835  0.64476015  1  -0.0446  0.011476  -0.021611  -0.035144  0.007757  3.978795  0.009
C  C158  1  0.09074334  0.26477625  0.33113046  1  -0.04852  4e-06  -0.081888  -0.105123  -0.000295  3.942019  0.0
C  C159  1  0.90925505  0.73522650  0.66886972  1  -0.04876  4e-06  -0.081859  -0.105023  -0.000295  3.942003  0.0
C  C160  1  0.93810680  0.40406040  0.29980128  1  1.576216  -0.000528  0.20191  0.570142  -0.000478  4.233677  -0.002
C  C161  1  0.06188907  0.59593770  0.70019932  1  1.576235  -0.000528  0.201957  0.570181  -0.000478  4.233798  -0.002
C  C162  1  0.56365953  0.59055530  0.20164142  1  1.578327  -0.000578  0.199333  0.563378  -0.000568  4.243607  -0.002
C  C163  1  0.43634631  0.40944438  0.79836053  1  1.57848  -0.000577  0.199345  0.563294  -0.000568  4.243408  -0.002
C  C164  1  0.46379914  0.65671562  0.14917203  1  -0.007912  0.011148  -0.023372  -0.03771  0.007511  3.984415  0.009
C  C165  1  0.53620624  0.34328177  0.85082686  1  -0.007907  0.011146  -0.023404  -0.037833  0.00751  3.984564  0.009
C  C166  1  0.41462157  0.73330015  0.17572643  1  -0.054115  -0.000454  -0.082733  -0.105769  -0.000741  3.940923  -0.001
C  C167  1  0.58538340  0.26670034  0.82427067  1  -0.053921  -0.000454  -0.082745  -0.105721  -0.000741  3.940935  -0.001
C  C168  1  0.32582171  0.79942541  0.12402780  1  -0.07661  0.010233  -0.02855  -0.044072  0.007002  4.006207  0.008
C  C169  1  0.67418346  0.20057352  0.87597183  1  -0.076428  0.010231  -0.028509  -0.04406  0.007001  4.006173  0.008
C  C170  1  0.27589572  0.88406629  0.15065725  1  1.570172  -0.000276  0.196931  0.561197  -0.000591  4.218579  -0.002
C  C171  1  0.72410866  0.11593264  0.84934238  1  1.570138  -0.000276  0.196934  0.561269  -0.000592  4.218573  -0.002
C  C172  1  0.28589893  0.78765306  0.04518965  1  -0.086549  0.001439  -0.082781  -0.114522  0.000525  3.960243  0.001
C  C173  1  0.71410535  0.21234664  0.95480969  1  -0.086637  0.001439  -0.082834  -0.114601  0.000525  3.960408  0.001
C  C174  1  0.33296023  0.70974781  0.01929140  1  0.025224  0.012245  -0.023476  -0.036511  0.008429  3.991978  0.01
C  C175  1  0.66704552  0.29025266  0.98070831  1  0.025455  0.01224  -0.02342  -0.03643  0.008427  3.991967  0.01
C  C176  1  0.42202385  0.64436213  0.07143305  1  -0.078677  0.000492  -0.071334  -0.089361  -8.3e-05  3.903986  0.0
C  C177  1  0.57798142  0.35563601  0.92856752  1  -0.0784  0.000491  -0.071276  -0.089231  -8.3e-05  3.903951  0.0
C  C178  1  0.28670651  0.69698345  0.93559638  1  1.570435  -0.000757  0.187201  0.535972  -0.001144  4.278038  -0.003
C  C179  1  0.71329522  0.30301780  0.06440046  1  1.570139  -0.000755  0.187335  0.536149  -0.001143  4.277758  -0.003
N  N180  1  0.12735133  0.95369806  0.30316691  1  -1.201142  0.077724  -0.379482  -0.288649  0.051447  3.648501  0.067
N  N181  1  0.87264904  0.04630163  0.69683245  1  -1.201138  0.077722  -0.379514  -0.288733  0.051446  3.648634  0.067
N  N182  1  0.96212440  0.92731236  0.29116255  1  -1.241939  0.002082  -0.238112  0.054553  0.000997  3.764292  0.001
N  N183  1  0.03787784  0.07268500  0.70883831  1  -1.24188  0.002082  -0.238081  0.054508  0.000997  3.764234  0.001
N  N184  1  0.57761223  0.03219892  0.20349647  1  -1.220811  0.002503  -0.237149  0.05906  0.001311  3.753009  0.002
N  N185  1  0.42238840  0.96780460  0.79650472  1  -1.220813  0.002503  -0.237269  0.05886  0.001311  3.753231  0.002
N  N186  1  0.40581895  0.04813786  0.22174562  1  -1.203513  0.079108  -0.381734  -0.302924  0.052494  3.665071  0.069
N  N187  1  0.59418189  0.95186411  0.77825614  1  -1.203546  0.079111  -0.381782  -0.303066  0.052496  3.665105  0.069
N  N188  1  0.70501413  0.29735744  0.28114589  1  -1.194131  0.077077  -0.380641  -0.280618  0.050686  3.675584  0.066
N  N189  1  0.29498832  0.70263840  0.71885228  1  -1.194357  0.077074  -0.380655  -0.280676  0.050684  3.675577  0.066
N  N190  1  0.59591227  0.20989540  0.38555057  1  -1.238734  0.002781  -0.247283  0.036486  0.00142  3.791968  0.002
N  N191  1  0.40408899  0.79010351  0.61444908  1  -1.238748  0.002782  -0.247302  0.0365  0.00142  3.791847  0.002
N  N192  1  0.60996670  0.33384615  0.51592845  1  -1.247386  0.001898  -0.244205  0.042264  0.000846  3.767019  0.001
N  N193  1  0.39002819  0.66615350  0.48407158  1  -1.247554  0.001898  -0.24421  0.042267  0.000846  3.767149  0.001
N  N194  1  0.70457528  0.45613068  0.42882923  1  -1.183129  0.079066  -0.375665  -0.284549  0.052008  3.655346  0.067
N  N195  1  0.29542502  0.54386358  0.57117213  1  -1.182916  0.079059  -0.375697  -0.284611  0.052005  3.655313  0.067
N  N196  1  0.80747287  0.52386257  0.06796345  1  -1.178156  0.074109  -0.381575  -0.287124  0.048854  3.669398  0.063
N  N197  1  0.19253084  0.47613555  0.93203908  1  -1.17784  0.074105  -0.381521  -0.287129  0.048851  3.66926  0.063
N  N198  1  0.90541126  0.64078550  0.97827992  1  -1.252264  0.001931  -0.247219  0.039587  0.00087  3.783173  0.001
N  N199  1  0.09458989  0.35921417  0.02172139  1  -1.252346  0.00193  -0.247245  0.039582  0.000869  3.783251  0.001
N  N200  1  0.88811709  0.78113535  0.09403153  1  -1.227564  0.002315  -0.247463  0.030663  0.001139  3.781304  0.002
N  N201  1  0.11188034  0.21886274  0.90597167  1  -1.227591  0.002315  -0.247503  0.030698  0.001139  3.781264  0.002
N  N202  1  0.78851107  0.69102347  0.20758269  1  -1.201692  0.074343  -0.372645  -0.280451  0.049073  3.650967  0.063
N  N203  1  0.21148694  0.30897615  0.79242123  1  -1.201571  0.074342  -0.372632  -0.28046  0.049072  3.651053  0.063
O  O204  1  0.21359494  0.13231824  0.27014439  1  -1.113477  0.121371  -0.33001  -0.542068  0.076725  2.35723  0.109
O  O205  1  0.78640171  0.86767985  0.72985816  1  -1.113542  0.121365  -0.330027  -0.542091  0.076723  2.357081  0.109
O  O206  1  0.29973730  0.04908246  0.41335267  1  -1.19171  0.002644  -0.324591  -0.570209  0.000741  2.193189  0.003
O  O207  1  0.70025805  0.95091948  0.58665041  1  -1.19175  0.002644  -0.324568  -0.570198  0.000741  2.193089  0.003
O  O208  1  0.90096061  0.36906652  0.24276748  1  -1.133139  0.100741  -0.328577  -0.570054  0.063207  2.403847  0.092
O  O209  1  0.09903898  0.63093317  0.75723124  1  -1.133074  0.100746  -0.328599  -0.570108  0.063211  2.403905  0.092
O  O210  1  0.90052246  0.48264582  0.31216895  1  -1.178017  0.010368  -0.317833  -0.57953  0.006105  2.328269  0.011
O  O211  1  0.09946892  0.51735070  0.68783419  1  -1.178037  0.010364  -0.317839  -0.579517  0.006103  2.328327  0.011
O  O212  1  0.29205903  0.25217936  0.61540523  1  -1.186437  0.001814  -0.337891  -0.580306  0.000142  2.159921  0.002
O  O213  1  0.70793834  0.74783117  0.38458884  1  -1.186609  0.001814  -0.33782  -0.580226  0.000142  2.160193  0.002
O  O214  1  0.16535857  0.38886132  0.58351782  1  -1.112006  0.096472  -0.332264  -0.539803  0.060543  2.285396  0.087
O  O215  1  0.83463727  0.61114297  0.41648245  1  -1.111794  0.096475  -0.332238  -0.53977  0.060543  2.285188  0.087
O  O216  1  0.60590353  0.52197367  0.17703003  1  -1.17384  0.008228  -0.315367  -0.572578  0.004704  2.288269  0.009
O  O217  1  0.39410798  0.47803074  0.82296368  1  -1.1742  0.008223  -0.315345  -0.572484  0.004701  2.288246  0.009
O  O218  1  0.59704348  0.61370269  0.26848814  1  -1.127937  0.104993  -0.332048  -0.571347  0.0659  2.408413  0.096
O  O219  1  0.40295379  0.38629077  0.73151482  1  -1.12788  0.105016  -0.332091  -0.571297  0.065913  2.408091  0.096
O  O220  1  0.33009407  0.61815346  0.92168598  1  -1.11268  0.11032  -0.325945  -0.535502  0.069552  2.306672  0.1
O  O221  1  0.66991158  0.38184780  0.07831279  1  -1.112654  0.110309  -0.326007  -0.535603  0.069544  2.306664  0.1
O  O222  1  0.21098323  0.76115147  0.88635273  1  -1.191377  0.00189  -0.332204  -0.576383  0.000108  2.182062  0.002
O  O223  1  0.78901530  0.23884433  0.11364807  1  -1.191367  0.00189  -0.332291  -0.576473  0.000108  2.181861  0.002
O  O224  1  0.31011330  0.87934219  0.23172611  1  -1.119901  0.114123  -0.331632  -0.555272  0.072194  2.384826  0.104
O  O225  1  0.68988863  0.12065751  0.76827195  1  -1.119934  0.114129  -0.331626  -0.555314  0.072198  2.384819  0.104
O  O226  1  0.20756147  0.95354185  0.09583818  1  -1.196539  0.000598  -0.333598  -0.583486  -0.000752  2.175894  0.001
O  O227  1  0.79243931  0.04645476  0.90415972  1  -1.196596  0.000596  -0.333589  -0.583487  -0.000753  2.176004  0.001
