# generated using pymatgen
data_CoH5(C2O)3
_symmetry_space_group_name_H-M   'P 1'
_cell_length_a   6.96728111
_cell_length_b   15.12594354
_cell_length_c   15.11460945
_cell_angle_alpha   117.68119983
_cell_angle_beta   98.84492227
_cell_angle_gamma   98.83285418
_symmetry_Int_Tables_number   1
_chemical_formula_structural   CoH5(C2O)3
_chemical_formula_sum   'Co6 H30 C36 O18'
_cell_volume   1346.93403486
_cell_formula_units_Z   6
loop_
 _symmetry_equiv_pos_site_id
 _symmetry_equiv_pos_as_xyz
  1  'x, y, z'
loop_
 _atom_site_type_symbol
 _atom_site_label
 _atom_site_symmetry_multiplicity
 _atom_site_fract_x
 _atom_site_fract_y
 _atom_site_fract_z
 _atom_site_occupancy
 _atom_site_pbe_bader_charge
 _atom_site_pbe_bader_spin_density
 _atom_site_pbe_cm5_charge
 _atom_site_pbe_ddec_charge
 _atom_site_pbe_ddec_spin_density
 _atom_site_pbe_ddec_sum_bond_order
 _atom_site_pbe_magmom
Co  Co0  1  0.87832304  0.67680706  0.41135956  1  1.251628  2.55376  0.626879  0.938998  2.770898  2.417239  2.539
Co  Co1  1  0.46683343  0.58887659  0.26543532  1  1.254823  2.553674  0.626639  0.937514  2.773291  2.417442  2.539
Co  Co2  1  0.20163318  0.73461884  0.32356019  1  1.251203  2.55519  0.627026  0.938322  2.773351  2.418728  2.54
Co  Co3  1  0.12166571  0.32316064  0.58858258  1  1.251672  2.5535  0.626823  0.938748  2.77074  2.417327  2.539
Co  Co4  1  0.53316203  0.41110426  0.73454846  1  1.255045  2.553786  0.62671  0.937683  2.773401  2.417507  2.539
Co  Co5  1  0.79836858  0.26535428  0.67641846  1  1.251115  2.555229  0.626941  0.93827  2.773342  2.419024  2.54
H  H6  1  0.63274681  0.44796750  0.97516752  1  0.103627  0.00106  0.11131  0.138886  0.000357  1.004608  0.0
H  H7  1  0.65742534  0.02469270  0.47257801  1  0.129369  0.001019  0.110915  0.138703  0.000355  1.004243  0.0
H  H8  1  0.18467791  0.52720897  0.55198418  1  0.109925  0.00104  0.111032  0.137855  0.000353  1.005028  0.0
H  H9  1  0.36726099  0.55200330  0.02479394  1  0.103983  0.00106  0.111355  0.139043  0.000358  1.004541  0.0
H  H10  1  0.34257638  0.97528584  0.52744550  1  0.129501  0.001018  0.110978  0.138819  0.000355  1.004064  0.0
H  H11  1  0.81534714  0.47282210  0.44805547  1  0.109896  0.001039  0.110941  0.137796  0.000353  1.005007  0.0
H  H12  1  0.46971707  0.37520390  0.17109999  1  0.074483  -0.000415  0.104981  0.147543  -0.000783  0.983492  0.0
H  H13  1  0.29898351  0.82915402  0.20408904  1  0.067538  -0.000392  0.104468  0.146612  -0.000771  0.984378  0.0
H  H14  1  0.09544141  0.79602158  0.62527924  1  0.090252  -0.000406  0.105272  0.147463  -0.00078  0.983606  0.0
H  H15  1  0.53024084  0.62477462  0.82886090  1  0.074939  -0.000415  0.104892  0.147458  -0.000783  0.983363  0.0
H  H16  1  0.70102797  0.17080365  0.79588906  1  0.068587  -0.000391  0.104537  0.146669  -0.00077  0.984285  0.0
H  H17  1  0.90453438  0.20407127  0.37471424  1  0.09039  -0.000409  0.105263  0.147238  -0.000783  0.983465  0.0
H  H18  1  0.31071318  0.39738387  0.07674271  1  0.106923  -0.00033  0.099499  0.139185  -0.000832  1.02081  0.0
H  H19  1  0.23379178  0.92331752  0.32052518  1  0.097756  -0.000336  0.099836  0.140235  -0.000826  1.020436  0.0
H  H20  1  0.91387835  0.67962937  0.60298560  1  0.10577  -0.000331  0.09969  0.13974  -0.000832  1.020254  0.0
H  H21  1  0.68923159  0.60261474  0.92324248  1  0.106869  -0.000329  0.099543  0.139317  -0.000832  1.020754  0.0
H  H22  1  0.76626715  0.07664788  0.67946248  1  0.097042  -0.000335  0.099808  0.140082  -0.000825  1.020462  0.0
H  H23  1  0.08623793  0.32044495  0.39704616  1  0.10484  -0.000333  0.09968  0.139564  -0.000834  1.020349  0.0
H  H24  1  0.22784048  0.41621670  0.27983621  1  0.084717  -0.000147  0.096476  0.135091  -0.000559  1.031225  0.0
H  H25  1  0.94832758  0.72043415  0.13595088  1  0.074149  -0.000117  0.09643  0.134386  -0.000544  1.030588  0.0
H  H26  1  0.81275566  0.86395738  0.58433695  1  0.069318  -0.000141  0.096316  0.134352  -0.000561  1.030367  0.0
H  H27  1  0.77223149  0.58383290  0.72018559  1  0.084317  -0.000146  0.096444  0.135029  -0.000559  1.031221  0.0
H  H28  1  0.05164635  0.27955596  0.86403174  1  0.074549  -0.000116  0.096411  0.13438  -0.000543  1.030593  0.0
H  H29  1  0.18706873  0.13607601  0.41571485  1  0.069947  -0.000146  0.096444  0.134548  -0.000563  1.030365  0.0
H  H30  1  0.06977814  0.44103736  0.18755055  1  0.087068  -0.000206  0.098953  0.143866  -0.000617  1.022501  0.0
H  H31  1  0.88214258  0.81253612  0.25293120  1  0.080821  -0.000187  0.098034  0.141524  -0.000608  1.023034  0.0
H  H32  1  0.62964450  0.74698068  0.55943407  1  0.106123  -0.000222  0.098582  0.142973  -0.000615  1.02272  0.0
H  H33  1  0.93028069  0.55903233  0.81249355  1  0.087174  -0.000204  0.09899  0.143725  -0.000617  1.022442  0.0
H  H34  1  0.11788955  0.18746868  0.74706762  1  0.081167  -0.000187  0.097957  0.141466  -0.000608  1.023316  0.0
H  H35  1  0.37030520  0.25302414  0.44065492  1  0.106687  -0.000225  0.098704  0.143072  -0.000617  1.022672  0.0
C  C36  1  0.12976510  0.56532448  0.10108935  1  0.590187  0.013573  0.077625  0.303485  0.007981  4.091451  0.007
C  C37  1  0.02878565  0.89897558  0.46417792  1  0.574534  0.013798  0.078224  0.30495  0.008067  4.087513  0.007
C  C38  1  0.56482216  0.53603861  0.43492776  1  0.60962  0.013391  0.077951  0.303478  0.007931  4.089842  0.007
C  C39  1  0.87024027  0.43465018  0.89887307  1  0.588199  0.013572  0.077765  0.303628  0.007973  4.091316  0.007
C  C40  1  0.97119527  0.10100218  0.53582524  1  0.575606  0.013784  0.078022  0.304603  0.008063  4.087771  0.007
C  C41  1  0.43518136  0.46397855  0.56509332  1  0.609569  0.0134  0.077858  0.303608  0.007936  4.089709  0.007
C  C42  1  0.91787332  0.53483089  0.08694060  1  -0.049575  0.022797  -0.031182  -0.155634  0.011673  3.98607  0.016
C  C43  1  0.83095754  0.91306376  0.44778646  1  -0.067298  0.02316  -0.030814  -0.154282  0.011829  3.984867  0.016
C  C44  1  0.38334088  0.55230793  0.46537898  1  -0.062231  0.022883  -0.030877  -0.153934  0.011709  3.985763  0.016
C  C45  1  0.08212384  0.46513604  0.91302294  1  -0.05006  0.02281  -0.030905  -0.154931  0.011679  3.984665  0.016
C  C46  1  0.16902706  0.08691555  0.55221901  1  -0.067451  0.023171  -0.030663  -0.154194  0.011834  3.98422  0.016
C  C47  1  0.61666546  0.44770614  0.53464351  1  -0.061339  0.022864  -0.030914  -0.1541  0.011701  3.9858  0.016
C  C48  1  0.79458822  0.47090795  0.98658523  1  -0.033789  0.024025  -0.09696  -0.197532  0.012514  3.941404  0.015
C  C49  1  0.80788721  0.01333445  0.48425255  1  -0.024268  0.024014  -0.097181  -0.198709  0.012547  3.94079  0.015
C  C50  1  0.32353130  0.51560680  0.52901959  1  -0.036741  0.023956  -0.096939  -0.196972  0.012483  3.941488  0.015
C  C51  1  0.20541997  0.52906362  0.01337991  1  -0.033426  0.024028  -0.097204  -0.198073  0.012515  3.941378  0.015
C  C52  1  0.19211022  0.98664718  0.51576548  1  -0.024123  0.023998  -0.097388  -0.198937  0.01254  3.940026  0.015
C  C53  1  0.67648000  0.48441422  0.47101045  1  -0.037266  0.023955  -0.096865  -0.196832  0.012483  3.941264  0.015
C  C54  1  0.82122066  0.56656407  0.17466387  1  1.516556  0.001113  0.22221  0.608484  -0.001499  4.119679  0.0
C  C55  1  0.64666714  0.82538837  0.39178171  1  1.539356  0.001252  0.221586  0.607185  -0.001248  4.126355  0.0
C  C56  1  0.25505235  0.60833436  0.43372266  1  1.524657  0.001357  0.221421  0.60591  -0.001276  4.123764  0.0
C  C57  1  0.17878083  0.43341446  0.82530007  1  1.515985  0.001131  0.2221  0.60814  -0.001489  4.11979  0.0
C  C58  1  0.35332248  0.17458939  0.60821611  1  1.538738  0.001249  0.221581  0.607189  -0.00125  4.125918  0.0
C  C59  1  0.74494912  0.39167585  0.56628843  1  1.524442  0.001367  0.221535  0.605973  -0.001268  4.123969  0.0
C  C60  1  0.33715476  0.39844820  0.15023147  1  -0.12671  0.000951  -0.179103  -0.251156  -0.002972  3.952775  0.002
C  C61  1  0.18707019  0.84996291  0.24804669  1  -0.074235  0.001005  -0.178901  -0.251934  -0.002765  3.953262  0.003
C  C62  1  0.93955140  0.75205264  0.60202825  1  -0.152858  0.001439  -0.179005  -0.251598  -0.002686  3.953021  0.003
C  C63  1  0.66282747  0.60155273  0.84975345  1  -0.125814  0.000916  -0.178969  -0.251236  -0.003  3.952879  0.002
C  C64  1  0.81296093  0.15000789  0.75193757  1  -0.073748  0.001011  -0.178957  -0.251871  -0.002752  3.952865  0.003
C  C65  1  0.06045044  0.24801937  0.39800235  1  -0.152816  0.00146  -0.17885  -0.250924  -0.00268  3.952136  0.003
C  C66  1  0.20679865  0.42177540  0.20981839  1  -0.190585  0.025137  -0.182626  -0.262853  0.012564  3.924931  0.018
C  C67  1  0.99716514  0.79039698  0.21153949  1  -0.209011  0.025659  -0.181405  -0.258514  0.012796  3.923483  0.018
C  C68  1  0.78606416  0.78839647  0.57872801  1  -0.183095  0.024744  -0.18257  -0.261209  0.012437  3.924836  0.018
C  C69  1  0.79323403  0.57827111  0.79020384  1  -0.191586  0.025226  -0.18267  -0.26258  0.012612  3.924885  0.018
C  C70  1  0.00285965  0.20959313  0.78845066  1  -0.210535  0.025663  -0.181286  -0.258449  0.012793  3.923494  0.018
C  C71  1  0.21385806  0.21164079  0.42133907  1  -0.183803  0.024598  -0.18309  -0.261952  0.012357  3.924711  0.017
O  O72  1  0.26114198  0.62771849  0.19376132  1  -1.136227  0.179463  -0.344823  -0.576182  0.096298  2.605512  0.157
O  O73  1  0.06745000  0.80635252  0.43381546  1  -1.134821  0.180305  -0.344974  -0.577175  0.096776  2.608217  0.158
O  O74  1  0.63387046  0.56646652  0.37266262  1  -1.134436  0.179258  -0.345538  -0.577034  0.096239  2.605698  0.157
O  O75  1  0.73886434  0.37226390  0.80620277  1  -1.135426  0.179461  -0.345035  -0.576466  0.096305  2.606099  0.157
O  O76  1  0.93254839  0.19362833  0.56617448  1  -1.135232  0.180358  -0.344901  -0.576899  0.096792  2.607915  0.158
O  O77  1  0.36613859  0.43354137  0.62735322  1  -1.134581  0.179271  -0.345468  -0.576982  0.09624  2.605598  0.157
O  O78  1  0.93729227  0.61180802  0.26698826  1  -1.154138  0.10335  -0.310595  -0.587034  0.054383  2.583192  0.093
O  O79  1  0.67050718  0.73314968  0.34482685  1  -1.164174  0.103382  -0.310297  -0.585651  0.054366  2.584004  0.092
O  O80  1  0.32589244  0.65538448  0.38847503  1  -1.153863  0.103948  -0.311183  -0.585878  0.05452  2.583554  0.093
O  O81  1  0.06271121  0.38815119  0.73297544  1  -1.154269  0.103341  -0.310547  -0.586818  0.054374  2.58325  0.093
O  O82  1  0.32949291  0.26682885  0.65515023  1  -1.163662  0.103402  -0.310313  -0.585564  0.054378  2.583745  0.092
O  O83  1  0.67408877  0.34459405  0.61150270  1  -1.153772  0.103921  -0.311213  -0.585929  0.054512  2.583416  0.093
O  O84  1  0.63124451  0.54578790  0.15545636  1  -1.125251  0.074564  -0.292124  -0.524082  0.038355  2.355545  0.065
O  O85  1  0.47585989  0.84456021  0.39018812  1  -1.14116  0.074557  -0.292483  -0.524956  0.038438  2.358308  0.065
O  O86  1  0.08583494  0.60989755  0.45445428  1  -1.145785  0.074449  -0.291581  -0.524261  0.038296  2.356266  0.065
O  O87  1  0.36876247  0.45420453  0.84451311  1  -1.125437  0.074586  -0.292166  -0.524236  0.038374  2.35586  0.065
O  O88  1  0.52413528  0.15541987  0.60982043  1  -1.140576  0.074547  -0.29246  -0.525022  0.038438  2.358476  0.065
O  O89  1  0.91417398  0.39013043  0.54556825  1  -1.145492  0.074467  -0.291616  -0.52421  0.038303  2.356432  0.065
