# generated using pymatgen
data_CdH16C16(NO)4
_symmetry_space_group_name_H-M   'P 1'
_cell_length_a   13.62872708
_cell_length_b   13.62872896
_cell_length_c   13.18104958
_cell_angle_alpha   79.30677120
_cell_angle_beta   79.30671444
_cell_angle_gamma   61.81757975
_symmetry_Int_Tables_number   1
_chemical_formula_structural   CdH16C16(NO)4
_chemical_formula_sum   'Cd4 H64 C64 N16 O16'
_cell_volume   2106.96063833
_cell_formula_units_Z   4
loop_
 _symmetry_equiv_pos_site_id
 _symmetry_equiv_pos_as_xyz
  1  'x, y, z'
loop_
 _atom_site_type_symbol
 _atom_site_label
 _atom_site_symmetry_multiplicity
 _atom_site_fract_x
 _atom_site_fract_y
 _atom_site_fract_z
 _atom_site_occupancy
 _atom_site_pbe_bader_charge
 _atom_site_pbe_bader_spin_density
 _atom_site_pbe_cm5_charge
 _atom_site_pbe_ddec_charge
 _atom_site_pbe_ddec_spin_density
 _atom_site_pbe_ddec_sum_bond_order
 _atom_site_pbe_magmom
Cd  Cd0  1  0.98370769  0.44060523  0.64588916  1  1.271921  0  0.759517  0.863807  0  2.189933  0
Cd  Cd1  1  0.55939425  0.01629351  0.85410949  1  1.271922  0  0.759527  0.863839  0  2.189863  0
Cd  Cd2  1  0.01629438  0.55939268  0.35410781  1  1.271907  0  0.759522  0.863836  0  2.189831  0
Cd  Cd3  1  0.44060699  0.98370632  0.14589333  1  1.271913  0  0.759498  0.863785  0  2.189908  0
H  H4  1  0.17958463  0.08136835  0.80490233  1  0.055968  0  0.094203  0.064498  0  0.977182  0
H  H5  1  0.91862950  0.82041489  0.69509798  1  0.055964  0  0.094206  0.064509  0  0.97714  0
H  H6  1  0.82041580  0.91863032  0.19509861  1  0.055953  0  0.094206  0.064518  0  0.977144  0
H  H7  1  0.08137095  0.17958151  0.30490115  1  0.055951  0  0.094203  0.064514  0  0.977149  0
H  H8  1  0.69416141  0.28071772  0.63109112  1  0.123606  0  0.118276  0.133234  0  0.998621  0
H  H9  1  0.71928217  0.30584159  0.86890715  1  0.123758  0  0.118264  0.133244  0  0.998588  0
H  H10  1  0.30583554  0.71928768  0.36890688  1  0.123726  0  0.118268  0.133235  0  0.998567  0
H  H11  1  0.28071476  0.69416379  0.13108859  1  0.123613  0  0.11828  0.133232  0  0.998595  0
H  H12  1  0.97653072  0.12403609  0.86382978  1  0.032985  0  0.095074  0.107152  0  0.985435  0
H  H13  1  0.87596367  0.02347025  0.63616415  1  0.03289  0  0.095071  0.10713  0  0.985425  0
H  H14  1  0.02347134  0.87596259  0.13616779  1  0.032995  0  0.095047  0.107127  0  0.985433  0
H  H15  1  0.12403755  0.97652802  0.36383140  1  0.033261  0  0.095049  0.10713  0  0.985413  0
H  H16  1  0.97694822  0.19946057  0.96055676  1  0.026711  0  0.09325  0.109712  0  0.98016  0
H  H17  1  0.80053810  0.02304680  0.53944093  1  0.02668  0  0.093226  0.109646  0  0.98021  0
H  H18  1  0.02304967  0.80053918  0.03944145  1  0.026688  0  0.093246  0.109705  0  0.980147  0
H  H19  1  0.19945739  0.97694878  0.46055937  1  0.026672  0  0.093221  0.109698  0  0.980208  0
H  H20  1  0.54050698  0.64202867  0.59353013  1  0.11392  0  0.118578  0.133633  0  0.972423  0
H  H21  1  0.35796825  0.45949281  0.90646814  1  0.113943  0  0.118594  0.1336  0  0.972467  0
H  H22  1  0.45949248  0.35797563  0.40646684  1  0.114019  0  0.118593  0.13363  0  0.972423  0
H  H23  1  0.64202720  0.54050581  0.09353383  1  0.113983  0  0.1186  0.133604  0  0.972472  0
H  H24  1  0.73165317  0.62828570  0.59541234  1  0.111396  0  0.120659  0.093627  0  0.990392  0
H  H25  1  0.37171404  0.26834495  0.90458635  1  0.111237  0  0.120659  0.093608  0  0.990373  0
H  H26  1  0.26834714  0.37171671  0.40458332  1  0.111291  0  0.12065  0.093605  0  0.99043  0
H  H27  1  0.62828645  0.73165072  0.09541671  1  0.111485  0  0.120668  0.093596  0  0.990376  0
H  H28  1  0.12637501  0.98578148  0.02702617  1  0.023272  0  0.08474  0.113622  0  1.013163  0
H  H29  1  0.01421874  0.87362352  0.47297545  1  0.023384  0  0.084768  0.113668  0  1.013121  0
H  H30  1  0.87362537  0.01421947  0.97297584  1  0.023305  0  0.084743  0.113653  0  1.01314  0
H  H31  1  0.98578169  0.12637517  0.52702700  1  0.023336  0  0.084753  0.113674  0  1.01313  0
H  H32  1  0.25449525  0.92209537  0.94679172  1  0.014573  0  0.079785  0.105968  0  1.040731  0
H  H33  1  0.07790581  0.74550493  0.55320968  1  0.01456  0  0.079776  0.105941  0  1.040778  0
H  H34  1  0.74550597  0.07790522  0.05321019  1  0.01459  0  0.07978  0.105956  0  1.040753  0
H  H35  1  0.92209624  0.25449527  0.44679062  1  0.014573  0  0.079776  0.105963  0  1.040747  0
H  H36  1  0.12876247  0.93651522  0.91028460  1  0.002395  0  0.084229  0.112903  0  1.006805  0
H  H37  1  0.06348343  0.87123637  0.58971613  1  0.002207  0  0.08419  0.112857  0  1.006823  0
H  H38  1  0.87123796  0.06348346  0.08971710  1  0.0026  0  0.084207  0.112877  0  1.006883  0
H  H39  1  0.93651535  0.12876153  0.41028530  1  0.002612  0  0.084204  0.112896  0  1.006766  0
H  H40  1  0.23814074  0.24378955  0.65992865  1  0.14831  0  0.125972  0.10703  0  0.984423  0
H  H41  1  0.75621015  0.76186352  0.84007113  1  0.148556  0  0.125952  0.107076  0  0.984333  0
H  H42  1  0.76186720  0.75620657  0.34006977  1  0.148198  0  0.125945  0.107087  0  0.984293  0
H  H43  1  0.24379105  0.23813780  0.15992912  1  0.148515  0  0.125931  0.107018  0  0.984424  0
H  H44  1  0.09917211  0.58568794  0.67112415  1  0.109512  0  0.118477  0.095154  0  1.017386  0
H  H45  1  0.41430912  0.90082910  0.82888006  1  0.109502  0  0.11847  0.095147  0  1.017371  0
H  H46  1  0.90082919  0.41430733  0.32887427  1  0.109529  0  0.118503  0.095125  0  1.017423  0
H  H47  1  0.58568875  0.09917448  0.17112496  1  0.109519  0  0.118478  0.095146  0  1.017386  0
H  H48  1  0.16287794  0.23731646  0.90148684  1  0.06247  0  0.102471  0.125383  0  0.973537  0
H  H49  1  0.76268417  0.83711867  0.59851434  1  0.062484  0  0.102469  0.125385  0  0.973533  0
H  H50  1  0.83711993  0.76268481  0.09851258  1  0.062497  0  0.102478  0.1254  0  0.973543  0
H  H51  1  0.23731715  0.16287662  0.40148635  1  0.062456  0  0.102488  0.125408  0  0.973543  0
H  H52  1  0.18078886  0.14202620  0.01679380  1  0.061106  0  0.098654  0.126704  0  0.985878  0
H  H53  1  0.85797232  0.81920846  0.48320645  1  0.061179  0  0.098662  0.126721  0  0.985855  0
H  H54  1  0.81920983  0.85797546  0.98320613  1  0.061174  0  0.098655  0.12671  0  0.985853  0
H  H55  1  0.14202730  0.18078831  0.51679353  1  0.061165  0  0.098649  0.126707  0  0.985888  0
H  H56  1  0.87847226  0.28234639  0.63726789  1  0.139187  0  0.119529  0.095183  0  1.015018  0
H  H57  1  0.71765664  0.12152825  0.86273015  1  0.139005  0  0.119521  0.095149  0  1.014974  0
H  H58  1  0.12152726  0.71765490  0.36273043  1  0.139181  0  0.119533  0.095163  0  1.015025  0
H  H59  1  0.28234621  0.87847309  0.13726900  1  0.139212  0  0.119538  0.095212  0  1.015012  0
H  H60  1  0.28996138  0.57863755  0.65661967  1  0.119149  0  0.112996  0.122379  0  1.004893  0
H  H61  1  0.42136021  0.71003958  0.84338283  1  0.119146  0  0.11301  0.122361  0  1.004895  0
H  H62  1  0.71003908  0.42135886  0.34338096  1  0.119106  0  0.112978  0.122337  0  1.004877  0
H  H63  1  0.57863762  0.28996397  0.15661765  1  0.11918  0  0.11301  0.12237  0  1.004859  0
H  H64  1  0.43496789  0.22064532  0.65075784  1  0.177682  0  0.122572  0.154917  0  0.984606  0
H  H65  1  0.77935380  0.56503532  0.84923989  1  0.177726  0  0.122562  0.15493  0  0.984547  0
H  H66  1  0.56503754  0.77935191  0.34924163  1  0.177772  0  0.122542  0.154887  0  0.984592  0
H  H67  1  0.22064406  0.43496594  0.15075878  1  0.177683  0  0.122553  0.154892  0  0.984617  0
C  C68  1  0.14283294  0.09227932  0.88618468  1  0.045006  0  -0.087918  0.117607  0  3.848792  0
C  C69  1  0.90772003  0.85716450  0.61381501  1  0.045028  0  -0.087899  0.117644  0  3.848646  0
C  C70  1  0.85716747  0.90772011  0.11381611  1  0.044856  0  -0.087902  0.117615  0  3.84877  0
C  C71  1  0.09228128  0.14283002  0.38618356  1  0.044696  0  -0.087888  0.117646  0  3.848645  0
C  C72  1  0.70015473  0.35865430  0.62417202  1  0.020966  0  -0.072688  -0.184214  0  3.915201  0
C  C73  1  0.64134456  0.29984568  0.87582551  1  0.020431  0  -0.072651  -0.184161  0  3.915269  0
C  C74  1  0.29984225  0.64134959  0.37582705  1  0.020129  0  -0.072656  -0.184222  0  3.915257  0
C  C75  1  0.35865411  0.70015595  0.12417064  1  0.020848  0  -0.072678  -0.184191  0  3.915416  0
C  C76  1  0.37570198  0.39917711  0.64949123  1  0.263944  0  0.100178  0.182162  0  4.057428  0
C  C77  1  0.60082077  0.62429894  0.85050809  1  0.264042  0  0.100213  0.182204  0  4.057437  0
C  C78  1  0.62429926  0.60082119  0.35050810  1  0.264112  0  0.10019  0.182089  0  4.057433  0
C  C79  1  0.39917625  0.37570346  0.14949203  1  0.26394  0  0.100213  0.182197  0  4.057254  0
C  C80  1  0.01671241  0.17045719  0.88406928  1  -0.021966  0  -0.165785  -0.320177  0  3.895954  0
C  C81  1  0.82954097  0.98328622  0.61592975  1  -0.021868  0  -0.165792  -0.320108  0  3.895963  0
C  C82  1  0.98328886  0.82954036  0.11593096  1  -0.021835  0  -0.165787  -0.32018  0  3.895967  0
C  C83  1  0.17046034  0.01670906  0.38407019  1  -0.021957  0  -0.165748  -0.320117  0  3.895907  0
C  C84  1  0.61417934  0.56116490  0.60248513  1  -0.073544  0  -0.073683  -0.186962  0  3.924748  0
C  C85  1  0.43883483  0.38582175  0.89751374  1  -0.073608  0  -0.073709  -0.18689  0  3.924915  0
C  C86  1  0.38582095  0.43883903  0.39751174  1  -0.073686  0  -0.073708  -0.18692  0  3.924765  0
C  C87  1  0.56116473  0.61417881  0.10248776  1  -0.073565  0  -0.073714  -0.18688  0  3.924751  0
C  C88  1  0.71932703  0.55360623  0.60423100  1  0.529852  0  0.052368  0.104305  0  3.953502  0
C  C89  1  0.44639358  0.28067527  0.89576907  1  0.530035  0  0.052354  0.104289  0  3.953523  0
C  C90  1  0.28067334  0.44639547  0.39577086  1  0.529909  0  0.052379  0.10432  0  3.953586  0
C  C91  1  0.55360513  0.71932564  0.10423101  1  0.529731  0  0.052373  0.104328  0  3.95356  0
C  C92  1  0.60416700  0.46202765  0.61405313  1  0.328581  0  0.101025  0.192434  0  4.042419  0
C  C93  1  0.53797221  0.39583370  0.88594423  1  0.3286  0  0.100949  0.19219  0  4.042668  0
C  C94  1  0.39583162  0.53797625  0.38594257  1  0.328673  0  0.100978  0.19234  0  4.042534  0
C  C95  1  0.46202316  0.60416792  0.11405562  1  0.328688  0  0.100994  0.19233  0  4.042574  0
C  C96  1  0.16431455  0.97783746  0.94573545  1  -0.058934  0  -0.245306  -0.390188  0  3.936066  0
C  C97  1  0.02216123  0.83568361  0.55426541  1  -0.058846  0  -0.245268  -0.390161  0  3.936083  0
C  C98  1  0.83568586  0.02216197  0.05426610  1  -0.059208  0  -0.245288  -0.390205  0  3.93617  0
C  C99  1  0.97783839  0.16431393  0.44573593  1  -0.059232  0  -0.245286  -0.390263  0  3.936045  0
C  C100  1  0.25362757  0.31573046  0.65767676  1  0.481295  0  0.059601  0.114226  0  3.906205  0
C  C101  1  0.68426556  0.74637507  0.84232791  1  0.481079  0  0.059644  0.114237  0  3.906421  0
C  C102  1  0.74637795  0.68426301  0.34232496  1  0.481252  0  0.05972  0.114317  0  3.906354  0
C  C103  1  0.31573069  0.25362699  0.15767850  1  0.481089  0  0.05965  0.11425  0  3.906244  0
C  C104  1  0.17629261  0.50769989  0.66360685  1  0.492819  0  0.045369  0.097021  0  3.950193  0
C  C105  1  0.49229884  0.82370852  0.83639544  1  0.492728  0  0.045401  0.097091  0  3.950013  0
C  C106  1  0.82370950  0.49229653  0.33639193  1  0.492693  0  0.0454  0.097152  0  3.950029  0
C  C107  1  0.50770152  0.17629394  0.16360627  1  0.492798  0  0.045361  0.097047  0  3.950095  0
C  C108  1  0.99706777  0.27048331  0.80191576  1  1.530371  0  0.180311  0.604038  0  4.198325  0
C  C109  1  0.72951548  0.00292887  0.69808538  1  1.530468  0  0.180295  0.603968  0  4.198538  0
C  C110  1  0.00292936  0.72951381  0.19808541  1  1.530478  0  0.180285  0.604011  0  4.198585  0
C  C111  1  0.27048920  0.99706574  0.30191856  1  1.530211  0  0.180257  0.603944  0  4.198655  0
C  C112  1  0.19825082  0.14767944  0.93166497  1  -0.076459  0  -0.165543  -0.334948  0  3.870533  0
C  C113  1  0.85232162  0.80174617  0.56833447  1  -0.076553  0  -0.165556  -0.334983  0  3.870489  0
C  C114  1  0.80174872  0.85232187  0.06833562  1  -0.076541  0  -0.165553  -0.334972  0  3.870537  0
C  C115  1  0.14767968  0.19824987  0.43166532  1  -0.076503  0  -0.165552  -0.334983  0  3.870521  0
C  C116  1  0.80109424  0.35948306  0.62642161  1  0.451492  0  0.05054  0.09785  0  3.943594  0
C  C117  1  0.64051357  0.19890745  0.87358061  1  0.451839  0  0.050526  0.097874  0  3.943571  0
C  C118  1  0.19890450  0.64051558  0.37357741  1  0.451773  0  0.050548  0.097971  0  3.943678  0
C  C119  1  0.35948431  0.80109460  0.12642168  1  0.451412  0  0.050546  0.097843  0  3.943567  0
C  C120  1  0.28071021  0.50357016  0.65655549  1  -0.037917  0  -0.082225  -0.197085  0  3.953101  0
C  C121  1  0.49642963  0.71928921  0.84344764  1  -0.037855  0  -0.082239  -0.197084  0  3.953045  0
C  C122  1  0.71929025  0.49642702  0.34344651  1  -0.037773  0  -0.082231  -0.197076  0  3.952908  0
C  C123  1  0.50356827  0.28071208  0.15655556  1  -0.037969  0  -0.082263  -0.197106  0  3.953088  0
C  C124  1  0.32365615  0.09881329  0.90072370  1  1.538329  0  0.193692  0.61645  0  4.172211  0
C  C125  1  0.90118795  0.67634227  0.59927532  1  1.538189  0  0.193704  0.616471  0  4.172124  0
C  C126  1  0.67634339  0.90118801  0.09927689  1  1.538425  0  0.193688  0.616529  0  4.172186  0
C  C127  1  0.09881497  0.32365453  0.40072171  1  1.538395  0  0.193691  0.616405  0  4.17223  0
C  C128  1  0.36228266  0.30290929  0.65252499  1  -0.002244  0  -0.063223  -0.173266  0  3.861895  0
C  C129  1  0.69709064  0.63772038  0.84747344  1  -0.002331  0  -0.063238  -0.17331  0  3.86188  0
C  C130  1  0.63772358  0.69708908  0.34747483  1  -0.002309  0  -0.063221  -0.173248  0  3.861994  0
C  C131  1  0.30290804  0.36228204  0.15252634  1  -0.002182  0  -0.063206  -0.173231  0  3.861734  0
N  N132  1  0.81062563  0.45498214  0.61691811  1  -1.205005  0  -0.317308  -0.225568  0  3.480046  0
N  N133  1  0.54501335  0.18937841  0.88308087  1  -1.205183  0  -0.317308  -0.225565  0  3.480048  0
N  N134  1  0.18937476  0.54501651  0.38307905  1  -1.204974  0  -0.317327  -0.225678  0  3.480223  0
N  N135  1  0.45498617  0.81062365  0.11692033  1  -1.204957  0  -0.317325  -0.225595  0  3.47999  0
N  N136  1  0.16285640  0.41591646  0.66269956  1  -1.195259  0  -0.318425  -0.223722  0  3.474609  0
N  N137  1  0.58408345  0.83714549  0.83730230  1  -1.195242  0  -0.318448  -0.223815  0  3.474783  0
N  N138  1  0.83714739  0.58407923  0.33729979  1  -1.195242  0  -0.318504  -0.22388  0  3.47477  0
N  N139  1  0.41591612  0.16285584  0.16270207  1  -1.19521  0  -0.318414  -0.223747  0  3.474631  0
N  N140  1  0.49455556  0.47477936  0.61619857  1  -0.46914  0  -0.134429  -0.122723  0  3.265371  0
N  N141  1  0.52521682  0.50544938  0.88380101  1  -0.469289  0  -0.134309  -0.122477  0  3.265166  0
N  N142  1  0.50544400  0.52522119  0.38380292  1  -0.469733  0  -0.134375  -0.122665  0  3.265299  0
N  N143  1  0.47477847  0.49455600  0.11619658  1  -0.469727  0  -0.134397  -0.122707  0  3.26534  0
N  N144  1  0.48644754  0.38464260  0.64316572  1  -0.424432  0  -0.126912  -0.096994  0  3.234512  0
N  N145  1  0.61535509  0.51355380  0.85683425  1  -0.424348  0  -0.126958  -0.097098  0  3.234624  0
N  N146  1  0.51355286  0.61535759  0.35683568  1  -0.424466  0  -0.12694  -0.096966  0  3.234502  0
N  N147  1  0.38464026  0.48644933  0.14316606  1  -0.424539  0  -0.126939  -0.096989  0  3.234426  0
O  O148  1  0.03773841  0.24904875  0.70803178  1  -1.176335  0  -0.351734  -0.591461  0  2.170151  0
O  O149  1  0.75095343  0.96226274  0.79196671  1  -1.176344  0  -0.351725  -0.591411  0  2.17024  0
O  O150  1  0.96226112  0.75095254  0.29196729  1  -1.176344  0  -0.35174  -0.591452  0  2.170172  0
O  O151  1  0.24905373  0.03773227  0.20803589  1  -1.176226  0  -0.351727  -0.591492  0  2.17035  0
O  O152  1  0.94443777  0.36960086  0.82735356  1  -1.175838  0  -0.35268  -0.586159  0  2.116632  0
O  O153  1  0.63039901  0.05556348  0.67264498  1  -1.175867  0  -0.352663  -0.586126  0  2.116661  0
O  O154  1  0.05556341  0.63039968  0.17264305  1  -1.175907  0  -0.352633  -0.586104  0  2.116774  0
O  O155  1  0.36960485  0.94443228  0.32736268  1  -1.175732  0  -0.35264  -0.586058  0  2.116645  0
O  O156  1  0.36214880  0.09380518  0.80555825  1  -1.175568  0  -0.329288  -0.566377  0  2.14008  0
O  O157  1  0.90620172  0.63784672  0.69444094  1  -1.17557  0  -0.329316  -0.566418  0  2.140029  0
O  O158  1  0.63784989  0.90619724  0.19444228  1  -1.175587  0  -0.329277  -0.566415  0  2.140137  0
O  O159  1  0.09380463  0.36214484  0.30555645  1  -1.175633  0  -0.329349  -0.566381  0  2.14006  0
O  O160  1  0.38964007  0.06530193  0.97166464  1  -1.183652  0  -0.344921  -0.59115  0  2.339672  0
O  O161  1  0.93469725  0.61035730  0.52833648  1  -1.183559  0  -0.344921  -0.591162  0  2.339728  0
O  O162  1  0.61035864  0.93469974  0.02833680  1  -1.183719  0  -0.344921  -0.5912  0  2.339719  0
O  O163  1  0.06530319  0.38963985  0.47166173  1  -1.183657  0  -0.344886  -0.591123  0  2.33975  0
