# generated using pymatgen
data_CdH13C20NO7
_symmetry_space_group_name_H-M   'P 1'
_cell_length_a   6.56397161
_cell_length_b   9.87359686
_cell_length_c   13.61003998
_cell_angle_alpha   95.67314352
_cell_angle_beta   99.59710047
_cell_angle_gamma   90.55171215
_symmetry_Int_Tables_number   1
_chemical_formula_structural   CdH13C20NO7
_chemical_formula_sum   'Cd2 H26 C40 N2 O14'
_cell_volume   865.15546428
_cell_formula_units_Z   2
loop_
 _symmetry_equiv_pos_site_id
 _symmetry_equiv_pos_as_xyz
  1  'x, y, z'
loop_
 _atom_site_type_symbol
 _atom_site_label
 _atom_site_symmetry_multiplicity
 _atom_site_fract_x
 _atom_site_fract_y
 _atom_site_fract_z
 _atom_site_occupancy
 _atom_site_hle17_bader_spin_density
 _atom_site_hle17_ddec_charge
 _atom_site_hle17_ddec_spin_density
 _atom_site_hle17_ddec_sum_bond_order
 _atom_site_hle17_magmom
 _atom_site_hse06_10hf_bader_charge
 _atom_site_hse06_10hf_bader_spin_density
 _atom_site_hse06_10hf_ddec_charge
 _atom_site_hse06_10hf_ddec_spin_density
 _atom_site_hse06_10hf_ddec_sum_bond_order
 _atom_site_hse06_10hf_magmom
 _atom_site_hse06_bader_spin_density
 _atom_site_hse06_ddec_charge
 _atom_site_hse06_ddec_spin_density
 _atom_site_hse06_ddec_sum_bond_order
 _atom_site_hse06_magmom
 _atom_site_pbe_bader_spin_density
 _atom_site_pbe_cm5_charge
 _atom_site_pbe_ddec_charge
 _atom_site_pbe_ddec_spin_density
 _atom_site_pbe_ddec_sum_bond_order
 _atom_site_pbe_magmom
Cd  Cd0  1  0.21733823  0.47448516  0.60120593  1  0  1.181615  0  1.605883  0  1.328173  0  1.001668  0  2.040764  0  0  1.063714  0  1.984147  0  0  0.780752  0.95508  0  2.081128  0
Cd  Cd1  1  0.78261408  0.52553816  0.39879067  1  0  1.181618  0  1.605994  0  1.328215  0  1.001656  0  2.040862  0  0  1.063699  0  1.984263  0  0  0.780777  0.955067  0  2.081218  0
H  H2  1  0.21688212  0.99622516  0.58094507  1  0  0.125436  0  0.926895  0  0.149194  0  0.131293  0  0.989833  0  0  0.136651  0  0.985076  0  0  0.117363  0.128141  0  0.991644  0
H  H3  1  0.78311391  0.00381174  0.41905188  1  0  0.125427  0  0.926965  0  0.149128  0  0.131277  0  0.989934  0  0  0.13664  0  0.985191  0  0  0.117337  0.128143  0  0.991744  0
H  H4  1  0.60004910  0.60408987  0.64788812  1  0  0.434378  0  0.865063  0  0.643456  0  0.402547  0  0.930753  0  0  0.413473  0  0.91477  0  0  0.290164  0.394745  0  0.942076  0
H  H5  1  0.39993012  0.39591095  0.35209081  1  0  0.434401  0  0.865066  0  0.643432  0  0.402534  0  0.930784  0  0  0.413457  0  0.914807  0  0  0.290164  0.394741  0  0.94209  0
H  H6  1  0.50811486  0.62219797  0.74940691  1  0  0.424947  0  0.87468  0  0.647968  0  0.391926  0  0.942188  0  0  0.405316  0  0.92308  0  0  0.284301  0.383049  0  0.954901  0
H  H7  1  0.49193143  0.37777559  0.25059497  1  0  0.42478  0  0.874959  0  0.648042  0  0.391775  0  0.942416  0  0  0.405173  0  0.923298  0  0  0.284212  0.382904  0  0.955119  0
H  H8  1  0.22364281  0.03633147  0.97427853  1  0  0.103449  0  0.945362  0  0.105869  0  0.111986  0  1.007607  0  0  0.116892  0  1.005726  0  0  0.105755  0.108736  0  1.008714  0
H  H9  1  0.77645387  0.96364723  0.02572147  1  0  0.103668  0  0.945139  0  0.105535  0  0.112118  0  1.007473  0  0  0.116942  0  1.005703  0  0  0.105874  0.108876  0  1.008575  0
H  H10  1  0.96178654  0.66130512  0.73709204  1  0  0.096372  0  0.927504  0  0.157803  0  0.103914  0  0.990694  0  0  0.107611  0  0.986167  0  0  0.125044  0.101676  0  0.993375  0
H  H11  1  0.03822442  0.33872091  0.26292967  1  0  0.096394  0  0.927443  0  0.157747  0  0.103912  0  0.990713  0  0  0.10763  0  0.986157  0  0  0.125062  0.101675  0  0.99339  0
H  H12  1  0.17616573  0.30054664  0.95291939  1  0  0.107462  0  0.960679  0  0.081488  0  0.118439  0  1.020546  0  0  0.121268  0  1.020537  0  0  0.110298  0.116892  0  1.020082  0
H  H13  1  0.82379315  0.69944677  0.04708665  1  0  0.107402  0  0.960658  0  0.081435  0  0.118309  0  1.02063  0  0  0.121136  0  1.020627  0  0  0.11028  0.116763  0  1.020166  0
H  H14  1  0.39341547  0.68215335  0.20879087  1  0  0.110434  0  0.948133  0  0.103418  0  0.119883  0  1.01072  0  0  0.124528  0  1.006757  0  0  0.109353  0.116349  0  1.013673  0
H  H15  1  0.60655657  0.31783542  0.79122185  1  0  0.110386  0  0.948046  0  0.103513  0  0.119759  0  1.01072  0  0  0.124398  0  1.006781  0  0  0.109326  0.116273  0  1.013584  0
H  H16  1  0.17990666  0.08511146  0.15231132  1  0  0.107031  0  0.948808  0  0.074319  0  0.114632  0  1.013783  0  0  0.119703  0  1.009306  0  0  0.107983  0.11162  0  1.016575  0
H  H17  1  0.82019066  0.91489177  0.84767285  1  0  0.106988  0  0.948779  0  0.074003  0  0.11462  0  1.01373  0  0  0.119686  0  1.009277  0  0  0.107997  0.111623  0  1.016501  0
H  H18  1  0.43283626  0.63614472  0.03071518  1  0  0.103635  0  0.945032  0  0.115975  0  0.111243  0  1.0087  0  0  0.117361  0  1.004797  0  0  0.104538  0.107132  0  1.011821  0
H  H19  1  0.56713941  0.36382552  0.96930020  1  0  0.103637  0  0.945122  0  0.100003  0  0.111252  0  1.008742  0  0  0.117374  0  1.004834  0  0  0.104602  0.107145  0  1.011868  0
H  H20  1  0.31975376  0.13825636  0.30434303  1  0  0.116149  0  0.936203  0  0.116097  0  0.123336  0  1.001169  0  0  0.130437  0  0.993583  0  0  0.114868  0.118469  0  1.006516  0
H  H21  1  0.68022630  0.86175258  0.69564539  1  0  0.116178  0  0.93628  0  0.116205  0  0.123383  0  1.001182  0  0  0.130461  0  0.993659  0  0  0.114887  0.118518  0  1.006565  0
H  H22  1  0.23107170  0.70661859  0.32659159  1  0  0.116648  0  0.951229  0  0.143338  0  0.122227  0  1.019472  0  0  0.127882  0  1.01501  0  0  0.111597  0.117789  0  1.02296  0
H  H23  1  0.76890766  0.29338931  0.67341800  1  0  0.116746  0  0.951158  0  0.143355  0  0.122285  0  1.019423  0  0  0.127949  0  1.01494  0  0  0.111661  0.117839  0  1.022949  0
H  H24  1  0.86783818  0.68109149  0.90650827  1  0  0.113282  0  0.963619  0  0.119277  0  0.123652  0  1.023748  0  0  0.127229  0  1.022679  0  0  0.109994  0.121482  0  1.024379  0
H  H25  1  0.13220409  0.31893838  0.09352230  1  0  0.113274  0  0.963919  0  0.121153  0  0.123649  0  1.024032  0  0  0.127215  0  1.022997  0  0  0.110029  0.12149  0  1.024631  0
H  H26  1  0.23436934  0.29037065  0.77722503  1  0  0.088465  0  0.93842  0  0.115787  0  0.099281  0  0.997405  0  0  0.10058  0  0.997051  0  0  0.121127  0.098462  0  0.997604  0
H  H27  1  0.76559095  0.70963292  0.22277966  1  0  0.088299  0  0.938454  0  0.115783  0  0.099209  0  0.997338  0  0  0.100513  0  0.996974  0  0  0.121092  0.098395  0  0.997532  0
C  C28  1  0.28462970  0.22503460  0.49609911  1  0  0.630483  0  3.941688  0  1.605344  0  0.57859  0  4.233784  0  0  0.61126  0  4.231839  0  0  0.197032  0.556739  0  4.23358  0
C  C29  1  0.71533041  0.77497414  0.50388022  1  0  0.630339  0  3.941211  0  1.605067  0  0.578459  0  4.233438  0  0  0.611117  0  4.231499  0  0  0.197123  0.556617  0  4.23322  0
C  C30  1  0.26812231  0.08213879  0.44627964  1  0  -0.054563  0  3.725793  0  0.000311  0  -0.028631  0  3.964104  0  0  -0.039592  0  3.98455  0  0  -0.005728  -0.023455  0  3.952402  0
C  C31  1  0.73189600  0.91787882  0.55371490  1  0  -0.054386  0  3.724738  0  0.000386  0  -0.028693  0  3.963506  0  0  -0.039613  0  3.983957  0  0  -0.005754  -0.023502  0  3.951818  0
C  C32  1  0.22989154  0.97486899  0.50224853  1  0  -0.00655  0  3.599882  0  -0.073791  0  -0.045956  0  3.851072  0  0  -0.031299  0  3.858028  0  0  -0.041884  -0.054584  0  3.845883  0
C  C33  1  0.77008387  0.02515138  0.49773957  1  0  -0.006456  0  3.599959  0  -0.073525  0  -0.045812  0  3.851269  0  0  -0.031312  0  3.858356  0  0  -0.041792  -0.054603  0  3.846189  0
C  C34  1  0.18664178  0.72618317  0.51870215  1  0  0.621247  0  3.944095  0  1.602612  0  0.569287  0  4.23253  0  0  0.601824  0  4.237114  0  0  0.195143  0.546298  0  4.229104  0
C  C35  1  0.81331209  0.27382884  0.48129524  1  0  0.620974  0  3.944082  0  1.602903  0  0.568999  0  4.232562  0  0  0.601553  0  4.237161  0  0  0.195095  0.54602  0  4.229093  0
C  C36  1  0.27267510  0.91906003  0.30004305  1  0  0.079515  0  3.697724  0  0.018879  0  0.094298  0  3.935182  0  0  0.100785  0  3.945795  0  0  0.017052  0.087707  0  3.929182  0
C  C37  1  0.72731466  0.08093011  0.69995219  1  0  0.079391  0  3.69767  0  0.019077  0  0.094275  0  3.934974  0  0  0.100704  0  3.945684  0  0  0.017137  0.087625  0  3.929048  0
C  C38  1  0.21605540  0.84017207  0.45766625  1  0  -0.048011  0  3.737491  0  0.07967  0  -0.024257  0  3.976887  0  0  -0.030294  0  3.992835  0  0  -0.00967  -0.023861  0  3.969441  0
C  C39  1  0.78388154  0.15983962  0.54232451  1  0  -0.047983  0  3.738024  0  0.078669  0  -0.024213  0  3.977414  0  0  -0.030276  0  3.99343  0  0  -0.009723  -0.023809  0  3.969985  0
C  C40  1  0.01976465  0.49446151  0.94784553  1  0  0.087674  0  3.755353  0  -0.0883  0  0.09945  0  3.985571  0  0  0.102284  0  4.009378  0  0  0.013887  0.098408  0  3.968321  0
C  C41  1  0.98023886  0.50554236  0.05216879  1  0  0.087941  0  3.755455  0  -0.049714  0  0.099791  0  3.985627  0  0  0.10263  0  4.009435  0  0  0.013952  0.098746  0  3.968377  0
C  C42  1  0.24053804  0.81246079  0.35833846  1  0  -0.051834  0  3.597101  0  -0.049301  0  -0.089986  0  3.85058  0  0  -0.08552  0  3.859293  0  0  -0.055181  -0.090964  0  3.845355  0
C  C43  1  0.75941187  0.18755447  0.64164928  1  0  -0.051792  0  3.596897  0  -0.04907  0  -0.089803  0  3.850161  0  0  -0.085391  0  3.858968  0  0  -0.055223  -0.090859  0  3.844986  0
C  C44  1  0.28942052  0.88922576  0.19468917  1  0  0.092238  0  3.69915  0  -0.042773  0  0.103575  0  3.931406  0  0  0.108043  0  3.94495  0  0  0.020836  0.102656  0  3.920712  0
C  C45  1  0.71058665  0.11076878  0.80531525  1  0  0.092411  0  3.699092  0  -0.042525  0  0.103716  0  3.931341  0  0  0.108061  0  3.945018  0  0  0.020824  0.102648  0  3.920778  0
C  C46  1  0.33700951  0.83521081  0.99250399  1  0  -0.006534  0  3.683112  0  -0.084985  0  0.010049  0  3.920603  0  0  0.025514  0  3.924461  0  0  0.004972  0.002467  0  3.916342  0
C  C47  1  0.66304653  0.16475521  0.00750113  1  0  -0.00656  0  3.682977  0  -0.082387  0  0.010328  0  3.92026  0  0  0.025529  0  3.924317  0  0  0.004972  0.00252  0  3.916134  0
C  C48  1  0.35571201  0.76033769  0.15791597  1  0  -0.087675  0  3.676337  0  -0.081192  0  -0.109077  0  3.927043  0  0  -0.105636  0  3.939133  0  0  -0.073106  -0.10986  0  3.91766  0
C  C49  1  0.64426603  0.23964881  0.84209270  1  0  -0.087656  0  3.67596  0  -0.081008  0  -0.108919  0  3.926617  0  0  -0.105561  0  3.938821  0  0  -0.073046  -0.109768  0  3.917315  0
C  C50  1  0.28668947  0.05438422  0.34603397  1  0  -0.040936  0  3.577814  0  -0.024105  0  -0.078309  0  3.826333  0  0  -0.069007  0  3.8296  0  0  -0.051921  -0.085111  0  3.825897  0
C  C51  1  0.71329378  0.94562865  0.65397116  1  0  -0.041043  0  3.578062  0  -0.024071  0  -0.078301  0  3.826607  0  0  -0.069098  0  3.829941  0  0  -0.05202  -0.085196  0  3.826218  0
C  C52  1  0.23990889  0.98807194  0.12655800  1  0  -0.073905  0  3.672706  0  0.00872  0  -0.098509  0  3.928279  0  0  -0.092177  0  3.936056  0  0  -0.073109  -0.10448  0  3.922958  0
C  C53  1  0.76014157  0.01191985  0.87343821  1  0  -0.07411  0  3.673039  0  0.008575  0  -0.098696  0  3.928612  0  0  -0.092401  0  3.936436  0  0  -0.073314  -0.104712  0  3.923353  0
C  C54  1  0.26290385  0.96130382  0.02740747  1  0  -0.075598  0  3.725644  0  -0.000595  0  -0.099645  0  3.979871  0  0  -0.104269  0  3.992182  0  0  -0.078691  -0.095014  0  3.97008  0
C  C55  1  0.73716502  0.03867498  0.97258865  1  0  -0.0756  0  3.72552  0  0.00017  0  -0.099611  0  3.979723  0  0  -0.104192  0  3.992141  0  0  -0.078655  -0.095008  0  3.969989  0
C  C56  1  0.95572692  0.59425357  0.88364579  1  0  -0.138601  0  3.659149  0  0.056497  0  -0.157836  0  3.907068  0  0  -0.164953  0  3.925619  0  0  -0.073418  -0.152359  0  3.893425  0
C  C57  1  0.04430106  0.40575852  0.11636536  1  0  -0.138536  0  3.659397  0  0.055047  0  -0.157825  0  3.907422  0  0  -0.164958  0  3.92598  0  0  -0.073359  -0.152355  0  3.893791  0
C  C58  1  0.37890306  0.73416162  0.05871620  1  0  -0.079284  0  3.733462  0  0.019768  0  -0.102341  0  3.988195  0  0  -0.106298  0  3.999264  0  0  -0.08098  -0.101913  0  3.981575  0
C  C59  1  0.62108210  0.26582050  0.94129424  1  0  -0.079292  0  3.733065  0  0.03203  0  -0.102366  0  3.987665  0  0  -0.106329  0  3.998836  0  0  -0.081139  -0.101983  0  3.981135  0
C  C60  1  0.36196981  0.80737636  0.88482370  1  0  0.595987  0  3.999143  0  1.654043  0  0.545619  0  4.304742  0  0  0.57653  0  4.311627  0  0  0.198312  0.524182  0  4.30327  0
C  C61  1  0.63811907  0.19256790  0.11517829  1  0  0.596834  0  3.998404  0  1.655622  0  0.546208  0  4.304146  0  0  0.577266  0  4.311031  0  0  0.1986  0.524897  0  4.302683  0
C  C62  1  0.00185516  0.58263795  0.78717587  1  0  0.162734  0  3.671477  0  0.451746  0  0.127982  0  3.928746  0  0  0.139695  0  3.940225  0  0  0.060292  0.120031  0  3.919958  0
C  C63  1  0.99813926  0.41738979  0.21283497  1  0  0.16259  0  3.671567  0  0.450199  0  0.127776  0  3.928934  0  0  0.139485  0  3.940398  0  0  0.060197  0.119823  0  3.920145  0
C  C64  1  0.12243855  0.38272416  0.90833932  1  0  -0.157931  0  3.714978  0  -0.020245  0  -0.175323  0  3.961736  0  0  -0.184831  0  3.987168  0  0  -0.079634  -0.168557  0  3.943658  0
C  C65  1  0.87755472  0.61727296  0.09167584  1  0  -0.157917  0  3.714987  0  -0.019983  0  -0.175269  0  3.961812  0  0  -0.184779  0  3.987255  0  0  -0.079642  -0.168491  0  3.943717  0
C  C66  1  0.15829995  0.37668701  0.81050374  1  0  0.123823  0  3.716925  0  0.511952  0  0.095049  0  3.965424  0  0  0.100164  0  3.988643  0  0  0.04908  0.091213  0  3.949666  0
C  C67  1  0.84167702  0.62332610  0.18950528  1  0  0.124152  0  3.716653  0  0.511571  0  0.095265  0  3.9651  0  0  0.100374  0  3.988318  0  0  0.049189  0.091428  0  3.949334  0
N  N68  1  0.10251605  0.47614186  0.75132748  1  0  -0.328125  0  3.256432  0  -1.26976  0  -0.249306  0  3.522199  0  0  -0.269672  0  3.53885  0  0  -0.329078  -0.233866  0  3.509742  0
N  N69  1  0.89746154  0.52387634  0.24868417  1  0  -0.328247  0  3.256539  0  -1.26843  0  -0.249326  0  3.522358  0  0  -0.269695  0  3.539012  0  0  -0.32915  -0.233889  0  3.509898  0
O  O70  1  0.30812132  0.32423348  0.44619749  1  0  -0.637184  0  1.992685  0  -1.217355  0  -0.575056  0  2.226442  0  0  -0.599104  0  2.215527  0  0  -0.313917  -0.556206  0  2.233357  0
O  O71  1  0.69179115  0.67576290  0.55376066  1  0  -0.637157  0  1.99278  0  -1.216928  0  -0.574983  0  2.226526  0  0  -0.59905  0  2.215689  0  0  -0.314044  -0.556134  0  2.233454  0
O  O72  1  0.26598875  0.24144448  0.58877150  1  0  -0.641796  0  1.960094  0  -1.167934  0  -0.57818  0  2.203973  0  0  -0.61165  0  2.199417  0  0  -0.325758  -0.552431  0  2.204437  0
O  O73  1  0.73397505  0.75859068  0.41120343  1  0  -0.641818  0  1.959866  0  -1.168014  0  -0.578129  0  2.203662  0  0  -0.611654  0  2.199216  0  0  -0.325787  -0.55237  0  2.204078  0
O  O74  1  0.15206086  0.60497510  0.47179868  1  0  -0.681589  0  2.061628  0  -1.177325  0  -0.598418  0  2.318812  0  0  -0.638967  0  2.313352  0  0  -0.330677  -0.56728  0  2.321672  0
O  O75  1  0.84791949  0.39503789  0.52819960  1  0  -0.681431  0  2.061657  0  -1.17737  0  -0.598187  0  2.318764  0  0  -0.638797  0  2.313331  0  0  -0.330552  -0.567065  0  2.321601  0
O  O76  1  0.53453795  0.55303224  0.69444567  1  0  -0.841276  0  1.840766  0  -1.253317  0  -0.778278  0  2.033983  0  0  -0.804288  0  1.998131  0  0  -0.58595  -0.759773  0  2.058188  0
O  O77  1  0.46545674  0.44695672  0.30553302  1  0  -0.841174  0  1.841124  0  -1.253521  0  -0.778095  0  2.034436  0  0  -0.804117  0  1.998573  0  0  -0.585852  -0.759591  0  2.058627  0
O  O78  1  0.20142148  0.74838015  0.61193642  1  0  -0.566804  0  1.914288  0  -1.154219  0  -0.513969  0  2.142426  0  0  -0.553538  0  2.145878  0  0  -0.282219  -0.483554  0  2.137982  0
O  O79  1  0.79856364  0.25165515  0.38805432  1  0  -0.566681  0  1.914097  0  -1.154031  0  -0.513711  0  2.142186  0  0  -0.553475  0  2.145695  0  0  -0.282194  -0.48343  0  2.137752  0
O  O80  1  0.49806925  0.72399593  0.86245476  1  0  -0.60936  0  1.891404  0  -1.173435  0  -0.554768  0  2.112032  0  0  -0.59723  0  2.115626  0  0  -0.303501  -0.528775  0  2.111482  0
O  O81  1  0.50199354  0.27594018  0.13755320  1  0  -0.60964  0  1.890852  0  -1.172757  0  -0.554877  0  2.111496  0  0  -0.59763  0  2.115142  0  0  -0.303731  -0.529155  0  2.110979  0
O  O82  1  0.23899590  0.86799268  0.82317822  1  0  -0.495916  0  1.77569  0  -1.053202  0  -0.443122  0  1.976656  0  0  -0.490398  0  1.987546  0  0  -0.25534  -0.41741  0  1.97278  0
O  O83  1  0.76108963  0.13194968  0.17682334  1  0  -0.495881  0  1.775346  0  -1.053402  0  -0.442699  0  1.976316  0  0  -0.49069  0  1.987344  0  0  -0.255393  -0.417727  0  1.972612  0
