# generated using pymatgen
data_SrH22C16(N5O4)2
_symmetry_space_group_name_H-M   'P 1'
_cell_length_a   8.18202402
_cell_length_b   11.84106472
_cell_length_c   11.84037798
_cell_angle_alpha   87.81750157
_cell_angle_beta   87.81334596
_cell_angle_gamma   87.81735413
_symmetry_Int_Tables_number   1
_chemical_formula_structural   SrH22C16(N5O4)2
_chemical_formula_sum   'Sr2 H44 C32 N20 O16'
_cell_volume   1144.70380321
_cell_formula_units_Z   2
loop_
 _symmetry_equiv_pos_site_id
 _symmetry_equiv_pos_as_xyz
  1  'x, y, z'
loop_
 _atom_site_type_symbol
 _atom_site_label
 _atom_site_symmetry_multiplicity
 _atom_site_fract_x
 _atom_site_fract_y
 _atom_site_fract_z
 _atom_site_occupancy
 _atom_site_hle17_bader_spin_density
 _atom_site_hle17_ddec_charge
 _atom_site_hle17_ddec_spin_density
 _atom_site_hle17_ddec_sum_bond_order
 _atom_site_hle17_magmom
 _atom_site_hse06_10hf_bader_spin_density
 _atom_site_hse06_10hf_ddec_charge
 _atom_site_hse06_10hf_ddec_spin_density
 _atom_site_hse06_10hf_ddec_sum_bond_order
 _atom_site_hse06_10hf_magmom
 _atom_site_hse06_bader_spin_density
 _atom_site_hse06_ddec_charge
 _atom_site_hse06_ddec_spin_density
 _atom_site_hse06_ddec_sum_bond_order
 _atom_site_hse06_magmom
 _atom_site_pbe_bader_spin_density
 _atom_site_pbe_cm5_charge
 _atom_site_pbe_ddec_charge
 _atom_site_pbe_ddec_spin_density
 _atom_site_pbe_ddec_sum_bond_order
 _atom_site_pbe_magmom
Sr  Sr0  1  0.75000197  0.01846319  0.98153242  1  0  1.607085  0  1.04219  0  0  1.47204  0  1.393733  0  0  1.508311  0  1.349846  0  0  0.898818  1.445218  0  1.425  0
Sr  Sr1  1  0.24999789  0.98153878  0.01845987  1  0  1.607104  0  1.042141  0  0  1.472047  0  1.393711  0  0  1.508314  0  1.349822  0  0  0.898802  1.445227  0  1.424983  0
H  H2  1  0.57213700  0.25228253  0.31996077  1  0  0.107334  0  0.925191  0  0  0.115722  0  0.995033  0  0  0.117567  0  0.994482  0  0  0.116808  0.114408  0  0.995491  0
H  H3  1  0.92793944  0.68003090  0.74768088  1  0  0.107276  0  0.924927  0  0  0.11573  0  0.994742  0  0  0.117572  0  0.994205  0  0  0.116792  0.1144  0  0.995239  0
H  H4  1  0.42787605  0.74771676  0.68004245  1  0  0.107268  0  0.925348  0  0  0.115675  0  0.995146  0  0  0.117521  0  0.994598  0  0  0.11676  0.114364  0  0.995618  0
H  H5  1  0.07204651  0.31997130  0.25232678  1  0  0.107312  0  0.924971  0  0  0.115748  0  0.994774  0  0  0.117583  0  0.99424  0  0  0.116842  0.11442  0  0.995257  0
H  H6  1  0.52396617  0.13153164  0.40384486  1  0  0.102824  0  0.937644  0  0  0.108435  0  1.013504  0  0  0.110683  0  1.011588  0  0  0.115234  0.106808  0  1.014915  0
H  H7  1  0.97604546  0.59616315  0.86846318  1  0  0.102883  0  0.937479  0  0  0.108476  0  1.013403  0  0  0.110741  0  1.011471  0  0  0.115277  0.106829  0  1.014841  0
H  H8  1  0.47605920  0.86847001  0.59615305  1  0  0.102878  0  0.937338  0  0  0.108427  0  1.013282  0  0  0.110683  0  1.011356  0  0  0.115218  0.106807  0  1.014695  0
H  H9  1  0.02393941  0.40384242  0.13153676  1  0  0.102787  0  0.937417  0  0  0.108372  0  1.013381  0  0  0.110624  0  1.011453  0  0  0.115241  0.106748  0  1.014789  0
H  H10  1  0.79167925  0.35995294  0.35234565  1  0  0.09166  0  0.968383  0  0  0.09734  0  1.040264  0  0  0.099668  0  1.038638  0  0  0.115707  0.095611  0  1.04152  0
H  H11  1  0.70829863  0.64769677  0.64003457  1  0  0.091668  0  0.967971  0  0  0.097377  0  1.039831  0  0  0.099702  0  1.038188  0  0  0.115716  0.09564  0  1.041094  0
H  H12  1  0.20830721  0.64003908  0.64765397  1  0  0.091652  0  0.968394  0  0  0.097346  0  1.040229  0  0  0.099671  0  1.038599  0  0  0.115709  0.095602  0  1.041517  0
H  H13  1  0.29169379  0.35230446  0.35996208  1  0  0.091655  0  0.96801  0  0  0.097366  0  1.039859  0  0  0.099693  0  1.038226  0  0  0.11572  0.095636  0  1.041089  0
H  H14  1  0.97637949  0.42735481  0.48926672  1  0  0.104432  0  0.996743  0  0  0.111143  0  1.066723  0  0  0.114353  0  1.064616  0  0  0.104818  0.108871  0  1.06833  0
H  H15  1  0.52358626  0.51075873  0.57263981  1  0  0.104437  0  0.996642  0  0  0.111087  0  1.066756  0  0  0.114295  0  1.064654  0  0  0.104774  0.108802  0  1.068381  0
H  H16  1  0.02362356  0.57264548  0.51074335  1  0  0.104416  0  0.996803  0  0  0.111076  0  1.066871  0  0  0.114289  0  1.064763  0  0  0.104791  0.108797  0  1.068486  0
H  H17  1  0.47639882  0.48924175  0.42735779  1  0  0.104385  0  0.996706  0  0  0.111034  0  1.066821  0  0  0.114244  0  1.064709  0  0  0.104758  0.108753  0  1.068435  0
H  H18  1  0.86848142  0.12999372  0.70380794  1  0  0.106514  0  0.972045  0  0  0.119  0  1.03119  0  0  0.121947  0  1.030027  0  0  0.109703  0.116935  0  1.032105  0
H  H19  1  0.63158096  0.29620602  0.86996840  1  0  0.106397  0  0.972617  0  0  0.119004  0  1.031577  0  0  0.121871  0  1.030515  0  0  0.1096  0.116985  0  1.032434  0
H  H20  1  0.13154005  0.87000631  0.29619937  1  0  0.106498  0  0.972044  0  0  0.119066  0  1.031071  0  0  0.121947  0  1.029992  0  0  0.109693  0.116995  0  1.031994  0
H  H21  1  0.36840275  0.70379618  0.13003254  1  0  0.106438  0  0.972532  0  0  0.119062  0  1.031469  0  0  0.121926  0  1.030412  0  0  0.109638  0.117049  0  1.032307  0
H  H22  1  0.69419328  0.06973687  0.55606169  1  0  0.084343  0  0.94592  0  0  0.09209  0  1.015203  0  0  0.094652  0  1.01315  0  0  0.113012  0.090272  0  1.016645  0
H  H23  1  0.80586333  0.44393250  0.93021415  1  0  0.084289  0  0.946949  0  0  0.092159  0  1.016071  0  0  0.094692  0  1.01397  0  0  0.113128  0.090331  0  1.017499  0
H  H24  1  0.30582785  0.93025803  0.44392049  1  0  0.084333  0  0.946037  0  0  0.092136  0  1.015252  0  0  0.094691  0  1.013183  0  0  0.113096  0.090317  0  1.016694  0
H  H25  1  0.19411042  0.55607323  0.06978930  1  0  0.084132  0  0.946554  0  0  0.091967  0  1.015776  0  0  0.09451  0  1.01369  0  0  0.113073  0.090153  0  1.01719  0
H  H26  1  0.23573626  0.34327943  0.91367652  1  0  0.280746  0  0.91826  0  0  0.263872  0  0.978511  0  0  0.271206  0  0.973212  0  0  0.337784  0.258612  0  0.982516  0
H  H27  1  0.26426908  0.08633960  0.65672790  1  0  0.280651  0  0.918441  0  0  0.263857  0  0.978598  0  0  0.271212  0  0.973297  0  0  0.337648  0.258572  0  0.982621  0
H  H28  1  0.76424224  0.65672624  0.08633194  1  0  0.28049  0  0.918446  0  0  0.263822  0  0.978452  0  0  0.271166  0  0.973151  0  0  0.337741  0.258559  0  0.982458  0
H  H29  1  0.73573324  0.91364884  0.34327589  1  0  0.280532  0  0.918672  0  0  0.263904  0  0.978629  0  0  0.271265  0  0.973319  0  0  0.33767  0.258579  0  0.982712  0
H  H30  1  0.45233416  0.14673299  0.85633062  1  0  0.398273  0  0.919761  0  0  0.355872  0  1.003929  0  0  0.367736  0  0.9868  0  0  0.292242  0.347503  0  1.015984  0
H  H31  1  0.04769841  0.14368493  0.85327800  1  0  0.398328  0  0.919665  0  0  0.355951  0  1.003791  0  0  0.367824  0  0.986652  0  0  0.292235  0.347579  0  1.01585  0
H  H32  1  0.54766281  0.85327158  0.14367427  1  0  0.398335  0  0.919673  0  0  0.355942  0  1.003829  0  0  0.367811  0  0.986694  0  0  0.292268  0.347572  0  1.015884  0
H  H33  1  0.95231092  0.85632622  0.14671634  1  0  0.398349  0  0.919697  0  0  0.355956  0  1.003844  0  0  0.367823  0  0.986711  0  0  0.292276  0.347589  0  1.015896  0
H  H34  1  0.42919642  0.19194197  0.98143567  1  0  0.415518  0  0.897981  0  0  0.382064  0  0.966507  0  0  0.394258  0  0.948728  0  0  0.292901  0.373459  0  0.979031  0
H  H35  1  0.07081387  0.01858730  0.80806258  1  0  0.415605  0  0.897935  0  0  0.382152  0  0.966468  0  0  0.394342  0  0.948693  0  0  0.292906  0.373547  0  0.97899  0
H  H36  1  0.57080549  0.80806001  0.01857012  1  0  0.415598  0  0.897886  0  0  0.382136  0  0.966435  0  0  0.39433  0  0.948653  0  0  0.292918  0.373532  0  0.978956  0
H  H37  1  0.92919176  0.98141546  0.19194059  1  0  0.415444  0  0.898107  0  0  0.381983  0  0.966657  0  0  0.394181  0  0.948873  0  0  0.292794  0.373375  0  0.979183  0
H  H38  1  0.93212869  0.21504654  0.06002156  1  0  0.417875  0  0.891053  0  0  0.386598  0  0.956155  0  0  0.397343  0  0.940617  0  0  0.293327  0.379  0  0.967128  0
H  H39  1  0.56788693  0.94002228  0.78492533  1  0  0.417387  0  0.891695  0  0  0.386292  0  0.956541  0  0  0.397032  0  0.941009  0  0  0.293218  0.378698  0  0.96751  0
H  H40  1  0.06785679  0.78496149  0.93995546  1  0  0.418285  0  0.890567  0  0  0.386881  0  0.95581  0  0  0.397628  0  0.940265  0  0  0.293432  0.379283  0  0.96678  0
H  H41  1  0.43213731  0.05999286  0.21505769  1  0  0.417609  0  0.8914  0  0  0.386398  0  0.956391  0  0  0.397131  0  0.940873  0  0  0.293237  0.378799  0  0.967366  0
H  H42  1  0.74428309  0.24364273  0.08750972  1  0  0.422028  0  0.83407  0  0  0.405489  0  0.886832  0  0  0.41377  0  0.877488  0  0  0.320176  0.399554  0  0.893583  0
H  H43  1  0.75572505  0.91250273  0.75634876  1  0  0.42216  0  0.83396  0  0  0.405598  0  0.886764  0  0  0.413881  0  0.877412  0  0  0.320252  0.399659  0  0.893525  0
H  H44  1  0.25570031  0.75634759  0.91247058  1  0  0.422055  0  0.834123  0  0  0.405509  0  0.886909  0  0  0.413789  0  0.877565  0  0  0.320206  0.399569  0  0.893674  0
H  H45  1  0.24429542  0.08750826  0.24364123  1  0  0.422134  0  0.833956  0  0  0.405572  0  0.886752  0  0  0.413855  0  0.877402  0  0  0.320248  0.399634  0  0.893505  0
C  C46  1  0.70893893  0.09945635  0.27518845  1  0  0.665623  0  3.875091  0  0  0.613093  0  4.188457  0  0  0.645481  0  4.179934  0  0  0.213569  0.590957  0  4.193755  0
C  C47  1  0.79107796  0.72482970  0.90049919  1  0  0.665141  0  3.875947  0  0  0.612717  0  4.189173  0  0  0.645089  0  4.180685  0  0  0.213347  0.590598  0  4.194474  0
C  C48  1  0.29106918  0.90054807  0.72481209  1  0  0.665571  0  3.875219  0  0  0.613052  0  4.18861  0  0  0.645446  0  4.180081  0  0  0.213503  0.590924  0  4.193905  0
C  C49  1  0.20890066  0.27517427  0.09950680  1  0  0.665053  0  3.87598  0  0  0.612529  0  4.18931  0  0  0.644914  0  4.180788  0  0  0.213396  0.590397  0  4.194612  0
C  C50  1  0.62704290  0.17689739  0.36317739  1  0  -0.179418  0  3.687419  0  0  -0.241438  0  3.945705  0  0  -0.242101  0  3.953845  0  0  -0.057734  -0.240887  0  3.940094  0
C  C51  1  0.87299543  0.63684448  0.82309465  1  0  -0.179178  0  3.686524  0  0  -0.241349  0  3.944888  0  0  -0.242067  0  3.953136  0  0  -0.057715  -0.240778  0  3.939275  0
C  C52  1  0.37297268  0.82309595  0.63682858  1  0  -0.179216  0  3.686731  0  0  -0.241171  0  3.944895  0  0  -0.24187  0  3.953112  0  0  -0.057666  -0.240632  0  3.939301  0
C  C53  1  0.12700255  0.36316095  0.17691696  1  0  -0.179164  0  3.687035  0  0  -0.241271  0  3.945443  0  0  -0.241986  0  3.953709  0  0  -0.057624  -0.240724  0  3.939813  0
C  C54  1  0.81609164  0.31137456  0.43006592  1  0  0.022669  0  3.677401  0  0  -0.016739  0  3.939635  0  0  -0.011493  0  3.95852  0  0  0.016572  -0.02002  0  3.926751  0
C  C55  1  0.68393203  0.56995474  0.68863684  1  0  0.022643  0  3.675448  0  0  -0.016762  0  3.937639  0  0  -0.011333  0  3.956372  0  0  0.016857  -0.019965  0  3.924692  0
C  C56  1  0.18393596  0.68862792  0.56993868  1  0  0.022534  0  3.677404  0  0  -0.016728  0  3.939478  0  0  -0.011414  0  3.958306  0  0  0.016588  -0.019986  0  3.926631  0
C  C57  1  0.31607334  0.43004637  0.31137655  1  0  0.022619  0  3.675626  0  0  -0.016812  0  3.937852  0  0  -0.011474  0  3.956661  0  0  0.016751  -0.020066  0  3.924846  0
C  C58  1  0.91687445  0.34841178  0.50880028  1  0  -0.124617  0  3.770327  0  0  -0.149536  0  4.030818  0  0  -0.15402  0  4.054389  0  0  -0.089497  -0.14675  0  4.015048  0
C  C59  1  0.58310797  0.49118619  0.65158495  1  0  -0.124435  0  3.769168  0  0  -0.149338  0  4.029604  0  0  -0.153787  0  4.053037  0  0  -0.089302  -0.146548  0  4.013808  0
C  C60  1  0.08313398  0.65158417  0.49119722  1  0  -0.124349  0  3.770017  0  0  -0.149234  0  4.030422  0  0  -0.153708  0  4.053939  0  0  -0.0893  -0.146457  0  4.014683  0
C  C61  1  0.41687734  0.50879993  0.34841746  1  0  -0.124446  0  3.76962  0  0  -0.149309  0  4.03011  0  0  -0.153766  0  4.053601  0  0  -0.089248  -0.146525  0  4.014243  0
C  C62  1  0.94124120  0.28699197  0.61301406  1  0  -0.019065  0  3.809029  0  0  -0.008102  0  4.055985  0  0  -0.011381  0  4.081559  0  0  -0.029513  -0.005613  0  4.038453  0
C  C63  1  0.55882100  0.38698055  0.71300473  1  0  -0.018811  0  3.809876  0  0  -0.007849  0  4.056778  0  0  -0.010717  0  4.081974  0  0  -0.029507  -0.005173  0  4.03911  0
C  C64  1  0.05877551  0.71300390  0.38699264  1  0  -0.019347  0  3.80969  0  0  -0.008031  0  4.056364  0  0  -0.011178  0  4.081812  0  0  -0.029441  -0.005496  0  4.038827  0
C  C65  1  0.44118237  0.61301127  0.28700229  1  0  -0.018372  0  3.809269  0  0  -0.007653  0  4.056468  0  0  -0.010702  0  4.081814  0  0  -0.02961  -0.005098  0  4.038805  0
C  C66  1  0.85839483  0.18301791  0.62727675  1  0  -0.138548  0  3.753113  0  0  -0.162871  0  4.014925  0  0  -0.167601  0  4.037332  0  0  -0.094946  -0.159829  0  3.999724  0
C  C67  1  0.64165381  0.37270536  0.81695445  1  0  -0.138695  0  3.752958  0  0  -0.163122  0  4.014861  0  0  -0.167749  0  4.037118  0  0  -0.094858  -0.160113  0  3.999623  0
C  C68  1  0.14160422  0.81696801  0.37271621  1  0  -0.138629  0  3.752691  0  0  -0.162946  0  4.014422  0  0  -0.167609  0  4.036788  0  0  -0.094925  -0.15991  0  3.999256  0
C  C69  1  0.35833730  0.62728831  0.18305180  1  0  -0.138885  0  3.75338  0  0  -0.163265  0  4.015302  0  0  -0.167924  0  4.037661  0  0  -0.094857  -0.160271  0  4.000001  0
C  C70  1  0.75957708  0.14803200  0.54610628  1  0  0.051716  0  3.68044  0  0  0.005237  0  3.951347  0  0  0.012412  0  3.968649  0  0  0.020587  0.000618  0  3.939418  0
C  C71  1  0.74049847  0.45389174  0.85195446  1  0  0.051752  0  3.681034  0  0  0.005062  0  3.952169  0  0  0.012476  0  3.96921  0  0  0.020661  0.000513  0  3.94021  0
C  C72  1  0.24044586  0.85196124  0.45389876  1  0  0.051703  0  3.680008  0  0  0.005258  0  3.950917  0  0  0.012512  0  3.968125  0  0  0.020591  0.000647  0  3.93901  0
C  C73  1  0.25950066  0.54611537  0.14805791  1  0  0.05183  0  3.680623  0  0  0.005154  0  3.951758  0  0  0.012477  0  3.968881  0  0  0.020541  0.000552  0  3.939765  0
C  C74  1  0.03513741  0.33238474  0.69799055  1  0  0.231487  0  3.795428  0  0  0.209167  0  4.076896  0  0  0.217883  0  4.09602  0  0  0.19399  0.203317  0  4.063996  0
C  C75  1  0.46489232  0.30202213  0.66759753  1  0  0.231234  0  3.795587  0  0  0.208854  0  4.077158  0  0  0.217626  0  4.096135  0  0  0.194048  0.203034  0  4.064208  0
C  C76  1  0.96485969  0.66762067  0.30200924  1  0  0.231368  0  3.795335  0  0  0.209129  0  4.076673  0  0  0.217851  0  4.095748  0  0  0.194034  0.203282  0  4.063787  0
C  C77  1  0.53509160  0.69797330  0.33240198  1  0  0.231085  0  3.795667  0  0  0.208687  0  4.077348  0  0  0.217437  0  4.096391  0  0  0.193914  0.202849  0  4.064346  0
N  N78  1  0.08271131  0.27899071  0.79627414  1  0  -0.305142  0  2.942939  0  0  -0.274016  0  3.212303  0  0  -0.283576  0  3.225618  0  0  -0.211177  -0.26759  0  3.20358  0
N  N79  1  0.41731970  0.20374587  0.72099045  1  0  -0.304864  0  2.943098  0  0  -0.273791  0  3.212528  0  0  -0.283147  0  3.22575  0  0  -0.210999  -0.267302  0  3.203765  0
N  N80  1  0.91729238  0.72100613  0.20371747  1  0  -0.305271  0  2.94297  0  0  -0.273887  0  3.212309  0  0  -0.283382  0  3.225595  0  0  -0.211175  -0.267452  0  3.203582  0
N  N81  1  0.58266869  0.79625461  0.27901895  1  0  -0.305018  0  2.942928  0  0  -0.273989  0  3.212398  0  0  -0.283436  0  3.225664  0  0  -0.211077  -0.267556  0  3.203622  0
N  N82  1  0.17472031  0.45478806  0.78229191  1  0  -0.069463  0  2.961097  0  0  -0.0749  0  3.263595  0  0  -0.067294  0  3.270543  0  0  -0.089991  -0.07967  0  3.258918  0
N  N83  1  0.32530225  0.21771456  0.54520034  1  0  -0.069444  0  2.960459  0  0  -0.074937  0  3.262918  0  0  -0.067335  0  3.269849  0  0  -0.090031  -0.07974  0  3.258248  0
N  N84  1  0.82526952  0.54521068  0.21771162  1  0  -0.069589  0  2.960198  0  0  -0.075025  0  3.262705  0  0  -0.067421  0  3.269636  0  0  -0.090095  -0.07981  0  3.258042  0
N  N85  1  0.67469519  0.78228153  0.45479645  1  0  -0.06983  0  2.960813  0  0  -0.075337  0  3.263355  0  0  -0.067733  0  3.270303  0  0  -0.090269  -0.080123  0  3.258658  0
N  N86  1  0.16493266  0.35916142  0.84428372  1  0  -0.06103  0  3.538807  0  0  -0.014711  0  3.801713  0  0  -0.022586  0  3.817775  0  0  -0.160013  -0.009702  0  3.791121  0
N  N87  1  0.33510608  0.15572728  0.64084678  1  0  -0.06088  0  3.53891  0  0  -0.014493  0  3.801476  0  0  -0.02234  0  3.817506  0  0  -0.159706  -0.009424  0  3.790851  0
N  N88  1  0.83508750  0.64085381  0.15571286  1  0  -0.060765  0  3.538503  0  0  -0.014567  0  3.80131  0  0  -0.022435  0  3.817356  0  0  -0.159861  -0.00956  0  3.790722  0
N  N89  1  0.66489429  0.84427728  0.35916737  1  0  -0.060506  0  3.539031  0  0  -0.014242  0  3.801462  0  0  -0.022121  0  3.817512  0  0  -0.159623  -0.009162  0  3.790854  0
N  N90  1  0.09335609  0.44113576  0.69082088  1  0  -0.258986  0  2.90977  0  0  -0.239372  0  3.208257  0  0  -0.247727  0  3.219681  0  0  -0.194073  -0.233801  0  3.200717  0
N  N91  1  0.40667286  0.30918435  0.55885258  1  0  -0.258758  0  2.910057  0  0  -0.239146  0  3.208565  0  0  -0.247442  0  3.219942  0  0  -0.194057  -0.233567  0  3.201022  0
N  N92  1  0.90663955  0.55887222  0.30918474  1  0  -0.258834  0  2.90974  0  0  -0.239193  0  3.20818  0  0  -0.247516  0  3.21958  0  0  -0.193947  -0.233632  0  3.200649  0
N  N93  1  0.59332445  0.69081091  0.44114931  1  0  -0.258601  0  2.909783  0  0  -0.238954  0  3.208261  0  0  -0.247272  0  3.219659  0  0  -0.193956  -0.233383  0  3.200709  0
N  N94  1  0.73353143  0.21212878  0.44825533  1  0  -0.040732  0  3.580839  0  0  0.051814  0  3.793022  0  0  0.035711  0  3.821971  0  0  -0.252533  0.062624  0  3.773144  0
N  N95  1  0.76649584  0.55173170  0.78787369  1  0  -0.04056  0  3.581036  0  0  0.052016  0  3.79331  0  0  0.036148  0  3.822104  0  0  -0.25254  0.062981  0  3.773286  0
N  N96  1  0.26646902  0.78785121  0.55173700  1  0  -0.041082  0  3.581233  0  0  0.051748  0  3.793248  0  0  0.035711  0  3.822154  0  0  -0.252391  0.062605  0  3.773359  0
N  N97  1  0.23348304  0.44825792  0.21213626  1  0  -0.04035  0  3.580391  0  0  0.052111  0  3.792763  0  0  0.03613  0  3.821623  0  0  -0.25272  0.062965  0  3.772787  0
O  O98  1  0.63014141  0.08817974  0.18532571  1  0  -0.710372  0  1.997979  0  0  -0.64426  0  2.230413  0  0  -0.670558  0  2.219771  0  0  -0.345084  -0.62576  0  2.237291  0
O  O99  1  0.86987981  0.81469432  0.91175426  1  0  -0.710246  0  1.997695  0  0  -0.644123  0  2.230083  0  0  -0.670405  0  2.219453  0  0  -0.344948  -0.625627  0  2.236936  0
O  O100  1  0.36988994  0.91184124  0.81465951  1  0  -0.71029  0  1.99795  0  0  -0.644255  0  2.230444  0  0  -0.670553  0  2.219801  0  0  -0.345053  -0.625757  0  2.237317  0
O  O101  1  0.13009918  0.18530877  0.08823994  1  0  -0.710169  0  1.997872  0  0  -0.644043  0  2.230251  0  0  -0.670335  0  2.219614  0  0  -0.345001  -0.625549  0  2.237121  0
O  O102  1  0.84318623  0.04821830  0.29802215  1  0  -0.609873  0  1.947901  0  0  -0.557299  0  2.16401  0  0  -0.57975  0  2.153179  0  0  -0.309841  -0.541737  0  2.171132  0
O  O103  1  0.65683744  0.70201519  0.95173320  1  0  -0.609775  0  1.948618  0  0  -0.557085  0  2.164516  0  0  -0.579522  0  2.153713  0  0  -0.309774  -0.541533  0  2.171598  0
O  O104  1  0.15681382  0.95176341  0.70198195  1  0  -0.609886  0  1.947954  0  0  -0.557233  0  2.164  0  0  -0.579671  0  2.153171  0  0  -0.309791  -0.541706  0  2.171162  0
O  O105  1  0.34315214  0.29798865  0.04827436  1  0  -0.609803  0  1.948333  0  0  -0.557002  0  2.164228  0  0  -0.57943  0  2.153393  0  0  -0.309801  -0.541451  0  2.171326  0
O  O106  1  0.46931880  0.12344933  0.93824989  1  0  -0.937453  0  1.868947  0  0  -0.870782  0  2.07429  0  0  -0.893027  0  2.040239  0  0  -0.656096  -0.854861  0  2.097991  0
O  O107  1  0.03070403  0.06175034  0.87655687  1  0  -0.937699  0  1.869067  0  0  -0.870997  0  2.074369  0  0  -0.893256  0  2.040313  0  0  -0.656165  -0.855061  0  2.098058  0
O  O108  1  0.53068194  0.87655434  0.06175246  1  0  -0.937581  0  1.868873  0  0  -0.870913  0  2.074208  0  0  -0.893156  0  2.040145  0  0  -0.656146  -0.85499  0  2.097912  0
O  O109  1  0.96930244  0.93823548  0.12343347  1  0  -0.937575  0  1.869173  0  0  -0.870869  0  2.07451  0  0  -0.893124  0  2.040449  0  0  -0.656063  -0.854936  0  2.098201  0
O  O110  1  0.82187045  0.22402778  0.02630973  1  0  -0.851943  0  1.79588  0  0  -0.799362  0  1.966564  0  0  -0.818801  0  1.941463  0  0  -0.615835  -0.785559  0  1.984183  0
O  O111  1  0.67815586  0.97370668  0.77594835  1  0  -0.851751  0  1.796474  0  0  -0.799248  0  1.966851  0  0  -0.818689  0  1.941765  0  0  -0.615829  -0.785431  0  1.984447  0
O  O112  1  0.17811624  0.77598277  0.97366549  1  0  -0.852312  0  1.79551  0  0  -0.799617  0  1.96645  0  0  -0.81905  0  1.941342  0  0  -0.61595  -0.78582  0  1.98408  0
O  O113  1  0.32186477  0.02629924  0.22404100  1  0  -0.85182  0  1.796091  0  0  -0.799229  0  1.96669  0  0  -0.818666  0  1.941606  0  0  -0.615799  -0.785421  0  1.984305  0
