# generated using pymatgen
data_NaH11C7SO8
_symmetry_space_group_name_H-M   'P 1'
_cell_length_a   5.48329847
_cell_length_b   7.80474275
_cell_length_c   12.77228292
_cell_angle_alpha   88.38183668
_cell_angle_beta   78.53042410
_cell_angle_gamma   83.63437970
_symmetry_Int_Tables_number   1
_chemical_formula_structural   NaH11C7SO8
_chemical_formula_sum   'Na2 H22 C14 S2 O16'
_cell_volume   532.37042213
_cell_formula_units_Z   2
loop_
 _symmetry_equiv_pos_site_id
 _symmetry_equiv_pos_as_xyz
  1  'x, y, z'
loop_
 _atom_site_type_symbol
 _atom_site_label
 _atom_site_symmetry_multiplicity
 _atom_site_fract_x
 _atom_site_fract_y
 _atom_site_fract_z
 _atom_site_occupancy
 _atom_site_hle17_bader_spin_density
 _atom_site_hle17_ddec_charge
 _atom_site_hle17_ddec_spin_density
 _atom_site_hle17_ddec_sum_bond_order
 _atom_site_hle17_magmom
 _atom_site_hse06_10hf_bader_charge
 _atom_site_hse06_10hf_bader_spin_density
 _atom_site_hse06_10hf_ddec_charge
 _atom_site_hse06_10hf_ddec_spin_density
 _atom_site_hse06_10hf_ddec_sum_bond_order
 _atom_site_hse06_10hf_magmom
 _atom_site_hse06_bader_spin_density
 _atom_site_hse06_ddec_charge
 _atom_site_hse06_ddec_spin_density
 _atom_site_hse06_ddec_sum_bond_order
 _atom_site_hse06_magmom
 _atom_site_pbe_bader_spin_density
 _atom_site_pbe_cm5_charge
 _atom_site_pbe_ddec_charge
 _atom_site_pbe_ddec_spin_density
 _atom_site_pbe_ddec_sum_bond_order
 _atom_site_pbe_magmom
Na  Na0  1  0.60785444  0.73927077  0.83871574  1  0  0.907244  0  0.377438  0  0.894412  0  0.868186  0  0.52729  0  0  0.877671  0  0.505954  0  0  0.668776  0.861136  0  0.542631  0
Na  Na1  1  0.39214391  0.26072790  0.16128650  1  0  0.907224  0  0.377459  0  0.894396  0  0.868202  0  0.527289  0  0  0.877673  0  0.505954  0  0  0.6688  0.861163  0  0.542626  0
H  H2  1  0.72936925  0.09511621  0.32241963  1  0  0.412352  0  0.874628  0  0.67428  0  0.383217  0  0.947325  0  0  0.395722  0  0.934194  0  0  0.304598  0.374446  0  0.95643  0
H  H3  1  0.27061553  0.90488497  0.67758676  1  0  0.412291  0  0.874723  0  0.674058  0  0.38315  0  0.947449  0  0  0.395658  0  0.934314  0  0  0.304562  0.374379  0  0.956552  0
H  H4  1  0.76790169  0.04394133  0.94896755  1  0  0.423098  0  0.878229  0  0.669952  0  0.393135  0  0.94107  0  0  0.403434  0  0.925906  0  0  0.290971  0.385842  0  0.9518  0
H  H5  1  0.23210601  0.95605739  0.05103239  1  0  0.423075  0  0.878267  0  0.669937  0  0.393145  0  0.941063  0  0  0.403444  0  0.925899  0  0  0.290966  0.385858  0  0.951782  0
H  H6  1  0.85512272  0.86042293  0.99298476  1  0  0.425209  0  0.857878  0  0.644144  0  0.397967  0  0.922473  0  0  0.407064  0  0.909124  0  0  0.305835  0.391491  0  0.931985  0
H  H7  1  0.14488316  0.13957579  0.00701454  1  0  0.425171  0  0.857961  0  0.644118  0  0.397976  0  0.922477  0  0  0.407045  0  0.909157  0  0  0.305833  0.391509  0  0.93198  0
H  H8  1  0.50554923  0.72776280  0.06145889  1  0  0.412873  0  0.895743  0  0.640676  0  0.381961  0  0.960788  0  0  0.391927  0  0.945963  0  0  0.29344  0.37493  0  0.971241  0
H  H9  1  0.49446012  0.27223721  0.93854091  1  0  0.412913  0  0.895694  0  0.640713  0  0.382009  0  0.960723  0  0  0.391972  0  0.945904  0  0  0.293455  0.374985  0  0.971166  0
H  H10  1  0.26034330  0.65314137  0.04792328  1  0  0.42443  0  0.876388  0  0.659  0  0.395421  0  0.937393  0  0  0.405249  0  0.922873  0  0  0.296571  0.38845  0  0.947666  0
H  H11  1  0.73966836  0.34685607  0.95207559  1  0  0.424392  0  0.876431  0  0.65899  0  0.395369  0  0.937457  0  0  0.405198  0  0.922937  0  0  0.296549  0.3884  0  0.947729  0
H  H12  1  0.12059973  0.92196373  0.83842102  1  0  0.430256  0  0.869423  0  0.668368  0  0.400137  0  0.932138  0  0  0.410766  0  0.916564  0  0  0.296637  0.392587  0  0.943204  0
H  H13  1  0.87940033  0.07803626  0.16157950  1  0  0.430265  0  0.869411  0  0.668295  0  0.400151  0  0.93212  0  0  0.410779  0  0.916548  0  0  0.296636  0.392599  0  0.943192  0
H  H14  1  0.29384171  0.06780970  0.80805082  1  0  0.418986  0  0.883914  0  0.660882  0  0.389173  0  0.945497  0  0  0.398433  0  0.932091  0  0  0.295222  0.382688  0  0.954867  0
H  H15  1  0.70616045  0.93218901  0.19194877  1  0  0.419  0  0.883887  0  0.660681  0  0.38919  0  0.945467  0  0  0.398452  0  0.932056  0  0  0.295231  0.382704  0  0.954834  0
H  H16  1  0.75479063  0.24343123  0.76945601  1  0  0.10271  0  0.961031  0  0.095612  0  0.111118  0  1.024473  0  0  0.114812  0  1.022047  0  0  0.109967  0.1084  0  1.026396  0
H  H17  1  0.24521701  0.75656747  0.23054551  1  0  0.102671  0  0.961043  0  0.095622  0  0.1111  0  1.024463  0  0  0.114794  0  1.022037  0  0  0.109947  0.108382  0  1.026388  0
H  H18  1  0.67484699  0.14149351  0.59763718  1  0  0.111132  0  0.936122  0  0.116993  0  0.122744  0  0.991948  0  0  0.125797  0  0.990727  0  0  0.112169  0.120544  0  0.992934  0
H  H19  1  0.32514497  0.85851031  0.40236470  1  0  0.111069  0  0.936185  0  0.117038  0  0.122706  0  0.991978  0  0  0.125757  0  0.990761  0  0  0.112154  0.120507  0  0.992962  0
H  H20  1  0.33427717  0.34933209  0.42740287  1  0  0.103918  0  0.958874  0  0.116228  0  0.111166  0  1.024604  0  0  0.115226  0  1.021244  0  0  0.111321  0.108227  0  1.027148  0
H  H21  1  0.66570668  0.65067691  0.57259567  1  0  0.103933  0  0.958841  0  0.1162  0  0.111179  0  1.024559  0  0  0.115241  0  1.021195  0  0  0.111335  0.108239  0  1.027093  0
H  H22  1  0.41531653  0.45582744  0.60011574  1  0  0.101837  0  0.97182  0  0.072204  0  0.110606  0  1.036404  0  0  0.113173  0  1.035971  0  0  0.107305  0.108766  0  1.036817  0
H  H23  1  0.58468327  0.54417517  0.39988086  1  0  0.101837  0  0.971841  0  0.072171  0  0.110604  0  1.036414  0  0  0.113178  0  1.035973  0  0  0.107312  0.108764  0  1.036832  0
C  C24  1  0.09011809  0.35614000  0.69393003  1  0  -0.114532  0  3.730145  0  -0.174087  0  -0.090414  0  3.977498  0  0  -0.095205  0  3.998616  0  0  -0.012422  -0.087261  0  3.963351  0
C  C25  1  0.90988611  0.64385742  0.30607020  1  0  -0.114493  0  3.730054  0  -0.174062  0  -0.090392  0  3.977433  0  0  -0.095185  0  3.998555  0  0  -0.012441  -0.087257  0  3.963317  0
C  C26  1  0.88138337  0.26744829  0.69470667  1  0  -0.060082  0  3.717919  0  -0.034085  0  -0.085405  0  3.97376  0  0  -0.085795  0  3.991901  0  0  -0.079691  -0.085182  0  3.961644  0
C  C27  1  0.11862076  0.73254911  0.30529513  1  0  -0.060098  0  3.717938  0  -0.034126  0  -0.085433  0  3.9738  0  0  -0.085825  0  3.991948  0  0  -0.07968  -0.085202  0  3.961687  0
C  C28  1  0.83607637  0.21088341  0.59859692  1  0  -0.054393  0  3.696224  0  -0.009343  0  -0.078917  0  3.94862  0  0  -0.078916  0  3.967754  0  0  -0.07464  -0.078804  0  3.93567  0
C  C29  1  0.16392510  0.78911915  0.40140424  1  0  -0.054293  0  3.696286  0  -0.009514  0  -0.078845  0  3.948665  0  0  -0.078848  0  3.967799  0  0  -0.074636  -0.078717  0  3.93573  0
C  C30  1  0.99940447  0.24210004  0.50233701  1  0  -0.07004  0  3.750303  0  -0.041228  0  -0.047767  0  3.981504  0  0  -0.055254  0  4.004528  0  0  -0.012046  -0.042942  0  3.966059  0
C  C31  1  0.00058798  0.75790122  0.49766330  1  0  -0.070193  0  3.750253  0  -0.041157  0  -0.047834  0  3.9814  0  0  -0.055309  0  4.004403  0  0  -0.012057  -0.043059  0  3.966018  0
C  C32  1  0.20950240  0.32814041  0.50308368  1  0  -0.042546  0  3.708141  0  0.018439  0  -0.06814  0  3.958817  0  0  -0.06778  0  3.977796  0  0  -0.071347  -0.06826  0  3.946004  0
C  C33  1  0.79048786  0.67186345  0.49691443  1  0  -0.042459  0  3.708064  0  0.018508  0  -0.068046  0  3.95869  0  0  -0.067685  0  3.977666  0  0  -0.071286  -0.068141  0  3.945872  0
C  C34  1  0.25496658  0.38631726  0.59852371  1  0  -0.076669  0  3.753633  0  -0.020839  0  -0.099958  0  4.004836  0  0  -0.102108  0  4.026512  0  0  -0.083972  -0.098508  0  3.990203  0
C  C35  1  0.74503126  0.61368531  0.40147538  1  0  -0.076694  0  3.753724  0  -0.020807  0  -0.099979  0  4.00494  0  0  -0.102137  0  4.026615  0  0  -0.083998  -0.098528  0  3.990313  0
C  C36  1  0.95765021  0.18912122  0.39669603  1  0  0.660481  0  3.837163  0  1.586273  0  0.61165  0  4.136098  0  0  0.643966  0  4.128543  0  0  0.23378  0.58974  0  4.140736  0
C  C37  1  0.04233073  0.81088127  0.60330829  1  0  0.660639  0  3.837135  0  1.586352  0  0.611717  0  4.136209  0  0  0.644028  0  4.128647  0  0  0.233739  0.589814  0  4.14085  0
S  S38  1  0.15272557  0.42919834  0.81611334  1  0  1.333336  0  5.586262  0  3.212337  0  1.233386  0  6.104861  0  0  1.280391  0  6.081283  0  0  0.534931  1.200977  0  6.1201  0
S  S39  1  0.84728062  0.57079912  0.18388360  1  0  1.333154  0  5.586405  0  3.212264  0  1.233242  0  6.104977  0  0  1.280253  0  6.081392  0  0  0.534843  1.200839  0  6.120202  0
O  O40  1  0.91215545  0.50524335  0.87890444  1  0  -0.697507  0  1.97227  0  -1.368718  0  -0.646841  0  2.224757  0  0  -0.666761  0  2.208453  0  0  -0.36755  -0.63275  0  2.235482  0
O  O41  1  0.08786000  0.49475412  0.12109257  1  0  -0.697319  0  1.972287  0  -1.368364  0  -0.64673  0  2.224813  0  0  -0.666647  0  2.208497  0  0  -0.367473  -0.632637  0  2.23554  0
O  O42  1  0.24601145  0.26881127  0.86984138  1  0  -0.728875  0  2.02827  0  -1.37311  0  -0.653618  0  2.259911  0  0  -0.676722  0  2.244393  0  0  -0.33275  -0.637301  0  2.270126  0
O  O43  1  0.75400010  0.73118749  0.13015513  1  0  -0.728852  0  2.028403  0  -1.373221  0  -0.653579  0  2.26001  0  0  -0.676695  0  2.244509  0  0  -0.332756  -0.63724  0  2.270212  0
O  O44  1  0.34331538  0.54730271  0.78867965  1  0  -0.672856  0  1.947169  0  -1.35206  0  -0.629728  0  2.206337  0  0  -0.649596  0  2.192056  0  0  -0.374907  -0.615708  0  2.215688  0
O  O45  1  0.65669483  0.45269350  0.21131465  1  0  -0.672844  0  1.947175  0  -1.352225  0  -0.629711  0  2.206315  0  0  -0.649576  0  2.192027  0  0  -0.374867  -0.615695  0  2.215672  0
O  O46  1  0.11461554  0.20387719  0.31374203  1  0  -0.622488  0  1.951943  0  -1.206823  0  -0.586616  0  2.188793  0  0  -0.605736  0  2.179004  0  0  -0.367291  -0.573448  0  2.195252  0
O  O47  1  0.88536655  0.79613183  0.68625429  1  0  -0.622521  0  1.952075  0  -1.207049  0  -0.586586  0  2.188936  0  0  -0.605727  0  2.179186  0  0  -0.367232  -0.573417  0  2.195383  0
O  O48  1  0.74048183  0.12748824  0.39941497  1  0  -0.551466  0  2.085144  0  -1.205095  0  -0.498297  0  2.301943  0  0  -0.521652  0  2.290458  0  0  -0.323547  -0.482061  0  2.309444  0
O  O49  1  0.25950339  0.87251037  0.60059064  1  0  -0.551491  0  2.085139  0  -1.20489  0  -0.498339  0  2.302012  0  0  -0.521695  0  2.290527  0  0  -0.323543  -0.482103  0  2.309505  0
O  O50  1  0.83792662  0.92363691  0.92697837  1  0  -0.855514  0  1.827331  0  -1.315219  0  -0.802385  0  1.995798  0  0  -0.820338  0  1.964873  0  0  -0.615799  -0.789707  0  2.017519  0
O  O51  1  0.16207536  0.07636310  0.07302043  1  0  -0.85545  0  1.82746  0  -1.315273  0  -0.802417  0  1.995753  0  0  -0.82033  0  1.9649  0  0  -0.615789  -0.789749  0  2.017455  0
O  O52  1  0.36831600  0.74505144  0.02093443  1  0  -0.869969  0  1.838472  0  -1.308621  0  -0.821128  0  2.006252  0  0  -0.838622  0  1.97485  0  0  -0.625351  -0.808706  0  2.028186  0
O  O53  1  0.63168984  0.25494727  0.97906566  1  0  -0.869953  0  1.838497  0  -1.308628  0  -0.8211  0  2.006284  0  0  -0.838591  0  1.974882  0  0  -0.625335  -0.808678  0  2.028205  0
O  O54  1  0.28576792  0.94497250  0.79335724  1  0  -0.850941  0  1.873495  0  -1.320345  0  -0.800679  0  2.041974  0  0  -0.819164  0  2.011909  0  0  -0.620244  -0.787633  0  2.062855  0
O  O55  1  0.71423213  0.05502748  0.20664328  1  0  -0.850962  0  1.873459  0  -1.320253  0  -0.800723  0  2.041937  0  0  -0.819206  0  2.011865  0  0  -0.620238  -0.787671  0  2.06282  0
