# generated using pymatgen
data_ZnH6C12Br2(NO2)2
_symmetry_space_group_name_H-M   'P 1'
_cell_length_a   7.79469639
_cell_length_b   7.75419900
_cell_length_c   26.31969266
_cell_angle_alpha   89.99957952
_cell_angle_beta   97.29235398
_cell_angle_gamma   90.00054562
_symmetry_Int_Tables_number   1
_chemical_formula_structural   ZnH6C12Br2(NO2)2
_chemical_formula_sum   'Zn4 H24 C48 Br8 N8 O16'
_cell_volume   1577.93764246
_cell_formula_units_Z   4
loop_
 _symmetry_equiv_pos_site_id
 _symmetry_equiv_pos_as_xyz
  1  'x, y, z'
loop_
 _atom_site_type_symbol
 _atom_site_label
 _atom_site_symmetry_multiplicity
 _atom_site_fract_x
 _atom_site_fract_y
 _atom_site_fract_z
 _atom_site_occupancy
 _atom_site_hle17_bader_spin_density
 _atom_site_hle17_ddec_charge
 _atom_site_hle17_ddec_spin_density
 _atom_site_hle17_ddec_sum_bond_order
 _atom_site_hle17_magmom
 _atom_site_hse06_10hf_bader_spin_density
 _atom_site_hse06_10hf_ddec_charge
 _atom_site_hse06_10hf_ddec_spin_density
 _atom_site_hse06_10hf_ddec_sum_bond_order
 _atom_site_hse06_10hf_magmom
 _atom_site_hse06_bader_spin_density
 _atom_site_hse06_ddec_charge
 _atom_site_hse06_ddec_spin_density
 _atom_site_hse06_ddec_sum_bond_order
 _atom_site_hse06_magmom
 _atom_site_pbe_bader_spin_density
 _atom_site_pbe_cm5_charge
 _atom_site_pbe_ddec_charge
 _atom_site_pbe_ddec_spin_density
 _atom_site_pbe_ddec_sum_bond_order
 _atom_site_pbe_magmom
Zn  Zn0  1  0.88324648  0.11959788  0.90306251  1  0  0.971628  0  1.835656  0  0  0.789595  0  2.280899  0  0  0.839447  0  2.230539  0  0  0.681323  0.754734  0  2.315179  0
Zn  Zn1  1  0.11675113  0.11959414  0.59693761  1  0  0.97164  0  1.835653  0  0  0.789604  0  2.280889  0  0  0.839452  0  2.230533  0  0  0.681352  0.754746  0  2.315165  0
Zn  Zn2  1  0.11675409  0.88039977  0.09693819  1  0  0.971645  0  1.835625  0  0  0.789613  0  2.280861  0  0  0.839466  0  2.230506  0  0  0.681331  0.754752  0  2.315135  0
Zn  Zn3  1  0.88324299  0.88040480  0.40306245  1  0  0.971629  0  1.835668  0  0  0.789594  0  2.280937  0  0  0.839445  0  2.230579  0  0  0.681315  0.754738  0  2.315218  0
H  H4  1  0.88669836  0.50656743  0.91580037  1  0  0.099283  0  0.923111  0  0  0.106196  0  0.988823  0  0  0.109777  0  0.984709  0  0  0.123466  0.103541  0  0.991819  0
H  H5  1  0.11330777  0.50656140  0.58419886  1  0  0.09917  0  0.9232  0  0  0.106097  0  0.988898  0  0  0.109673  0  0.984792  0  0  0.123462  0.103445  0  0.991893  0
H  H6  1  0.11330998  0.49342506  0.08419986  1  0  0.099274  0  0.923065  0  0  0.106169  0  0.988799  0  0  0.10975  0  0.984682  0  0  0.123458  0.103514  0  0.9918  0
H  H7  1  0.88669153  0.49343367  0.41580027  1  0  0.099272  0  0.92321  0  0  0.106166  0  0.988915  0  0  0.109738  0  0.984812  0  0  0.123485  0.103516  0  0.991907  0
H  H8  1  0.78793209  0.18081340  0.79039785  1  0  0.116524  0  0.930451  0  0  0.124805  0  0.990078  0  0  0.128951  0  0.985251  0  0  0.125685  0.121797  0  0.993561  0
H  H9  1  0.21206345  0.18080906  0.70960282  1  0  0.116549  0  0.930438  0  0  0.12486  0  0.990033  0  0  0.128985  0  0.985231  0  0  0.125703  0.121853  0  0.993514  0
H  H10  1  0.21206849  0.81918812  0.20960209  1  0  0.116568  0  0.930403  0  0  0.124854  0  0.990033  0  0  0.129001  0  0.985205  0  0  0.125698  0.121845  0  0.993513  0
H  H11  1  0.78793325  0.81919117  0.29039772  1  0  0.116515  0  0.930475  0  0  0.12481  0  0.990084  0  0  0.128944  0  0.985271  0  0  0.125689  0.121799  0  0.993568  0
H  H12  1  0.75253904  0.73490686  0.76690996  1  0  0.133431  0  0.907204  0  0  0.145949  0  0.959763  0  0  0.149915  0  0.955987  0  0  0.121437  0.142989  0  0.962581  0
H  H13  1  0.24744838  0.73490615  0.73308767  1  0  0.13344  0  0.907143  0  0  0.145954  0  0.959715  0  0  0.149921  0  0.955935  0  0  0.121381  0.142994  0  0.962535  0
H  H14  1  0.24746152  0.26509466  0.23309111  1  0  0.133439  0  0.907234  0  0  0.145962  0  0.959795  0  0  0.149929  0  0.956017  0  0  0.121444  0.143001  0  0.962612  0
H  H15  1  0.75254705  0.26509537  0.26691017  1  0  0.133375  0  0.907179  0  0  0.145953  0  0.959674  0  0  0.149922  0  0.955892  0  0  0.121402  0.142989  0  0.962495  0
H  H16  1  0.50114417  0.10624475  0.88859163  1  0  0.098071  0  0.927646  0  0  0.102666  0  0.996549  0  0  0.106921  0  0.991603  0  0  0.119325  0.099574  0  1.00014  0
H  H17  1  0.49885848  0.10625077  0.61141024  1  0  0.098118  0  0.927582  0  0  0.102694  0  0.996533  0  0  0.106951  0  0.991589  0  0  0.119334  0.099606  0  1.000117  0
H  H18  1  0.49885771  0.89375161  0.11140798  1  0  0.098087  0  0.927669  0  0  0.102677  0  0.996562  0  0  0.106932  0  0.991616  0  0  0.119327  0.099568  0  1.000165  0
H  H19  1  0.50113951  0.89375075  0.38859036  1  0  0.09811  0  0.927551  0  0  0.102677  0  0.996505  0  0  0.106932  0  0.991558  0  0  0.119332  0.099557  0  1.000121  0
H  H20  1  0.86411036  0.23233101  0.01340904  1  0  0.12811  0  0.927072  0  0  0.13362  0  0.991042  0  0  0.137876  0  0.986604  0  0  0.127175  0.130492  0  0.994343  0
H  H21  1  0.13589664  0.23232807  0.48659263  1  0  0.128076  0  0.927199  0  0  0.13366  0  0.991069  0  0  0.137911  0  0.986637  0  0  0.127209  0.130532  0  0.994372  0
H  H22  1  0.13589022  0.76766793  0.98659127  1  0  0.128093  0  0.927202  0  0  0.133689  0  0.991071  0  0  0.137944  0  0.98663  0  0  0.127191  0.13056  0  0.994374  0
H  H23  1  0.86410653  0.76767473  0.51340779  1  0  0.128116  0  0.927139  0  0  0.133623  0  0.991097  0  0  0.137876  0  0.986661  0  0  0.127187  0.130496  0  0.994399  0
H  H24  1  0.31511990  0.26871235  0.02795475  1  0  0.13527  0  0.935169  0  0  0.142438  0  1.000194  0  0  0.14651  0  0.996355  0  0  0.114249  0.13943  0  1.002916  0
H  H25  1  0.68488226  0.26871505  0.47204437  1  0  0.135245  0  0.935127  0  0  0.142412  0  1.000167  0  0  0.146482  0  0.996331  0  0  0.11423  0.139403  0  1.002893  0
H  H26  1  0.68487941  0.73129175  0.97204323  1  0  0.13529  0  0.935138  0  0  0.142458  0  1.000153  0  0  0.146526  0  0.996321  0  0  0.114257  0.139445  0  1.002887  0
H  H27  1  0.31512090  0.73129034  0.52795642  1  0  0.135285  0  0.935175  0  0  0.14245  0  1.000188  0  0  0.146519  0  0.996356  0  0  0.114251  0.139437  0  1.002927  0
C  C28  1  0.83635444  0.81509351  0.86921560  1  0  0.626082  0  3.947336  0  0  0.577637  0  4.235547  0  0  0.612352  0  4.229964  0  0  0.193874  0.554227  0  4.238534  0
C  C29  1  0.16364270  0.81509196  0.63078489  1  0  0.626048  0  3.947391  0  0  0.577595  0  4.235628  0  0  0.612311  0  4.230047  0  0  0.193862  0.554183  0  4.238612  0
C  C30  1  0.16365129  0.18490285  0.13078719  1  0  0.625911  0  3.947716  0  0  0.577486  0  4.235911  0  0  0.612201  0  4.23033  0  0  0.193814  0.554073  0  4.238899  0
C  C31  1  0.83635273  0.18490569  0.36921294  1  0  0.626086  0  3.94768  0  0  0.577634  0  4.235895  0  0  0.612351  0  4.230311  0  0  0.193893  0.554223  0  4.238883  0
C  C32  1  0.81985470  0.64136078  0.84421216  1  0  -0.083626  0  3.745819  0  0  -0.057855  0  3.987364  0  0  -0.070295  0  4.01005  0  0  -0.007093  -0.050277  0  3.972563  0
C  C33  1  0.18014225  0.64135747  0.65578718  1  0  -0.083436  0  3.745702  0  0  -0.057649  0  3.987241  0  0  -0.070086  0  4.009924  0  0  -0.006923  -0.050069  0  3.972443  0
C  C34  1  0.18015234  0.35863945  0.15578878  1  0  -0.083424  0  3.745784  0  0  -0.05765  0  3.987299  0  0  -0.070088  0  4.009983  0  0  -0.006931  -0.050071  0  3.972496  0
C  C35  1  0.81985447  0.35863889  0.34421109  1  0  -0.083545  0  3.745798  0  0  -0.057767  0  3.987342  0  0  -0.070207  0  4.010026  0  0  -0.007046  -0.050189  0  3.972541  0
C  C36  1  0.85009268  0.49439501  0.87460362  1  0  0.118627  0  3.66803  0  0  0.066835  0  3.931828  0  0  0.077094  0  3.947078  0  0  0.053917  0.060287  0  3.921488  0
C  C37  1  0.14991078  0.49438959  0.62539478  1  0  0.118705  0  3.667911  0  0  0.066915  0  3.931748  0  0  0.077173  0  3.946997  0  0  0.053852  0.060369  0  3.921404  0
C  C38  1  0.14991049  0.50559748  0.12539680  1  0  0.118548  0  3.668  0  0  0.066797  0  3.931785  0  0  0.077058  0  3.947034  0  0  0.053824  0.060248  0  3.921444  0
C  C39  1  0.85008852  0.50560677  0.37460473  1  0  0.118581  0  3.667913  0  0  0.066857  0  3.931688  0  0  0.077121  0  3.946931  0  0  0.053886  0.060312  0  3.921358  0
C  C40  1  0.79615169  0.31331438  0.80422170  1  0  0.087826  0  3.676792  0  0  0.042945  0  3.931923  0  0  0.051696  0  3.946491  0  0  0.046742  0.036905  0  3.923067  0
C  C41  1  0.20384890  0.31330902  0.69577736  1  0  0.087741  0  3.677003  0  0  0.042842  0  3.93212  0  0  0.051607  0  3.946708  0  0  0.046771  0.036792  0  3.923279  0
C  C42  1  0.20384760  0.68668198  0.19577781  1  0  0.087722  0  3.676969  0  0  0.042821  0  3.932138  0  0  0.051569  0  3.946716  0  0  0.0467  0.036777  0  3.923294  0
C  C43  1  0.79615168  0.68669121  0.30422258  1  0  0.087754  0  3.676869  0  0  0.042901  0  3.931978  0  0  0.051663  0  3.946553  0  0  0.046746  0.036873  0  3.923116  0
C  C44  1  0.76633620  0.45459423  0.77154868  1  0  0.03008  0  3.744508  0  0  0.046818  0  4.02723  0  0  0.044169  0  4.049537  0  0  -0.015746  0.048063  0  4.012205  0
C  C45  1  0.23366171  0.45459092  0.72845110  1  0  0.030045  0  3.744481  0  0  0.046841  0  4.027132  0  0  0.044191  0  4.049436  0  0  -0.015802  0.048087  0  4.012105  0
C  C46  1  0.23366567  0.54541116  0.22845130  1  0  0.03011  0  3.744595  0  0  0.046869  0  4.02731  0  0  0.044217  0  4.049618  0  0  -0.015746  0.048114  0  4.012284  0
C  C47  1  0.76633759  0.54540931  0.27154802  1  0  0.030068  0  3.744319  0  0  0.046805  0  4.027049  0  0  0.044156  0  4.049355  0  0  -0.015764  0.048048  0  4.012024  0
C  C48  1  0.77647748  0.62159516  0.79125547  1  0  -0.055979  0  3.668559  0  0  -0.097484  0  3.918242  0  0  -0.091405  0  3.933255  0  0  -0.061281  -0.100999  0  3.908067  0
C  C49  1  0.22351672  0.62159095  0.70874305  1  0  -0.05614  0  3.668536  0  0  -0.097669  0  3.918223  0  0  -0.091599  0  3.933252  0  0  -0.061301  -0.101183  0  3.908047  0
C  C50  1  0.22352826  0.37840378  0.20874580  1  0  -0.056026  0  3.668479  0  0  -0.097547  0  3.91818  0  0  -0.091475  0  3.933205  0  0  -0.061302  -0.101059  0  3.908002  0
C  C51  1  0.77648259  0.37840927  0.29125570  1  0  -0.055946  0  3.668516  0  0  -0.09751  0  3.918193  0  0  -0.091439  0  3.93322  0  0  -0.061244  -0.101019  0  3.90801  0
C  C52  1  0.20651217  0.16252459  0.92966458  1  0  0.6174  0  3.964026  0  0  0.568716  0  4.254867  0  0  0.602488  0  4.250114  0  0  0.186569  0.546017  0  4.257119  0
C  C53  1  0.79349101  0.16252930  0.57033376  1  0  0.61745  0  3.96402  0  0  0.568777  0  4.254845  0  0  0.602552  0  4.250088  0  0  0.186614  0.546078  0  4.257097  0
C  C54  1  0.79348972  0.83747435  0.07033426  1  0  0.61755  0  3.963979  0  0  0.568864  0  4.254824  0  0  0.602638  0  4.250068  0  0  0.186633  0.546164  0  4.257074  0
C  C55  1  0.20650829  0.83747480  0.42966536  1  0  0.617516  0  3.964048  0  0  0.568852  0  4.254863  0  0  0.602625  0  4.25011  0  0  0.186617  0.546153  0  4.257114  0
C  C56  1  0.38758403  0.18830085  0.95518291  1  0  -0.088385  0  3.75885  0  0  -0.060388  0  3.996545  0  0  -0.072538  0  4.019706  0  0  -0.01046  -0.05286  0  3.981158  0
C  C57  1  0.61241805  0.18830575  0.54481685  1  0  -0.088365  0  3.758808  0  0  -0.060372  0  3.996502  0  0  -0.072522  0  4.019665  0  0  -0.010364  -0.052843  0  3.981112  0
C  C58  1  0.61241657  0.81169809  0.04481512  1  0  -0.088375  0  3.758907  0  0  -0.06039  0  3.996594  0  0  -0.07254  0  4.019754  0  0  -0.010422  -0.05286  0  3.981196  0
C  C59  1  0.38758253  0.81169964  0.45518308  1  0  -0.08841  0  3.758795  0  0  -0.060443  0  3.996494  0  0  -0.072594  0  4.019655  0  0  -0.010453  -0.052912  0  3.981098  0
C  C60  1  0.52560219  0.15204150  0.92803372  1  0  0.113629  0  3.669848  0  0  0.06481  0  3.928903  0  0  0.074495  0  3.944398  0  0  0.05015  0.058282  0  3.919055  0
C  C61  1  0.47439828  0.15204697  0.57196683  1  0  0.113594  0  3.67023  0  0  0.064749  0  3.929248  0  0  0.074424  0  3.944748  0  0  0.050113  0.058217  0  3.919399  0
C  C62  1  0.47439839  0.84795486  0.07196622  1  0  0.113596  0  3.670054  0  0  0.064782  0  3.92908  0  0  0.074467  0  3.944575  0  0  0.050115  0.058263  0  3.919234  0
C  C63  1  0.52560100  0.84795583  0.42803420  1  0  0.11366  0  3.670091  0  0  0.064849  0  3.929118  0  0  0.074535  0  3.944612  0  0  0.050156  0.058348  0  3.919275  0
C  C64  1  0.72769985  0.22297091  0.99789752  1  0  0.09167  0  3.617087  0  0  0.052266  0  3.862236  0  0  0.060251  0  3.877794  0  0  0.050513  0.046788  0  3.852541  0
C  C65  1  0.27229605  0.22296974  0.50210383  1  0  0.091619  0  3.616949  0  0  0.052122  0  3.86215  0  0  0.060128  0  3.877665  0  0  0.050442  0.046642  0  3.85246  0
C  C66  1  0.27229555  0.77702803  0.00210297  1  0  0.091595  0  3.617151  0  0  0.052092  0  3.862304  0  0  0.060088  0  3.877842  0  0  0.050495  0.04661  0  3.852613  0
C  C67  1  0.72770322  0.77703049  0.49789720  1  0  0.091606  0  3.617046  0  0  0.052218  0  3.862219  0  0  0.060209  0  3.877766  0  0  0.050496  0.046737  0  3.852529  0
C  C68  1  0.59470628  0.26163883  0.02692952  1  0  0.042403  0  3.705308  0  0  0.063141  0  3.977221  0  0  0.059933  0  4.000447  0  0  -0.012507  0.06478  0  3.96145  0
C  C69  1  0.40529711  0.26164140  0.47307080  1  0  0.042492  0  3.705272  0  0  0.063219  0  3.977216  0  0  0.060008  0  4.000449  0  0  -0.01252  0.064857  0  3.961448  0
C  C70  1  0.40529301  0.73836527  0.97307036  1  0  0.042663  0  3.705199  0  0  0.063396  0  3.977117  0  0  0.060188  0  4.000349  0  0  -0.012395  0.065035  0  3.961349  0
C  C71  1  0.59470606  0.73836141  0.52692923  1  0  0.042607  0  3.705299  0  0  0.0633  0  3.977249  0  0  0.060091  0  4.000477  0  0  -0.012477  0.06494  0  3.961478  0
C  C72  1  0.42214190  0.24408261  0.00592395  1  0  -0.056501  0  3.656616  0  0  -0.097761  0  3.906771  0  0  -0.092518  0  3.923415  0  0  -0.065386  -0.100574  0  3.89529  0
C  C73  1  0.57785359  0.24408760  0.49407459  1  0  -0.056565  0  3.656694  0  0  -0.097821  0  3.906859  0  0  -0.092581  0  3.923507  0  0  -0.065445  -0.100634  0  3.895377  0
C  C74  1  0.57785481  0.75591891  0.99407507  1  0  -0.056702  0  3.656783  0  0  -0.097954  0  3.906945  0  0  -0.092711  0  3.923588  0  0  -0.065513  -0.100768  0  3.895466  0
C  C75  1  0.42214569  0.75591907  0.50592568  1  0  -0.05664  0  3.656712  0  0  -0.097865  0  3.90688  0  0  -0.092622  0  3.923524  0  0  -0.065442  -0.100681  0  3.895398  0
Br  Br76  1  0.71489518  0.40833348  0.70050840  1  0  -0.016841  0  1.322386  0  0  -0.006617  0  1.57322  0  0  -0.013282  0  1.568748  0  0  0.062533  -0.001729  0  1.576471  0
Br  Br77  1  0.28509327  0.40832631  0.79949150  1  0  -0.016802  0  1.32235  0  0  -0.006593  0  1.573162  0  0  -0.013258  0  1.56869  0  0  0.062546  -0.001706  0  1.576414  0
Br  Br78  1  0.28509893  0.59167707  0.29949167  1  0  -0.016845  0  1.322356  0  0  -0.006619  0  1.573179  0  0  -0.013283  0  1.568708  0  0  0.062521  -0.001736  0  1.576431  0
Br  Br79  1  0.71490214  0.59167391  0.20050785  1  0  -0.016822  0  1.322409  0  0  -0.006609  0  1.573257  0  0  -0.013273  0  1.568786  0  0  0.062531  -0.001723  0  1.576508  0
Br  Br80  1  0.65001113  0.33689424  0.09555503  1  0  -0.044482  0  1.307775  0  0  -0.0387  0  1.555869  0  0  -0.043878  0  1.55174  0  0  0.046937  -0.034991  0  1.558868  0
Br  Br81  1  0.34998773  0.33689154  0.40444496  1  0  -0.04451  0  1.30778  0  0  -0.038725  0  1.555874  0  0  -0.043906  0  1.551748  0  0  0.046938  -0.035013  0  1.558873  0
Br  Br82  1  0.34998685  0.66310986  0.90444557  1  0  -0.044542  0  1.307771  0  0  -0.038758  0  1.555863  0  0  -0.043939  0  1.551736  0  0  0.046914  -0.035048  0  1.558865  0
Br  Br83  1  0.65001155  0.66310998  0.59555530  1  0  -0.044558  0  1.307772  0  0  -0.038771  0  1.555881  0  0  -0.04395  0  1.551753  0  0  0.046913  -0.03506  0  1.558881  0
N  N84  1  0.83670799  0.33468817  0.85494724  1  0  -0.302384  0  3.322548  0  0  -0.221453  0  3.601899  0  0  -0.241389  0  3.618063  0  0  -0.320495  -0.207953  0  3.590647  0
N  N85  1  0.16329276  0.33468239  0.64505368  1  0  -0.302209  0  3.32255  0  0  -0.221351  0  3.601964  0  0  -0.241284  0  3.61812  0  0  -0.320472  -0.207849  0  3.590709  0
N  N86  1  0.16329259  0.66530948  0.14505308  1  0  -0.302312  0  3.322435  0  0  -0.221413  0  3.60181  0  0  -0.241349  0  3.617973  0  0  -0.320455  -0.207911  0  3.590555  0
N  N87  1  0.83670523  0.66531397  0.35494616  1  0  -0.302242  0  3.322591  0  0  -0.221394  0  3.601974  0  0  -0.241327  0  3.618131  0  0  -0.320482  -0.207911  0  3.590746  0
N  N88  1  0.69086769  0.16915405  0.94898750  1  0  -0.304305  0  3.310809  0  0  -0.220285  0  3.58742  0  0  -0.240592  0  3.603757  0  0  -0.321906  -0.206506  0  3.575979  0
N  N89  1  0.30914066  0.16915330  0.55101521  1  0  -0.304281  0  3.311125  0  0  -0.220189  0  3.587673  0  0  -0.24049  0  3.60401  0  0  -0.321865  -0.206409  0  3.576227  0
N  N90  1  0.30913418  0.83084102  0.05101287  1  0  -0.304286  0  3.311037  0  0  -0.220223  0  3.587604  0  0  -0.240534  0  3.603951  0  0  -0.321902  -0.206437  0  3.576142  0
N  N91  1  0.69086120  0.83085080  0.44898591  1  0  -0.304309  0  3.311076  0  0  -0.220274  0  3.587661  0  0  -0.240581  0  3.604  0  0  -0.321866  -0.206491  0  3.576207  0
O  O92  1  0.89288220  0.82505554  0.91643520  1  0  -0.606287  0  1.944617  0  0  -0.55401  0  2.184898  0  0  -0.580421  0  2.174758  0  0  -0.309885  -0.535504  0  2.191094  0
O  O93  1  0.10712409  0.82506236  0.58356486  1  0  -0.606319  0  1.944736  0  0  -0.554001  0  2.184964  0  0  -0.580412  0  2.174825  0  0  -0.309891  -0.535508  0  2.191184  0
O  O94  1  0.10712999  0.17493695  0.08356746  1  0  -0.606275  0  1.94484  0  0  -0.55401  0  2.185108  0  0  -0.58042  0  2.174964  0  0  -0.309911  -0.535515  0  2.191321  0
O  O95  1  0.89287264  0.17493787  0.41643302  1  0  -0.60637  0  1.944812  0  0  -0.554084  0  2.18507  0  0  -0.580494  0  2.174925  0  0  -0.309946  -0.53559  0  2.191289  0
O  O96  1  0.79341226  0.94871157  0.84192575  1  0  -0.621746  0  1.963671  0  0  -0.558268  0  2.199437  0  0  -0.586471  0  2.18734  0  0  -0.325147  -0.538421  0  2.206937  0
O  O97  1  0.20657954  0.94870846  0.65807691  1  0  -0.621779  0  1.963619  0  0  -0.558307  0  2.199384  0  0  -0.586506  0  2.187286  0  0  -0.3252  -0.538457  0  2.206883  0
O  O98  1  0.20658698  0.05128608  0.15807831  1  0  -0.621677  0  1.963768  0  0  -0.558208  0  2.199505  0  0  -0.58641  0  2.187415  0  0  -0.325116  -0.53836  0  2.207001  0
O  O99  1  0.79341331  0.05129177  0.34192121  1  0  -0.62171  0  1.963739  0  0  -0.558236  0  2.199489  0  0  -0.586439  0  2.187396  0  0  -0.325143  -0.538387  0  2.206985  0
O  O100  1  0.08291851  0.20051599  0.95589315  1  0  -0.61829  0  1.98378  0  0  -0.55  0  2.230781  0  0  -0.579228  0  2.219791  0  0  -0.32757  -0.52943  0  2.237422  0
O  O101  1  0.91708239  0.20052125  0.54410616  1  0  -0.618354  0  1.983885  0  0  -0.550098  0  2.230911  0  0  -0.579321  0  2.219906  0  0  -0.327618  -0.529531  0  2.237555  0
O  O102  1  0.91708466  0.79948166  0.04410688  1  0  -0.618361  0  1.983791  0  0  -0.550082  0  2.230811  0  0  -0.57931  0  2.219818  0  0  -0.327609  -0.529514  0  2.237453  0
O  O103  1  0.08291303  0.79948285  0.45589282  1  0  -0.618388  0  1.98382  0  0  -0.550113  0  2.23083  0  0  -0.579337  0  2.219829  0  0  -0.327616  -0.529544  0  2.237474  0
O  O104  1  0.18183158  0.10393226  0.88474609  1  0  -0.611208  0  1.926461  0  0  -0.565617  0  2.152837  0  0  -0.589856  0  2.144467  0  0  -0.326408  -0.548651  0  2.157914  0
O  O105  1  0.81817365  0.10394254  0.61525474  1  0  -0.611173  0  1.926424  0  0  -0.565559  0  2.15276  0  0  -0.589798  0  2.144386  0  0  -0.326409  -0.548592  0  2.157837  0
O  O106  1  0.81816900  0.89606152  0.11525423  1  0  -0.611268  0  1.92651  0  0  -0.565668  0  2.152871  0  0  -0.589906  0  2.144497  0  0  -0.326432  -0.548699  0  2.157944  0
O  O107  1  0.18182692  0.89606156  0.38474595  1  0  -0.611239  0  1.926547  0  0  -0.565637  0  2.152903  0  0  -0.589876  0  2.144531  0  0  -0.326418  -0.548668  0  2.157974  0
