# generated using pymatgen
data_Mg3H36C50(N3O5)2
_symmetry_space_group_name_H-M   'P 1'
_cell_length_a   10.97681073
_cell_length_b   14.93753186
_cell_length_c   15.07976808
_cell_angle_alpha   70.41573602
_cell_angle_beta   87.10830694
_cell_angle_gamma   89.23483058
_symmetry_Int_Tables_number   1
_chemical_formula_structural   Mg3H36C50(N3O5)2
_chemical_formula_sum   'Mg6 H72 C100 N12 O20'
_cell_volume   2326.55368792
_cell_formula_units_Z   2
loop_
 _symmetry_equiv_pos_site_id
 _symmetry_equiv_pos_as_xyz
  1  'x, y, z'
loop_
 _atom_site_type_symbol
 _atom_site_label
 _atom_site_symmetry_multiplicity
 _atom_site_fract_x
 _atom_site_fract_y
 _atom_site_fract_z
 _atom_site_occupancy
 _atom_site_pbe_bader_charge
 _atom_site_pbe_bader_spin_density
 _atom_site_pbe_cm5_charge
 _atom_site_pbe_ddec_charge
 _atom_site_pbe_ddec_spin_density
 _atom_site_pbe_ddec_sum_bond_order
 _atom_site_pbe_magmom
Mg  Mg0  1  0.48338255  0.08693852  0.53557611  1  1.682523  0  0.816806  1.350136  0  1.460198  0
Mg  Mg1  1  0.51661885  0.91306234  0.46442408  1  1.682521  0  0.816785  1.350032  0  1.460366  0
Mg  Mg2  1  0.25303575  0.07063858  0.42687180  1  1.675292  0  0.811435  1.390861  0  1.422382  0
Mg  Mg3  1  0.74696382  0.92936157  0.57312869  1  1.67529  0  0.811461  1.390847  0  1.422401  0
Mg  Mg4  1  0.98214642  0.04192653  0.58275480  1  1.684406  0  0.815706  1.349281  0  1.449794  0
Mg  Mg5  1  0.01785224  0.95807290  0.41724596  1  1.684415  0  0.815694  1.349277  0  1.449776  0
H  H6  1  0.46740155  0.08342565  0.35544768  1  0.59766  0  0.300857  0.387877  0  0.937496  0
H  H7  1  0.53259894  0.91657451  0.64455211  1  0.597666  0  0.300836  0.387847  0  0.937541  0
H  H8  1  0.04263239  0.14252953  0.40526428  1  0.603994  0  0.304232  0.392102  0  0.92648  0
H  H9  1  0.95736718  0.85746990  0.59473711  1  0.603979  0  0.304226  0.392098  0  0.926505  0
H  H10  1  0.17928838  0.04997541  0.81582329  1  0.133526  0  0.117763  0.133369  0  0.994425  0
H  H11  1  0.82071302  0.95002118  0.18417895  1  0.133513  0  0.117794  0.133413  0  0.99436  0
H  H12  1  0.54647756  0.09278060  0.88725621  1  0.062864  0  0.104988  0.106702  0  1.032985  0
H  H13  1  0.45352293  0.90721883  0.11274514  1  0.062873  0  0.104988  0.106714  0  1.033025  0
H  H14  1  0.61546300  0.10146887  0.72450807  1  0.079625  0  0.121139  0.087971  0  0.989458  0
H  H15  1  0.38453839  0.89852986  0.27549281  1  0.079632  0  0.121129  0.087944  0  0.989456  0
H  H16  1  0.16599930  0.96865155  0.97215792  1  0.075082  0  0.103527  0.106248  0  1.008209  0
H  H17  1  0.83399937  0.03134575  0.02784486  1  0.075073  0  0.103533  0.106241  0  1.008192  0
H  H18  1  0.09439962  0.96201700  0.13429575  1  0.119289  0  0.105214  0.110911  0  1.008835  0
H  H19  1  0.90559905  0.03798313  0.86570677  1  0.119305  0  0.105223  0.110919  0  1.008843  0
H  H20  1  0.37217398  0.16035785  0.13442229  1  0.086901  0  0.1021  0.10392  0  1.034405  0
H  H21  1  0.62782832  0.83964017  0.86557812  1  0.086821  0  0.10209  0.103915  0  1.03438  0
H  H22  1  0.44238984  0.17215809  0.97128022  1  0.050071  0  0.098635  0.09691  0  1.019569  0
H  H23  1  0.55761338  0.82783638  0.02872264  1  0.049955  0  0.098619  0.096899  0  1.019531  0
H  H24  1  0.31197242  0.67702082  0.46548414  1  0.140091  0  0.115831  0.133078  0  0.998093  0
H  H25  1  0.68802899  0.32298002  0.53451871  1  0.140114  0  0.115832  0.133082  0  0.998129  0
H  H26  1  0.95300645  0.60554617  0.40073587  1  0.097224  0  0.107776  0.115756  0  1.014883  0
H  H27  1  0.04699767  0.39445331  0.59926135  1  0.097242  0  0.10777  0.115751  0  1.014884  0
H  H28  1  0.88678654  0.76668720  0.39473809  1  0.09114  0  0.12054  0.088061  0  0.988186  0
H  H29  1  0.11321394  0.23331011  0.60526263  1  0.091124  0  0.12055  0.088073  0  0.988107  0
H  H30  1  0.32133784  0.52402464  0.53805178  1  0.071615  0  0.097316  0.097086  0  1.043646  0
H  H31  1  0.67866538  0.47597339  0.46194793  1  0.071595  0  0.09732  0.097072  0  1.043654  0
H  H32  1  0.40034828  0.36685593  0.53935258  1  0.109705  0  0.102222  0.10853  0  1.011826  0
H  H33  1  0.59965494  0.63314283  0.46064557  1  0.109732  0  0.102201  0.108469  0  1.011858  0
H  H34  1  0.13819674  0.35824753  0.34050844  1  0.10901  0  0.106208  0.108274  0  1.020852  0
H  H35  1  0.86180556  0.64175334  0.65949039  1  0.108989  0  0.106129  0.108202  0  1.020819  0
H  H36  1  0.05924002  0.51535913  0.33608935  1  0.108143  0  0.098068  0.095106  0  1.058421  0
H  H37  1  0.94076229  0.48464103  0.66391038  1  0.108191  0  0.09807  0.095116  0  1.058385  0
H  H38  1  0.55298688  0.16194816  0.22158686  1  0.056822  0  0.100654  0.092205  0  1.022007  0
H  H39  1  0.44701269  0.83804986  0.77841432  1  0.056832  0  0.100626  0.092157  0  1.022035  0
H  H40  1  0.67175049  0.18314531  0.07163038  1  0.053617  0  0.094458  0.089278  0  1.020198  0
H  H41  1  0.32824817  0.81685555  0.92836992  1  0.053577  0  0.09447  0.089289  0  1.020194  0
H  H42  1  0.88860231  0.23814890  0.05187132  1  0.109972  0  0.101922  0.102547  0  1.041562  0
H  H43  1  0.11139636  0.76185338  0.94812852  1  0.109962  0  0.101943  0.102591  0  1.041449  0
H  H44  1  0.87006493  0.24402690  0.33536473  1  0.064726  0  0.104297  0.101862  0  1.011695  0
H  H45  1  0.12993465  0.75597538  0.66463507  1  0.064684  0  0.104285  0.101826  0  1.011716  0
H  H46  1  0.65192347  0.19138049  0.35534810  1  0.096334  0  0.106355  0.103503  0  1.030384  0
H  H47  1  0.34807701  0.80861682  0.64465261  1  0.096284  0  0.106342  0.103486  0  1.030346  0
H  H48  1  0.17874026  0.38805781  0.94996214  1  0.09234  0  0.101305  0.105214  0  1.040089  0
H  H49  1  0.82126023  0.61194589  0.05003717  1  0.092334  0  0.101303  0.105187  0  1.040059  0
H  H50  1  0.39940767  0.43485355  0.92273072  1  0.065777  0  0.095525  0.093895  0  1.02858  0
H  H51  1  0.60059373  0.56514588  0.07727059  1  0.065615  0  0.095543  0.093916  0  1.028579  0
H  H52  1  0.53094535  0.40150970  0.06098657  1  0.070636  0  0.098725  0.096023  0  1.01381  0
H  H53  1  0.46905514  0.59848832  0.93901458  1  0.070636  0  0.098715  0.096021  0  1.013794  0
H  H54  1  0.44095621  0.32499785  0.22326828  1  0.054026  0  0.098431  0.093766  0  1.018796  0
H  H55  1  0.55904245  0.67500017  0.77673227  1  0.054022  0  0.098435  0.093779  0  1.018773  0
H  H56  1  0.22316578  0.27774297  0.24916446  1  0.159785  0  0.107464  0.114955  0  1.0702  0
H  H57  1  0.77683287  0.72225648  0.75083497  1  0.159775  0  0.107463  0.114926  0  1.070241  0
H  H58  1  0.41375408  0.53069849  0.31300935  1  0.07078  0  0.099504  0.098242  0  1.029608  0
H  H59  1  0.58624277  0.46930377  0.68699256  1  0.070797  0  0.099517  0.098257  0  1.029647  0
H  H60  1  0.54549085  0.39195139  0.31852254  1  0.069964  0  0.103674  0.105086  0  1.005793  0
H  H61  1  0.45450507  0.60805019  0.68147564  1  0.069982  0  0.103699  0.105122  0  1.005822  0
H  H62  1  0.76800187  0.41761840  0.27076048  1  0.090063  0  0.10302  0.105121  0  1.027765  0
H  H63  1  0.23199496  0.58238178  0.72923547  1  0.090014  0  0.103013  0.105107  0  1.027767  0
H  H64  1  0.72708753  0.71701492  0.22098111  1  0.072781  0  0.10155  0.10254  0  1.03657  0
H  H65  1  0.27291113  0.28298382  0.77901855  1  0.072763  0  0.101582  0.102592  0  1.036459  0
H  H66  1  0.50442977  0.69266669  0.26624257  1  0.074438  0  0.098157  0.09459  0  1.009929  0
H  H67  1  0.49557071  0.30733419  0.73375633  1  0.074439  0  0.09814  0.09458  0  1.00996  0
H  H68  1  0.06734468  0.52938725  0.13434583  1  0.097645  0  0.108364  0.111542  0  1.010449  0
H  H69  1  0.93265490  0.47061289  0.86565600  1  0.097504  0  0.10837  0.111566  0  1.010446  0
H  H70  1  0.28990205  0.54584027  0.08996064  1  0.079187  0  0.098837  0.09817  0  1.023558  0
H  H71  1  0.71009662  0.45416130  0.91003943  1  0.079137  0  0.098824  0.098124  0  1.023541  0
H  H72  1  0.40484431  0.68514660  0.09792146  1  0.031388  0  0.097376  0.088187  0  1.023904  0
H  H73  1  0.59515345  0.31485496  0.90207864  1  0.03141  0  0.097379  0.088196  0  1.023949  0
H  H74  1  0.29584056  0.81043415  0.14714746  1  0.041682  0  0.093389  0.085281  0  1.046073  0
H  H75  1  0.70415720  0.18956670  0.85285354  1  0.041678  0  0.093376  0.085267  0  1.046102  0
H  H76  1  0.07254104  0.79351414  0.19015745  1  0.073221  0  0.10583  0.109496  0  1.010309  0
H  H77  1  0.92745671  0.20648671  0.80984355  1  0.073269  0  0.105848  0.109538  0  1.010324  0
C  C78  1  0.32474244  0.06249859  0.71296193  1  0.495699  0  0.117342  0.105243  0  3.989585  0
C  C79  1  0.67525896  0.93749871  0.28704008  1  0.49568  0  0.117362  0.105252  0  3.989525  0
C  C80  1  0.27711740  0.06070126  0.80068353  1  -0.017375  0  -0.069488  -0.170753  0  3.893593  0
C  C81  1  0.72288400  0.93929605  0.19931848  1  -0.017358  0  -0.069569  -0.17088  0  3.893519  0
C  C82  1  0.35580501  0.07296626  0.86627263  1  -0.0245  0  0.014302  0.112629  0  3.986059  0
C  C83  1  0.64419548  0.92703247  0.13372829  1  -0.02381  0  0.014366  0.112745  0  3.985939  0
C  C84  1  0.48012395  0.08699307  0.83809636  1  0.042547  0  -0.080541  -0.176185  0  3.938624  0
C  C85  1  0.51987562  0.91300636  0.16190503  1  0.041889  0  -0.080522  -0.176194  0  3.938675  0
C  C86  1  0.51953501  0.08997984  0.74797560  1  0.459986  0  0.057057  0.116564  0  3.972132  0
C  C87  1  0.48046548  0.91002101  0.25202530  1  0.459981  0  0.057041  0.116575  0  3.972204  0
C  C88  1  0.24438174  0.04741017  0.64105014  1  1.604327  0  0.242166  0.597596  0  4.198094  0
C  C89  1  0.75562147  0.95258787  0.35894957  1  1.604384  0  0.242099  0.59757  0  4.198004  0
C  C90  1  0.31075694  0.06982664  0.96086457  1  -0.057861  0  -0.009555  0.056131  0  4.009076  0
C  C91  1  0.68924354  0.93017067  0.03913681  1  -0.05818  0  -0.009593  0.056109  0  4.009022  0
C  C92  1  0.21068302  0.01190935  0.00676949  1  -0.03113  0  -0.090028  -0.13535  0  3.980083  0
C  C93  1  0.78931656  0.98808866  0.99323236  1  -0.030897  0  -0.090035  -0.135366  0  3.980044  0
C  C94  1  0.17107963  0.00708430  0.09737798  1  -0.105489  0  -0.08347  -0.090088  0  3.979074  0
C  C95  1  0.82891994  0.99291514  0.90262341  1  -0.105452  0  -0.083481  -0.090099  0  3.979163  0
C  C96  1  0.23078744  0.05911160  0.14427897  1  -0.047792  0  -0.014527  -0.030291  0  3.947513  0
C  C97  1  0.76921305  0.94088926  0.85572125  1  -0.047785  0  -0.01453  -0.030306  0  3.947498  0
C  C98  1  0.32854503  0.11855311  0.09801564  1  0.004803  0  -0.082153  -0.082828  0  3.977608  0
C  C99  1  0.67145454  0.88144633  0.90198441  1  0.00481  0  -0.082106  -0.082752  0  3.977577  0
C  C100  1  0.36783772  0.12409040  0.00732326  1  -0.021135  0  -0.088498  -0.126182  0  3.9741  0
C  C101  1  0.63216276  0.87590763  0.99267722  1  -0.020915  0  -0.088527  -0.126256  0  3.974119  0
C  C102  1  0.19343003  0.04826318  0.24467917  1  1.58667  0  0.216589  0.600156  0  4.226829  0
C  C103  1  0.80656863  0.95173697  0.75532136  1  1.586638  0  0.216548  0.600083  0  4.226654  0
C  C104  1  0.16985737  0.77921633  0.44840946  1  0.467722  0  0.108742  0.095014  0  4.009266  0
C  C105  1  0.83014312  0.22078526  0.55158920  1  0.467567  0  0.108716  0.094933  0  4.009257  0
C  C106  1  0.21598651  0.69133315  0.45142562  1  -0.058752  0  -0.074091  -0.175027  0  3.897417  0
C  C107  1  0.78401398  0.30866770  0.54857528  1  -0.059127  0  -0.074124  -0.175082  0  3.897505  0
C  C108  1  0.13913244  0.62531655  0.43401599  1  -0.034564  0  0.014414  0.116303  0  3.974274  0
C  C109  1  0.86086896  0.37468361  0.56598376  1  -0.034216  0  0.014459  0.116435  0  3.974261  0
C  C110  1  0.01827577  0.65349027  0.41358465  1  -0.010868  0  -0.074715  -0.159732  0  3.917252  0
C  C111  1  0.98172471  0.34650846  0.58641560  1  -0.010873  0  -0.07473  -0.159788  0  3.917124  0
C  C112  1  0.98002438  0.74347098  0.41127398  1  0.526987  0  0.058696  0.120367  0  3.960226  0
C  C113  1  0.01997702  0.25652777  0.58872558  1  0.526954  0  0.058708  0.120406  0  3.96007  0
C  C114  1  0.25026243  0.85289329  0.46368460  1  1.619767  0  0.24041  0.59527  0  4.203189  0
C  C115  1  0.74973896  0.14710902  0.53631181  1  1.619659  0  0.240502  0.595361  0  4.203134  0
C  C116  1  0.18517009  0.53167547  0.43623782  1  -0.05806  0  -0.009441  0.054401  0  3.99671  0
C  C117  1  0.81483313  0.46832469  0.56376254  1  -0.05809  0  -0.009434  0.054377  0  3.996885  0
C  C118  1  0.28203249  0.48899719  0.49326326  1  -0.049843  0  -0.090954  -0.134582  0  3.977671  0
C  C119  1  0.71797165  0.51100155  0.50673685  1  -0.04983  0  -0.090981  -0.134618  0  3.977711  0
C  C120  1  0.32626298  0.40090577  0.49480353  1  -0.067737  0  -0.083624  -0.088878  0  3.980996  0
C  C121  1  0.67374023  0.59909441  0.50519482  1  -0.067671  0  -0.083613  -0.0888  0  3.981018  0
C  C122  1  0.27473546  0.35362064  0.43964137  1  -0.060635  0  -0.017245  -0.041306  0  3.967935  0
C  C123  1  0.72526776  0.64638025  0.56035676  1  -0.060716  0  -0.01726  -0.041294  0  3.967952  0
C  C124  1  0.17830744  0.39572441  0.38277706  1  0.026058  0  -0.081363  -0.084781  0  3.964915  0
C  C125  1  0.82169578  0.60427648  0.61722040  1  0.026405  0  -0.081248  -0.084727  0  3.964848  0
C  C126  1  0.13377920  0.48368365  0.38121879  1  -0.081888  0  -0.088712  -0.122969  0  3.966522  0
C  C127  1  0.86622311  0.51631580  0.61878116  1  -0.082223  0  -0.088716  -0.122952  0  3.966645  0
C  C128  1  0.31871217  0.25654951  0.44501059  1  1.57981  0  0.215815  0.598627  0  4.224404  0
C  C129  1  0.68128831  0.74345137  0.55498764  1  1.579778  0  0.215807  0.598624  0  4.224456  0
C  C130  1  0.64804916  0.18498232  0.21420753  1  -0.082721  0  -0.089033  -0.081895  0  3.994606  0
C  C131  1  0.35195132  0.81501642  0.78579272  1  -0.082547  0  -0.089006  -0.081814  0  3.994681  0
C  C132  1  0.71480003  0.19733679  0.12922155  1  -0.054043  0  -0.093951  -0.077309  0  4.027225  0
C  C133  1  0.28519954  0.80266337  0.87077828  1  -0.054188  0  -0.093945  -0.07734  0  4.027291  0
C  C134  1  0.83556936  0.22769831  0.11762867  1  0.028823  0  -0.083068  -0.136662  0  3.932265  0
C  C135  1  0.16443022  0.77230255  0.88237092  1  0.028842  0  -0.083092  -0.136704  0  3.932161  0
C  C136  1  0.89102604  0.24534825  0.19239301  1  0.305303  0  0.086768  0.166106  0  4.032168  0
C  C137  1  0.10897263  0.75465331  0.80760706  1  0.305321  0  0.08678  0.166147  0  4.03213  0
C  C138  1  0.82455668  0.23104758  0.27807590  1  -0.079659  0  -0.078812  -0.13477  0  3.93808  0
C  C139  1  0.17544289  0.76895328  0.72192369  1  -0.079627  0  -0.078813  -0.134742  0  3.93807  0
C  C140  1  0.70292873  0.20184668  0.28874482  1  -0.037684  0  -0.091679  -0.076014  0  3.991948  0
C  C141  1  0.29707084  0.79815205  0.71125613  1  -0.037613  0  -0.091658  -0.076004  0  3.99198  0
C  C142  1  0.18751962  0.33184348  0.10039377  1  0.352787  0  0.083559  0.160225  0  4.037592  0
C  C143  1  0.81247905  0.66815880  0.89960607  1  0.353263  0  0.083602  0.160225  0  4.037734  0
C  C144  1  0.23800730  0.37542573  0.00866293  1  -0.083675  0  -0.08237  -0.133762  0  3.936958  0
C  C145  1  0.76199228  0.62457725  0.99133731  1  -0.083687  0  -0.082344  -0.13364  0  3.93698  0
C  C146  1  0.36099998  0.40103062  0.99423716  1  -0.033619  0  -0.099021  -0.096777  0  4.033199  0
C  C147  1  0.63900052  0.59897094  0.00576350  1  -0.033527  0  -0.09908  -0.096876  0  4.033207  0
C  C148  1  0.43430260  0.38273524  0.07161292  1  -0.111664  0  -0.090355  -0.086132  0  4.000677  0
C  C149  1  0.56569788  0.61726491  0.92838753  1  -0.111598  0  -0.090355  -0.086158  0  4.000574  0
C  C150  1  0.38352266  0.33969556  0.16313714  1  -0.002901  0  -0.091719  -0.080166  0  4.014231  0
C  C151  1  0.61647692  0.66030459  0.83686335  1  -0.002937  0  -0.091734  -0.080185  0  4.014211  0
C  C152  1  0.26096275  0.31397101  0.17822079  1  -0.068663  0  -0.079298  -0.134595  0  3.922346  0
C  C153  1  0.73903591  0.68602986  0.82177885  1  -0.068655  0  -0.07932  -0.134592  0  3.922394  0
C  C154  1  0.51091267  0.54100393  0.29384046  1  -0.172893  0  -0.082816  -0.070365  0  3.968924  0
C  C155  1  0.48908508  0.45899551  0.70615967  1  -0.173054  0  -0.082816  -0.07036  0  3.969054  0
C  C156  1  0.58454853  0.46323357  0.29610504  1  0.017832  0  -0.089651  -0.082721  0  4.004666  0
C  C157  1  0.41544830  0.53676588  0.70389380  1  0.017975  0  -0.089655  -0.082768  0  4.004737  0
C  C158  1  0.70858683  0.47683177  0.27055283  1  -0.091418  0  -0.078376  -0.136829  0  3.938539  0
C  C159  1  0.29141000  0.52316840  0.72944511  1  -0.091419  0  -0.078422  -0.136844  0  3.938618  0
C  C160  1  0.75972801  0.56835246  0.24348869  1  0.373008  0  0.082038  0.154563  0  4.049616  0
C  C161  1  0.24027064  0.43164771  0.75650918  1  0.372989  0  0.082066  0.154554  0  4.049705  0
C  C162  1  0.68584439  0.64661579  0.24192383  1  -0.037967  0  -0.083839  -0.140686  0  3.940309  0
C  C163  1  0.31415427  0.35338508  0.75807447  1  -0.037956  0  -0.083868  -0.140683  0  3.940329  0
C  C164  1  0.56217837  0.63235734  0.26705527  1  0.031392  0  -0.089414  -0.076933  0  4.013458  0
C  C165  1  0.43782029  0.36764283  0.73294260  1  0.031476  0  -0.089403  -0.076951  0  4.013553  0
C  C166  1  0.05818633  0.65982240  0.16674076  1  0.228672  0  0.083733  0.152085  0  4.060139  0
C  C167  1  0.94181142  0.34017845  0.83326024  1  0.228644  0  0.083789  0.152273  0  4.059951  0
C  C168  1  0.11884268  0.58992926  0.13762278  1  0.043207  0  -0.076395  -0.131779  0  3.926658  0
C  C169  1  0.88115598  0.41007088  0.86237842  1  0.043127  0  -0.076429  -0.131908  0  3.92671  0
C  C170  1  0.24288487  0.59974762  0.11278346  1  -0.046171  0  -0.085512  -0.06545  0  3.981966  0
C  C171  1  0.75711288  0.40025394  0.88721731  1  -0.045978  0  -0.085489  -0.065335  0  3.981858  0
C  C172  1  0.30734399  0.67847815  0.11700839  1  -0.01784  0  -0.086023  -0.074858  0  3.994999  0
C  C173  1  0.69265285  0.32152412  0.88299218  1  -0.017974  0  -0.086056  -0.074945  0  3.995058  0
C  C174  1  0.24673181  0.74852796  0.14457643  1  -0.002248  0  -0.098182  -0.090867  0  4.031482  0
C  C175  1  0.75326503  0.25147360  0.85542437  1  -0.00216  0  -0.098169  -0.090816  0  4.031471  0
C  C176  1  0.12209263  0.74001178  0.16832113  1  -0.048239  0  -0.082352  -0.139388  0  3.950249  0
C  C177  1  0.87790512  0.25998836  0.83168010  1  -0.048208  0  -0.082336  -0.139439  0  3.950264  0
N  N178  1  0.44386120  0.07785068  0.68591225  1  -1.279617  0  -0.337838  -0.327532  0  3.457734  0
N  N179  1  0.55613929  0.92214877  0.31408777  1  -1.279635  0  -0.337851  -0.327518  0  3.45777  0
N  N180  1  0.05349798  0.80586655  0.42871936  1  -1.271138  0  -0.335757  -0.327324  0  3.451443  0
N  N181  1  0.94650250  0.19413218  0.57128089  1  -1.271138  0  -0.335761  -0.327315  0  3.451408  0
N  N182  1  0.01359588  0.27572193  0.18849508  1  -0.475547  0  -0.146165  -0.133257  0  3.258264  0
N  N183  1  0.98640279  0.72428106  0.81150386  1  -0.475587  0  -0.146211  -0.133347  0  3.258336  0
N  N184  1  0.06332552  0.30550904  0.10613789  1  -0.475897  0  -0.146547  -0.128275  0  3.27311  0
N  N185  1  0.93667315  0.69449394  0.89386172  1  -0.476305  0  -0.146508  -0.12821  0  3.273155  0
N  N186  1  0.88606384  0.57360612  0.21836540  1  -0.492975  0  -0.151709  -0.143758  0  3.306151  0
N  N187  1  0.11393482  0.42639405  0.78163314  1  -0.493104  0  -0.151667  -0.14371  0  3.306273  0
N  N188  1  0.93302828  0.65593542  0.19491867  1  -0.483369  0  -0.150783  -0.140024  0  3.288684  0
N  N189  1  0.06697129  0.34406473  0.80508182  1  -0.483201  0  -0.150864  -0.140179  0  3.288731  0
O  O190  1  0.29958269  0.04207141  0.56658906  1  -1.258911  0  -0.356304  -0.680482  0  2.431003  0
O  O191  1  0.70041871  0.95792804  0.43341159  1  -1.258903  0  -0.356235  -0.680407  0  2.430882  0
O  O192  1  0.13122089  0.04219656  0.65828834  1  -1.206177  0  -0.326776  -0.58562  0  2.276584  0
O  O193  1  0.86878050  0.95779508  0.34171352  1  -1.206233  0  -0.326755  -0.585628  0  2.276592  0
O  O194  1  0.26092570  0.08861198  0.28645849  1  -1.223774  0  -0.356739  -0.643692  0  2.266051  0
O  O195  1  0.73907387  0.91138818  0.71354134  1  -1.223774  0  -0.356719  -0.643633  0  2.265977  0
O  O196  1  0.10005688  0.99785779  0.28109902  1  -1.232847  0  -0.347699  -0.636645  0  2.271115  0
O  O197  1  0.89994270  0.00214449  0.71890145  1  -1.232803  0  -0.347674  -0.63661  0  2.270997  0
O  O198  1  0.44342359  0.04931211  0.42069730  1  -1.416354  0  -0.687622  -1.094854  0  1.971801  0
O  O199  1  0.55657781  0.95068805  0.57930245  1  -1.416321  0  -0.687628  -1.094829  0  1.971836  0
O  O200  1  0.06223465  0.07913529  0.44636630  1  -1.421093  0  -0.683712  -1.092971  0  1.951617  0
O  O201  1  0.93776493  0.92086414  0.55363509  1  -1.421042  0  -0.683711  -1.092942  0  1.951672  0
O  O202  1  0.19774505  0.92936189  0.46370580  1  -1.267352  0  -0.354822  -0.675719  0  2.433519  0
O  O203  1  0.80225361  0.07063971  0.53629095  1  -1.267071  0  -0.354847  -0.675744  0  2.433601  0
O  O204  1  0.36201726  0.83522226  0.47407444  1  -1.231013  0  -0.332375  -0.599592  0  2.290036  0
O  O205  1  0.63798322  0.16478147  0.52592154  1  -1.230987  0  -0.332469  -0.599657  0  2.28996  0
O  O206  1  0.25844739  0.21288974  0.40201465  1  -1.234004  0  -0.354167  -0.636486  0  2.281778  0
O  O207  1  0.74155218  0.78710971  0.59798541  1  -1.233978  0  -0.354141  -0.636477  0  2.281831  0
O  O208  1  0.41065186  0.22389579  0.49328750  1  -1.229716  0  -0.351505  -0.641771  0  2.275355  0
O  O209  1  0.58934953  0.77610438  0.50671026  1  -1.229697  0  -0.351503  -0.64173  0  2.27535  0
