# generated using pymatgen
data_Cd3H20C12N11Cl3O2
_symmetry_space_group_name_H-M   'P 1'
_cell_length_a   8.43612132
_cell_length_b   8.43812414
_cell_length_c   16.68800000
_cell_angle_alpha   90.00000000
_cell_angle_beta   90.00000000
_cell_angle_gamma   90.78211286
_symmetry_Int_Tables_number   1
_chemical_formula_structural   Cd3H20C12N11Cl3O2
_chemical_formula_sum   'Cd6 H40 C24 N22 Cl6 O4'
_cell_volume   1187.82525550
_cell_formula_units_Z   2
loop_
 _symmetry_equiv_pos_site_id
 _symmetry_equiv_pos_as_xyz
  1  'x, y, z'
loop_
 _atom_site_type_symbol
 _atom_site_label
 _atom_site_symmetry_multiplicity
 _atom_site_fract_x
 _atom_site_fract_y
 _atom_site_fract_z
 _atom_site_occupancy
 _atom_site_hle17_bader_spin_density
 _atom_site_hle17_ddec_charge
 _atom_site_hle17_ddec_spin_density
 _atom_site_hle17_ddec_sum_bond_order
 _atom_site_hle17_magmom
 _atom_site_hse06_10hf_bader_spin_density
 _atom_site_hse06_10hf_ddec_charge
 _atom_site_hse06_10hf_ddec_spin_density
 _atom_site_hse06_10hf_ddec_sum_bond_order
 _atom_site_hse06_10hf_magmom
 _atom_site_hse06_bader_spin_density
 _atom_site_hse06_ddec_charge
 _atom_site_hse06_ddec_spin_density
 _atom_site_hse06_ddec_sum_bond_order
 _atom_site_hse06_magmom
 _atom_site_pbe_bader_charge
 _atom_site_pbe_bader_spin_density
 _atom_site_pbe_cm5_charge
 _atom_site_pbe_ddec_charge
 _atom_site_pbe_ddec_spin_density
 _atom_site_pbe_ddec_sum_bond_order
 _atom_site_pbe_magmom
Cd  Cd0  1  0.94014494  0.05987789  0.31626618  1  0  1.045458  0  1.886569  0  0  0.853249  0  2.365381  0  0  0.902539  0  2.318768  0  1.266037  0  0.744304  0.818423  0  2.397138  0
Cd  Cd1  1  0.05985618  0.94012353  0.81626678  1  0  1.045445  0  1.886591  0  0  0.853245  0  2.365384  0  0  0.902537  0  2.318768  0  1.26605  0  0.744305  0.818418  0  2.39714  0
Cd  Cd2  1  0.30419230  0.69580477  0.17754614  1  0  0.994013  0  1.884262  0  0  0.802922  0  2.339937  0  0  0.849623  0  2.301268  0  1.173933  0  0.69665  0.769962  0  2.366277  0
Cd  Cd3  1  0.69580763  0.30419666  0.67754614  1  0  0.993996  0  1.884256  0  0  0.802896  0  2.339937  0  0  0.849595  0  2.301267  0  1.173823  0  0.696629  0.769936  0  2.366276  0
Cd  Cd4  1  0.61742102  0.38251757  0.28218061  1  0  0.950838  0  1.935985  0  0  0.753474  0  2.414138  0  0  0.801526  0  2.371262  0  1.153366  0  0.683254  0.719749  0  2.443312  0
Cd  Cd5  1  0.38258125  0.61748149  0.78218061  1  0  0.950803  0  1.935967  0  0  0.75344  0  2.414115  0  0  0.80149  0  2.371243  0  1.153334  0  0.683234  0.719714  0  2.443289  0
H  H6  1  0.67233551  0.76057875  0.26204698  1  0  0.082415  0  0.955589  0  0  0.091924  0  1.024813  0  0  0.093641  0  1.02201  0  0.123563  0  0.124269  0.090601  0  1.026899  0
H  H7  1  0.32766558  0.23942030  0.76204578  1  0  0.082416  0  0.955637  0  0  0.091913  0  1.024899  0  0  0.093631  0  1.022089  0  0.123599  0  0.124257  0.090589  0  1.026986  0
H  H8  1  0.23949660  0.32768037  0.26203859  1  0  0.082368  0  0.955511  0  0  0.092054  0  1.024568  0  0  0.093773  0  1.021759  0  0.123005  0  0.124275  0.090728  0  1.026657  0
H  H9  1  0.76050448  0.67231869  0.76203919  1  0  0.082425  0  0.95553  0  0  0.092115  0  1.024564  0  0  0.093833  0  1.021756  0  0.123009  0  0.124317  0.090789  0  1.026653  0
H  H10  1  0.34635632  0.10395814  0.19027325  1  0  0.08971  0  0.950115  0  0  0.100264  0  1.014658  0  0  0.102279  0  1.012049  0  0.166257  0  0.124705  0.098716  0  1.016612  0
H  H11  1  0.65364595  0.89604091  0.69027325  1  0  0.08971  0  0.95009  0  0  0.100268  0  1.014626  0  0  0.102283  0  1.012017  0  0.166234  0  0.124707  0.098721  0  1.016579  0
H  H12  1  0.89599320  0.65355922  0.19029123  1  0  0.089626  0  0.950225  0  0  0.100359  0  1.01453  0  0  0.102371  0  1.011925  0  0.167029  0  0.124709  0.0988  0  1.016504  0
H  H13  1  0.10400672  0.34644102  0.69029302  1  0  0.089646  0  0.950249  0  0  0.10037  0  1.014559  0  0  0.102387  0  1.011947  0  0.167044  0  0.124725  0.09881  0  1.016534  0
H  H14  1  0.56370486  0.43629401  0.48921201  1  0  0.092414  0  0.958879  0  0  0.101139  0  1.024898  0  0  0.103296  0  1.022041  0  0.125385  0  0.117448  0.099535  0  1.026915  0
H  H15  1  0.43629382  0.56370268  0.98921261  1  0  0.092411  0  0.958874  0  0  0.101108  0  1.024919  0  0  0.103265  0  1.022062  0  0.125393  0  0.117451  0.099505  0  1.02693  0
H  H16  1  0.90815765  0.09183939  0.53276486  1  0  0.08718  0  0.961694  0  0  0.097918  0  1.026888  0  0  0.099779  0  1.024246  0  0.139695  0  0.122112  0.096523  0  1.028799  0
H  H17  1  0.09184228  0.90816203  0.03276426  1  0  0.087194  0  0.961686  0  0  0.097927  0  1.026889  0  0  0.099788  0  1.024246  0  0.139687  0  0.122111  0.096532  0  1.0288  0
H  H18  1  0.39405369  0.16638897  0.56777385  1  0  0.097382  0  0.960053  0  0  0.113746  0  1.031094  0  0  0.11378  0  1.032139  0  0.047678  0  0.097203  0.113573  0  1.030509  0
H  H19  1  0.60594502  0.83361008  0.06777505  1  0  0.097409  0  0.96001  0  0  0.113763  0  1.031067  0  0  0.1138  0  1.032109  0  0.047591  0  0.097202  0.11359  0  1.030484  0
H  H20  1  0.83357228  0.60597786  0.56778464  1  0  0.097288  0  0.960081  0  0  0.113651  0  1.031181  0  0  0.11368  0  1.032233  0  0.047379  0  0.097178  0.113478  0  1.030599  0
H  H21  1  0.16642289  0.39402238  0.06778404  1  0  0.097328  0  0.960078  0  0  0.113691  0  1.031173  0  0  0.113722  0  1.032223  0  0.04759  0  0.097203  0.113518  0  1.03059  0
H  H22  1  0.24718175  0.01984038  0.59249101  1  0  0.102974  0  0.936584  0  0  0.121996  0  1.000067  0  0  0.122338  0  1.000523  0  0.087668  0  0.099256  0.121635  0  0.999839  0
H  H23  1  0.75281813  0.98015749  0.09249101  1  0  0.10292  0  0.936714  0  0  0.121949  0  1.00019  0  0  0.122292  0  1.000647  0  0.087475  0  0.099223  0.121589  0  0.999963  0
H  H24  1  0.98017776  0.75280497  0.59249341  1  0  0.102945  0  0.936509  0  0  0.122008  0  0.999953  0  0  0.122353  0  1.000411  0  0.087547  0  0.099229  0.121647  0  0.999727  0
H  H25  1  0.01982100  0.24719764  0.09249101  1  0  0.102944  0  0.936594  0  0  0.12202  0  1.000022  0  0  0.122365  0  1.000482  0  0.087284  0  0.099239  0.12166  0  0.999795  0
H  H26  1  0.20450892  0.16940414  0.51981184  1  0  0.10824  0  0.958703  0  0  0.128514  0  1.020722  0  0  0.130054  0  1.019565  0  0.105014  0  0.10803  0.127281  0  1.021628  0
H  H27  1  0.79549101  0.83059728  0.01981124  1  0  0.108246  0  0.958663  0  0  0.128547  0  1.020663  0  0  0.130089  0  1.019509  0  0.105137  0  0.108039  0.127314  0  1.021569  0
H  H28  1  0.83056698  0.79547957  0.51982083  1  0  0.108291  0  0.958531  0  0  0.12855  0  1.020599  0  0  0.130098  0  1.019449  0  0.104853  0  0.107979  0.127319  0  1.021503  0
H  H29  1  0.16943407  0.20451711  0.01982023  1  0  0.108301  0  0.958519  0  0  0.128612  0  1.020525  0  0  0.130162  0  1.019376  0  0.104912  0  0.107984  0.127381  0  1.021429  0
H  H30  1  0.45189564  0.80539976  0.54594739  1  0  0.101527  0  0.947231  0  0  0.118931  0  1.014788  0  0  0.119815  0  1.014645  0  0.085167  0  0.093566  0.118176  0  1.014988  0
H  H31  1  0.54810194  0.19460285  0.04595158  1  0  0.101642  0  0.947189  0  0  0.118963  0  1.014824  0  0  0.119849  0  1.014682  0  0.085111  0  0.093576  0.118207  0  1.015027  0
H  H32  1  0.19460831  0.54808993  0.54594259  1  0  0.101516  0  0.947245  0  0  0.118889  0  1.014847  0  0  0.119772  0  1.014704  0  0.085446  0  0.093537  0.118135  0  1.015051  0
H  H33  1  0.80539159  0.45190912  0.04593960  1  0  0.101603  0  0.94718  0  0  0.118908  0  1.014856  0  0  0.119791  0  1.014714  0  0.085493  0  0.09354  0.118156  0  1.015059  0
H  H34  1  0.58935036  0.95676859  0.51524329  1  0  0.095889  0  0.950138  0  0  0.113598  0  1.0173  0  0  0.114011  0  1.018048  0  0.062536  0  0.097921  0.113211  0  1.016839  0
H  H35  1  0.41064484  0.04323402  0.01524628  1  0  0.095862  0  0.950225  0  0  0.113579  0  1.017384  0  0  0.113993  0  1.018131  0  0.062478  0  0.097909  0.113191  0  1.016923  0
H  H36  1  0.04318499  0.41069233  0.51523670  1  0  0.09591  0  0.9501  0  0  0.113611  0  1.017224  0  0  0.114023  0  1.017968  0  0.06209  0  0.09792  0.113225  0  1.016765  0
H  H37  1  0.95681727  0.58930554  0.01523430  1  0  0.095895  0  0.950044  0  0  0.113632  0  1.017145  0  0  0.114045  0  1.01789  0  0.061985  0  0.097937  0.113246  0  1.016687  0
H  H38  1  0.51305200  0.81722932  0.44365532  1  0  0.1125  0  0.95774  0  0  0.129154  0  1.025852  0  0  0.130514  0  1.024953  0  0.111566  0  0.09946  0.128008  0  1.026664  0
H  H39  1  0.48694440  0.18277447  0.94365832  1  0  0.112498  0  0.957615  0  0  0.129148  0  1.02574  0  0  0.13051  0  1.024834  0  0.111603  0  0.099463  0.128002  0  1.026556  0
H  H40  1  0.18276867  0.48696283  0.44365053  1  0  0.112546  0  0.957633  0  0  0.129187  0  1.025751  0  0  0.130544  0  1.024855  0  0.11171  0  0.099477  0.128044  0  1.026566  0
H  H41  1  0.81723360  0.51303622  0.94364753  1  0  0.112495  0  0.95767  0  0  0.129165  0  1.025762  0  0  0.130525  0  1.024863  0  0.11176  0  0.099449  0.128023  0  1.026578  0
H  H42  1  0.34040413  0.91508957  0.36308485  1  0  0.040938  0  0.949637  0  0  0.047193  0  1.025293  0  0  0.048349  0  1.021827  0  0.110828  0  0.113691  0.04617  0  1.027891  0
H  H43  1  0.65959111  0.08491541  0.86308785  1  0  0.040849  0  0.949519  0  0  0.047116  0  1.025191  0  0  0.048272  0  1.02172  0  0.110738  0  0.113669  0.046092  0  1.027789  0
H  H44  1  0.08490672  0.65960259  0.36308305  1  0  0.040681  0  0.949569  0  0  0.047009  0  1.025218  0  0  0.048162  0  1.021759  0  0.111024  0  0.113594  0.045984  0  1.027819  0
H  H45  1  0.91509672  0.34039528  0.86308126  1  0  0.040891  0  0.949676  0  0  0.047211  0  1.025273  0  0  0.04836  0  1.021829  0  0.111079  0  0.113663  0.046187  0  1.027873  0
C  C46  1  0.61770121  0.87308462  0.24916407  1  0  0.207363  0  3.745637  0  0  0.150269  0  4.01706  0  0  0.163711  0  4.031643  0  0.998535  0  0.135255  0.141426  0  4.007027  0
C  C47  1  0.38229985  0.12691325  0.74916287  1  0  0.207342  0  3.745803  0  0  0.150237  0  4.017209  0  0  0.163679  0  4.031795  0  0.998548  0  0.135268  0.141394  0  4.007174  0
C  C48  1  0.12695447  0.38229830  0.24916227  1  0  0.207343  0  3.745462  0  0  0.150059  0  4.016899  0  0  0.163501  0  4.031494  0  0.999968  0  0.135272  0.141218  0  4.006862  0
C  C49  1  0.87304544  0.61770193  0.74916347  1  0  0.207349  0  3.745428  0  0  0.150063  0  4.016866  0  0  0.163505  0  4.03146  0  0.999953  0  0.135248  0.141222  0  4.006828  0
C  C50  1  0.45213503  0.04815026  0.21324245  1  0  0.202013  0  3.739938  0  0  0.14509  0  4.010427  0  0  0.158487  0  4.025699  0  0.928072  0  0.134013  0.136343  0  3.999859  0
C  C51  1  0.54786725  0.95184998  0.71324245  1  0  0.202001  0  3.73981  0  0  0.145071  0  4.010311  0  0  0.158467  0  4.025583  0  0.92806  0  0.134015  0.136324  0  3.999743  0
C  C52  1  0.95182799  0.54780430  0.21325204  1  0  0.201549  0  3.739747  0  0  0.144506  0  4.010236  0  0  0.157907  0  4.025519  0  0.92784  0  0.133707  0.135765  0  3.999662  0
C  C53  1  0.04817311  0.45219594  0.71325264  1  0  0.201547  0  3.739763  0  0  0.144508  0  4.01025  0  0  0.157904  0  4.025529  0  0.928259  0  0.133711  0.135766  0  3.999676  0
C  C54  1  0.65330635  0.34668755  0.48090784  1  0  0.198813  0  3.736529  0  0  0.146516  0  4.000256  0  0  0.15944  0  4.015654  0  0.942576  0  0.126207  0.138104  0  3.98956  0
C  C55  1  0.34669119  0.65331269  0.98090784  1  0  0.198781  0  3.736609  0  0  0.14651  0  4.00034  0  0  0.159434  0  4.015737  0  0.942765  0  0.126188  0.1381  0  3.989642  0
C  C56  1  0.82821188  0.17178167  0.50251079  1  0  0.187454  0  3.759111  0  0  0.13189  0  4.034694  0  0  0.145207  0  4.047981  0  0.935512  0  0.126361  0.123147  0  4.025502  0
C  C57  1  0.17178803  0.82821857  0.00251139  1  0  0.187451  0  3.759103  0  0  0.131891  0  4.034683  0  0  0.145207  0  4.047968  0  0.935494  0  0.126372  0.123147  0  4.025492  0
C  C58  1  0.28985072  0.99995875  0.40619907  1  0  0.389324  0  3.818786  0  0  0.316251  0  4.101906  0  0  0.344544  0  4.102967  0  1.362764  0  0.16735  0.297298  0  4.100646  0
C  C59  1  0.71014561  0.00003911  0.90620326  1  0  0.389506  0  3.818844  0  0  0.316435  0  4.101937  0  0  0.344727  0  4.102995  0  1.363638  0  0.167399  0.297484  0  4.100675  0
C  C60  1  0.00003648  0.71016949  0.40620686  1  0  0.389633  0  3.818635  0  0  0.316485  0  4.101762  0  0  0.344771  0  4.102822  0  1.363849  0  0.167342  0.297532  0  4.100508  0
C  C61  1  0.99995990  0.28983194  0.90620146  1  0  0.389436  0  3.818625  0  0  0.316306  0  4.101741  0  0  0.344592  0  4.102793  0  1.363513  0  0.167317  0.297353  0  4.100486  0
C  C62  1  0.29672881  0.09298667  0.54380573  1  0  -0.172558  0  3.637791  0  0  -0.270843  0  3.877887  0  0  -0.267035  0  3.88757  0  0.239976  0  -0.139991  -0.273144  0  3.871404  0
C  C63  1  0.70327109  0.90701238  0.04380813  1  0  -0.172512  0  3.637746  0  0  -0.270823  0  3.877836  0  0  -0.267019  0  3.887518  0  0.240089  0  -0.139971  -0.273127  0  3.871356  0
C  C64  1  0.90699895  0.70327158  0.54381472  1  0  -0.172434  0  3.63748  0  0  -0.270809  0  3.877614  0  0  -0.267013  0  3.887305  0  0.240339  0  -0.139922  -0.273113  0  3.871136  0
C  C65  1  0.09299739  0.29672747  0.04381412  1  0  -0.172495  0  3.637684  0  0  -0.270917  0  3.877784  0  0  -0.26713  0  3.887481  0  0.24036  0  -0.139935  -0.273221  0  3.871306  0
C  C66  1  0.48439262  0.88699777  0.49704279  1  0  -0.176686  0  3.646608  0  0  -0.274999  0  3.891468  0  0  -0.272003  0  3.901993  0  0.214767  0  -0.138267  -0.276706  0  3.884355  0
C  C67  1  0.51560375  0.11300365  0.99704698  1  0  -0.176713  0  3.646552  0  0  -0.274993  0  3.891448  0  0  -0.271998  0  3.901971  0  0.214759  0  -0.138268  -0.276696  0  3.884328  0
C  C68  1  0.11298432  0.51561997  0.49703679  1  0  -0.176754  0  3.646729  0  0  -0.275076  0  3.891653  0  0  -0.272089  0  3.902207  0  0.214434  0  -0.138404  -0.276766  0  3.884497  0
C  C69  1  0.88701557  0.48437789  0.99703260  1  0  -0.176772  0  3.646693  0  0  -0.275104  0  3.891601  0  0  -0.272115  0  3.902144  0  0.21448  0  -0.138385  -0.276794  0  3.884444  0
N  N70  1  0.68388191  0.01259520  0.26643277  1  0  -0.277563  0  3.164047  0  0  -0.216778  0  3.446337  0  0  -0.232277  0  3.463737  0  -0.755024  0  -0.256624  -0.206184  0  3.434264  0
N  N71  1  0.31611918  0.98740385  0.76643217  1  0  -0.277509  0  3.164214  0  0  -0.216716  0  3.446489  0  0  -0.232215  0  3.46389  0  -0.755012  0  -0.256588  -0.206122  0  3.434413  0
N  N72  1  0.98742283  0.31610207  0.26642258  1  0  -0.277585  0  3.163933  0  0  -0.216734  0  3.446206  0  0  -0.232229  0  3.4636  0  -0.755654  0  -0.256559  -0.206146  0  3.434146  0
N  N73  1  0.01257708  0.68389817  0.76642318  1  0  -0.277659  0  3.163927  0  0  -0.216806  0  3.446195  0  0  -0.2323  0  3.463588  0  -0.755701  0  -0.256579  -0.206218  0  3.434134  0
N  N74  1  0.57720022  0.12546493  0.24350192  1  0  -0.28617  0  3.202021  0  0  -0.218687  0  3.489968  0  0  -0.235907  0  3.507751  0  -0.767575  0  -0.266511  -0.207  0  3.477619  0
N  N75  1  0.42280087  0.87453531  0.74350132  1  0  -0.28616  0  3.202008  0  0  -0.218676  0  3.489961  0  0  -0.235897  0  3.50775  0  -0.767564  0  -0.26652  -0.206988  0  3.477613  0
N  N76  1  0.87450998  0.42274708  0.24350072  1  0  -0.285747  0  3.20171  0  0  -0.218265  0  3.489635  0  0  -0.235485  0  3.507416  0  -0.767533  0  -0.266332  -0.206578  0  3.477282  0
N  N77  1  0.12549231  0.57725316  0.74350192  1  0  -0.285725  0  3.201647  0  0  -0.218245  0  3.489572  0  0  -0.235465  0  3.507354  0  -0.76753  0  -0.266335  -0.206557  0  3.477219  0
N  N78  1  0.47223698  0.88937293  0.21591862  1  0  -0.446643  0  3.291114  0  0  -0.356713  0  3.570464  0  0  -0.382028  0  3.587122  0  -1.227971  0  -0.372538  -0.339463  0  3.558531  0
N  N79  1  0.52776530  0.11062731  0.71591862  1  0  -0.446677  0  3.291101  0  0  -0.356733  0  3.570454  0  0  -0.382047  0  3.587106  0  -1.227997  0  -0.37257  -0.339483  0  3.558522  0
N  N80  1  0.11063910  0.52773517  0.21592821  1  0  -0.446367  0  3.290946  0  0  -0.356487  0  3.570509  0  0  -0.381782  0  3.587116  0  -1.228869  0  -0.372506  -0.339237  0  3.558571  0
N  N81  1  0.88936200  0.47226507  0.71592821  1  0  -0.446415  0  3.290939  0  0  -0.35652  0  3.57048  0  0  -0.381814  0  3.587085  0  -1.229191  0  -0.372513  -0.339269  0  3.558542  0
N  N82  1  0.70265303  0.29732600  0.40937979  1  0  -0.288349  0  3.170177  0  0  -0.22261  0  3.449844  0  0  -0.240277  0  3.46973  0  -0.759131  0  -0.26151  -0.210552  0  3.435995  0
N  N83  1  0.29734567  0.70267186  0.90938039  1  0  -0.288314  0  3.170186  0  0  -0.222577  0  3.449845  0  0  -0.240244  0  3.46973  0  -0.759084  0  -0.261502  -0.210519  0  3.435994  0
N  N84  1  0.81525696  0.18472414  0.42337128  1  0  -0.272732  0  3.174939  0  0  -0.212766  0  3.459258  0  0  -0.228636  0  3.477405  0  -0.736139  0  -0.257271  -0.201845  0  3.44659  0
N  N85  1  0.18474414  0.81527610  0.92337128  1  0  -0.272746  0  3.174957  0  0  -0.212777  0  3.459272  0  0  -0.228648  0  3.47742  0  -0.736162  0  -0.257269  -0.201856  0  3.446603  0
N  N86  1  0.72889375  0.27110565  0.54133569  1  0  -0.452715  0  3.23535  0  0  -0.370143  0  3.520552  0  0  -0.394079  0  3.535685  0  -1.217281  0  -0.372831  -0.353824  0  3.509719  0
N  N87  1  0.27110615  0.72889340  0.04133569  1  0  -0.452704  0  3.235431  0  0  -0.370132  0  3.520621  0  0  -0.394072  0  3.535762  0  -1.217474  0  -0.372836  -0.353814  0  3.509786  0
N  N88  1  0.35413633  0.99284988  0.47936961  1  0  -0.074909  0  3.493469  0  0  0.030554  0  3.722403  0  0  0.010644  0  3.747107  0  -1.220011  0  -0.278762  0.043821  0  3.705282  0
N  N89  1  0.64586243  0.00715273  0.97937140  1  0  -0.075052  0  3.493591  0  0  0.03043  0  3.72251  0  0  0.010522  0  3.747213  0  -1.220043  0  -0.278787  0.043699  0  3.705389  0
N  N90  1  0.00713738  0.64587077  0.47936781  1  0  -0.075134  0  3.493592  0  0  0.030402  0  3.722489  0  0  0.010492  0  3.747187  0  -1.219897  0  -0.278644  0.043672  0  3.705373  0
N  N91  1  0.99286606  0.35412710  0.97936961  1  0  -0.075113  0  3.493589  0  0  0.030419  0  3.722538  0  0  0.010515  0  3.747237  0  -1.219835  0  -0.278658  0.043689  0  3.705422  0
Cl  Cl92  1  0.06975344  0.93017845  0.19178991  1  0  -0.618332  0  0.903105  0  0  -0.559803  0  1.185292  0  0  -0.577171  0  1.162731  0  -0.684573  0  -0.323503  -0.547177  0  1.200688  0
Cl  Cl93  1  0.93025005  0.06982297  0.69179051  1  0  -0.618307  0  0.903074  0  0  -0.559785  0  1.185262  0  0  -0.577152  0  1.162696  0  -0.684576  0  -0.323504  -0.54716  0  1.200658  0
Cl  Cl94  1  0.42765825  0.57237840  0.34517318  1  0  -0.606227  0  0.911122  0  0  -0.541421  0  1.185304  0  0  -0.559232  0  1.162512  0  -0.667075  0  -0.317231  -0.528445  0  1.200754  0
Cl  Cl95  1  0.57234045  0.42761947  0.84517558  1  0  -0.606217  0  0.911109  0  0  -0.541404  0  1.185279  0  0  -0.559215  0  1.162486  0  -0.667086  0  -0.317226  -0.528436  0  1.200744  0
Cl  Cl96  1  0.51916524  0.48081871  0.13960151  1  0  -0.596758  0  0.92759  0  0  -0.529584  0  1.204864  0  0  -0.547634  0  1.182617  0  -0.669148  0  -0.318334  -0.516534  0  1.219952  0
Cl  Cl97  1  0.48083589  0.51918389  0.63960031  1  0  -0.596722  0  0.927543  0  0  -0.529574  0  1.204849  0  0  -0.547622  0  1.182598  0  -0.669112  0  -0.318323  -0.516523  0  1.219937  0
O  O98  1  0.18178602  0.09366935  0.38724353  1  0  -0.556286  0  2.091656  0  0  -0.494845  0  2.352722  0  0  -0.520101  0  2.345118  0  -1.175041  0  -0.324802  -0.477289  0  2.357308  0
O  O99  1  0.81820571  0.90633918  0.88724593  1  0  -0.556308  0  2.091684  0  0  -0.494898  0  2.352819  0  0  -0.520154  0  2.345212  0  -1.175632  0  -0.324819  -0.477344  0  2.357404  0
O  O100  1  0.90636878  0.81825453  0.38726270  1  0  -0.556208  0  2.091314  0  0  -0.494787  0  2.352444  0  0  -0.520033  0  2.344842  0  -1.176473  0  -0.324724  -0.477234  0  2.357029  0
O  O101  1  0.09364175  0.18174216  0.88725971  1  0  -0.556207  0  2.091248  0  0  -0.494787  0  2.352373  0  0  -0.52004  0  2.344773  0  -1.176341  0  -0.324767  -0.477235  0  2.356955  0
