# generated using pymatgen
data_CdH6C6(NO)4
_symmetry_space_group_name_H-M   'P 1'
_cell_length_a   6.76125618
_cell_length_b   7.94406711
_cell_length_c   9.37876603
_cell_angle_alpha   98.83383103
_cell_angle_beta   96.65659876
_cell_angle_gamma   108.93906825
_symmetry_Int_Tables_number   1
_chemical_formula_structural   CdH6C6(NO)4
_chemical_formula_sum   'Cd2 H12 C12 N8 O8'
_cell_volume   463.36426215
_cell_formula_units_Z   2
loop_
 _symmetry_equiv_pos_site_id
 _symmetry_equiv_pos_as_xyz
  1  'x, y, z'
loop_
 _atom_site_type_symbol
 _atom_site_label
 _atom_site_symmetry_multiplicity
 _atom_site_fract_x
 _atom_site_fract_y
 _atom_site_fract_z
 _atom_site_occupancy
 _atom_site_hle17_bader_spin_density
 _atom_site_hle17_ddec_charge
 _atom_site_hle17_ddec_spin_density
 _atom_site_hle17_ddec_sum_bond_order
 _atom_site_hle17_magmom
 _atom_site_hse06_10hf_bader_spin_density
 _atom_site_hse06_10hf_ddec_charge
 _atom_site_hse06_10hf_ddec_spin_density
 _atom_site_hse06_10hf_ddec_sum_bond_order
 _atom_site_hse06_10hf_magmom
 _atom_site_hse06_bader_spin_density
 _atom_site_hse06_ddec_charge
 _atom_site_hse06_ddec_spin_density
 _atom_site_hse06_ddec_sum_bond_order
 _atom_site_hse06_magmom
 _atom_site_pbe_bader_spin_density
 _atom_site_pbe_cm5_charge
 _atom_site_pbe_ddec_charge
 _atom_site_pbe_ddec_spin_density
 _atom_site_pbe_ddec_sum_bond_order
 _atom_site_pbe_magmom
Cd  Cd0  1  0.00000095  0.50000217  0.50000137  1  0  1.195474  0  1.742017  0  0  1.018973  0  2.219546  0  0  1.069356  0  2.166078  0  0  0.800379  0.983589  0  2.255132  0
Cd  Cd1  1  0.00000058  0.99999767  0.49999962  1  0  1.26357  0  1.69098  0  0  1.103289  0  2.156849  0  0  1.150929  0  2.102184  0  0  0.798459  1.06934  0  2.195189  0
H  H2  1  0.46368943  0.25708586  0.52791166  1  0  0.431115  0  0.868828  0  0  0.396922  0  0.937319  0  0  0.408388  0  0.920781  0  0  0.288918  0.388691  0  0.949191  0
H  H3  1  0.53630866  0.74291386  0.47208712  1  0  0.431104  0  0.868845  0  0  0.396912  0  0.937333  0  0  0.408379  0  0.920794  0  0  0.288918  0.388679  0  0.949209  0
H  H4  1  0.39891566  0.09496480  0.38846641  1  0  0.404709  0  0.897128  0  0  0.375674  0  0.962471  0  0  0.384262  0  0.949894  0  0  0.294565  0.36963  0  0.971347  0
H  H5  1  0.60108596  0.90503630  0.61153286  1  0  0.404723  0  0.897116  0  0  0.375683  0  0.962461  0  0  0.384271  0  0.949883  0  0  0.294577  0.369644  0  0.971325  0
H  H6  1  0.37232334  0.77499775  0.21987065  1  0  0.117001  0  0.962221  0  0  0.121659  0  1.029855  0  0  0.125496  0  1.026229  0  0  0.128219  0.119122  0  1.03242  0
H  H7  1  0.62767569  0.22500061  0.78013016  1  0  0.116986  0  0.96224  0  0  0.121643  0  1.029866  0  0  0.125481  0  1.026241  0  0  0.128203  0.119107  0  1.032425  0
H  H8  1  0.30210141  0.68455897  0.94428404  1  0  0.125641  0  0.942774  0  0  0.129149  0  1.009302  0  0  0.132405  0  1.008534  0  0  0.11541  0.127402  0  1.009372  0
H  H9  1  0.69789871  0.31544212  0.05571617  1  0  0.125631  0  0.942759  0  0  0.129152  0  1.009294  0  0  0.132409  0  1.008526  0  0  0.11541  0.127401  0  1.009365  0
H  H10  1  0.13764047  0.12613413  0.98846684  1  0  0.124921  0  0.932125  0  0  0.134301  0  0.988004  0  0  0.137886  0  0.986135  0  0  0.118168  0.131955  0  0.989146  0
H  H11  1  0.86235912  0.87386561  0.01153100  1  0  0.124937  0  0.932121  0  0  0.13431  0  0.988005  0  0  0.137895  0  0.986135  0  0  0.118176  0.131968  0  0.989149  0
H  H12  1  0.21881696  0.23880833  0.26508062  1  0  0.117071  0  0.966257  0  0  0.121103  0  1.03608  0  0  0.125286  0  1.031427  0  0  0.129136  0.118483  0  1.03919  0
H  H13  1  0.78118059  0.76119004  0.73491687  1  0  0.117095  0  0.966233  0  0  0.121115  0  1.036068  0  0  0.125298  0  1.031415  0  0  0.129132  0.118498  0  1.039177  0
C  C14  1  0.31919474  0.63416461  0.16189285  1  0  0.009429  0  3.577251  0  0  -0.030894  0  3.838496  0  0  -0.025846  0  3.851796  0  0  0.03994  -0.034224  0  3.830072  0
C  C15  1  0.68080279  0.36583373  0.83810783  1  0  0.009402  0  3.577294  0  0  -0.030891  0  3.838558  0  0  -0.025844  0  3.851857  0  0  0.039942  -0.034218  0  3.830118  0
C  C16  1  0.27852742  0.58110237  0.01085143  1  0  -0.095859  0  3.732914  0  0  -0.11636  0  3.987943  0  0  -0.120797  0  4.009375  0  0  -0.072061  -0.114098  0  3.973744  0
C  C17  1  0.72147366  0.41889738  0.98914654  1  0  -0.095797  0  3.732847  0  0  -0.116355  0  3.987935  0  0  -0.12079  0  4.00936  0  0  -0.072025  -0.114088  0  3.973729  0
C  C18  1  0.20541523  0.39646886  0.94502995  1  0  -0.035574  0  3.739421  0  0  -0.023338  0  3.979214  0  0  -0.025583  0  3.999212  0  0  -0.00874  -0.021127  0  3.965649  0
C  C19  1  0.79458640  0.60353226  0.05496826  1  0  -0.035546  0  3.739261  0  0  -0.023303  0  3.979086  0  0  -0.025546  0  3.999082  0  0  -0.008764  -0.021095  0  3.965525  0
C  C20  1  0.18651287  0.27025468  0.03619306  1  0  -0.088712  0  3.714754  0  0  -0.10879  0  3.965463  0  0  -0.112364  0  3.983512  0  0  -0.068403  -0.106194  0  3.952312  0
C  C21  1  0.81348876  0.72974645  0.96380408  1  0  -0.088766  0  3.714825  0  0  -0.108826  0  3.965519  0  0  -0.112401  0  3.983567  0  0  -0.068411  -0.106237  0  3.95238  0
C  C22  1  0.23052423  0.32730727  0.18673385  1  0  0.025619  0  3.575421  0  0  -0.018238  0  3.840569  0  0  -0.011672  0  3.852404  0  0  0.046583  -0.021893  0  3.831727  0
C  C23  1  0.76947181  0.67269108  0.81326564  1  0  0.025573  0  3.575537  0  0  -0.018289  0  3.840703  0  0  -0.011721  0  3.852537  0  0  0.046569  -0.021944  0  3.831864  0
C  C24  1  0.14232255  0.33460155  0.78088840  1  0  0.653609  0  3.93204  0  0  0.603378  0  4.230997  0  0  0.637669  0  4.222894  0  0  0.204489  0.579576  0  4.23631  0
C  C25  1  0.85768261  0.66540094  0.21911030  1  0  0.653563  0  3.932013  0  0  0.603329  0  4.230986  0  0  0.637622  0  4.222883  0  0  0.204446  0.57954  0  4.236288  0
N  N26  1  0.11408822  0.79827329  0.61855161  1  0  -0.621524  0  2.783621  0  0  -0.578584  0  3.102657  0  0  -0.605374  0  3.106202  0  0  -0.317235  -0.561471  0  3.101225  0
N  N27  1  0.88591541  0.20172915  0.38145121  1  0  -0.621692  0  2.783712  0  0  -0.578728  0  3.102727  0  0  -0.605509  0  3.106249  0  0  -0.317292  -0.56161  0  3.101297  0
N  N28  1  0.28464575  0.86331939  0.69758094  1  0  0.422165  0  4.225927  0  0  0.450318  0  4.505024  0  0  0.46756  0  4.534992  0  0  0.088249  0.438738  0  4.485827  0
N  N29  1  0.71535843  0.13668441  0.30242212  1  0  0.422445  0  4.226021  0  0  0.450585  0  4.505096  0  0  0.467829  0  4.535066  0  0  0.088356  0.438995  0  4.485913  0
N  N30  1  0.45143097  0.92774206  0.77341172  1  0  -0.398663  0  2.426373  0  0  -0.38606  0  2.646039  0  0  -0.396156  0  2.654439  0  0  -0.186035  -0.380586  0  2.64144  0
N  N31  1  0.54857266  0.07226037  0.22659323  1  0  -0.398812  0  2.426401  0  0  -0.386219  0  2.646065  0  0  -0.396318  0  2.654466  0  0  -0.186081  -0.380725  0  2.641454  0
N  N32  1  0.29032898  0.50737793  0.24754138  1  0  0.281221  0  3.688338  0  0  0.332141  0  3.948353  0  0  0.332024  0  3.970692  0  0  -0.111762  0.33132  0  3.93309  0
N  N33  1  0.70966856  0.49262043  0.75245824  1  0  0.281252  0  3.68839  0  0  0.332172  0  3.948402  0  0  0.332057  0  3.970741  0  0  -0.111751  0.331354  0  3.933132  0
O  O34  1  0.18192745  0.45844418  0.70634165  1  0  -0.641631  0  2.018004  0  0  -0.582879  0  2.276719  0  0  -0.609386  0  2.265535  0  0  -0.333241  -0.56343  0  2.283125  0
O  O35  1  0.81807865  0.54155695  0.29365801  1  0  -0.641589  0  2.017951  0  0  -0.582836  0  2.276676  0  0  -0.609346  0  2.265491  0  0  -0.333205  -0.563391  0  2.283079  0
O  O36  1  0.05314762  0.16418346  0.73330000  1  0  -0.649013  0  2.000634  0  0  -0.586821  0  2.250724  0  0  -0.615483  0  2.240673  0  0  -0.330176  -0.56692  0  2.2573  0
O  O37  1  0.94685904  0.83581905  0.26669776  1  0  -0.649027  0  2.00068  0  0  -0.586831  0  2.250771  0  0  -0.615494  0  2.240719  0  0  -0.330164  -0.566936  0  2.257348  0
O  O38  1  0.31984167  0.55874764  0.39205962  1  0  -0.557171  0  1.818427  0  0  -0.500555  0  2.05253  0  0  -0.524471  0  2.048675  0  0  -0.231538  -0.482647  0  2.054471  0
O  O39  1  0.68015681  0.44124937  0.60793990  1  0  -0.557192  0  1.818457  0  0  -0.500557  0  2.052534  0  0  -0.524479  0  2.048684  0  0  -0.231535  -0.482653  0  2.054477  0
O  O40  1  0.35011550  0.13991226  0.47651306  1  0  -0.853849  0  1.894863  0  0  -0.793229  0  2.094014  0  0  -0.813961  0  2.060969  0  0  -0.593914  -0.778772  0  2.117467  0
O  O41  1  0.64988409  0.86008749  0.52348479  1  0  -0.853841  0  1.894844  0  0  -0.793227  0  2.094003  0  0  -0.81396  0  2.060958  0  0  -0.593914  -0.778771  0  2.117453  0
