# generated using pymatgen
data_PrH23C38(NO2)4
_symmetry_space_group_name_H-M   'P 1'
_cell_length_a   9.08208293
_cell_length_b   13.45224031
_cell_length_c   14.28233324
_cell_angle_alpha   96.65283731
_cell_angle_beta   96.69818355
_cell_angle_gamma   104.11936463
_symmetry_Int_Tables_number   1
_chemical_formula_structural   PrH23C38(NO2)4
_chemical_formula_sum   'Pr2 H46 C76 N8 O16'
_cell_volume   1661.69893500
_cell_formula_units_Z   2
loop_
 _symmetry_equiv_pos_site_id
 _symmetry_equiv_pos_as_xyz
  1  'x, y, z'
loop_
 _atom_site_type_symbol
 _atom_site_label
 _atom_site_symmetry_multiplicity
 _atom_site_fract_x
 _atom_site_fract_y
 _atom_site_fract_z
 _atom_site_occupancy
 _atom_site_hle17_bader_spin_density
 _atom_site_hle17_ddec_charge
 _atom_site_hle17_ddec_spin_density
 _atom_site_hle17_ddec_sum_bond_order
 _atom_site_hle17_magmom
 _atom_site_hse06_10hf_bader_spin_density
 _atom_site_hse06_10hf_ddec_charge
 _atom_site_hse06_10hf_ddec_spin_density
 _atom_site_hse06_10hf_ddec_sum_bond_order
 _atom_site_hse06_10hf_magmom
 _atom_site_hse06_bader_spin_density
 _atom_site_hse06_ddec_charge
 _atom_site_hse06_ddec_spin_density
 _atom_site_hse06_ddec_sum_bond_order
 _atom_site_hse06_magmom
 _atom_site_pbe_bader_spin_density
 _atom_site_pbe_cm5_charge
 _atom_site_pbe_ddec_charge
 _atom_site_pbe_ddec_spin_density
 _atom_site_pbe_ddec_sum_bond_order
 _atom_site_pbe_magmom
Pr  Pr0  1  0.86978693  0.85722842  0.51374439  1  0  2.198168  0  1.705502  0  0  2.002948  0  2.20502  0  0  2.051032  0  2.153408  0  0  1.493166  1.966319  0  2.244762  0
Pr  Pr1  1  0.13020926  0.14277316  0.48625091  1  0  2.198102  0  1.705574  0  0  2.002808  0  2.20518  0  0  2.050918  0  2.153528  0  0  1.493099  1.966188  0  2.244903  0
H  H2  1  0.44183693  0.99800950  0.30970045  1  0  0.104625  0  0.945908  0  0  0.11685  0  1.005014  0  0  0.119965  0  1.002094  0  0  0.112279  0.114612  0  1.007134  0
H  H3  1  0.55817567  0.00198878  0.69031180  1  0  0.104705  0  0.945784  0  0  0.116857  0  1.004997  0  0  0.11998  0  1.002063  0  0  0.112304  0.114618  0  1.007117  0
H  H4  1  0.11557430  0.70450617  0.30148818  1  0  0.076585  0  0.959794  0  0  0.085473  0  1.026152  0  0  0.088031  0  1.023503  0  0  0.115876  0.083648  0  1.027874  0
H  H5  1  0.88443788  0.29548825  0.69852080  1  0  0.076478  0  0.959904  0  0  0.085348  0  1.026282  0  0  0.087906  0  1.023632  0  0  0.115835  0.083521  0  1.028005  0
H  H6  1  0.81704815  0.71471283  0.82910054  1  0  0.106805  0  0.924836  0  0  0.118707  0  0.982866  0  0  0.122294  0  0.979642  0  0  0.112114  0.116881  0  0.983823  0
H  H7  1  0.18293766  0.28529890  0.17089374  1  0  0.106704  0  0.924876  0  0  0.118661  0  0.982868  0  0  0.122249  0  0.979643  0  0  0.11201  0.116839  0  0.983821  0
H  H8  1  0.78450291  0.41423465  0.83463720  1  0  0.347518  0  0.941494  0  0  0.306233  0  1.040476  0  0  0.319459  0  1.027232  0  0  0.285278  0.296991  0  1.049548  0
H  H9  1  0.21549699  0.58577073  0.16536791  1  0  0.347515  0  0.941526  0  0  0.306203  0  1.040555  0  0  0.319428  0  1.027313  0  0  0.285271  0.296963  0  1.049623  0
H  H10  1  0.98826051  0.05589087  0.23663107  1  0  0.101703  0  0.964309  0  0  0.110984  0  1.025711  0  0  0.11423  0  1.023844  0  0  0.110602  0.108697  0  1.026952  0
H  H11  1  0.01174543  0.94411295  0.76337151  1  0  0.101733  0  0.96425  0  0  0.111013  0  1.02565  0  0  0.114258  0  1.023784  0  0  0.110605  0.108725  0  1.026892  0
H  H12  1  0.97669900  0.65650078  0.39374726  1  0  0.069033  0  0.981534  0  0  0.076695  0  1.050593  0  0  0.079613  0  1.046881  0  0  0.118434  0.075208  0  1.051898  0
H  H13  1  0.02330339  0.34349686  0.60625085  1  0  0.069036  0  0.981499  0  0  0.076668  0  1.050593  0  0  0.079587  0  1.04688  0  0  0.118447  0.07518  0  1.051899  0
H  H14  1  0.46184252  0.71722511  0.13642403  1  0  0.098208  0  0.964511  0  0  0.103034  0  1.033862  0  0  0.106469  0  1.030517  0  0  0.119669  0.100526  0  1.036107  0
H  H15  1  0.53816090  0.28277795  0.86357757  1  0  0.098256  0  0.964408  0  0  0.103061  0  1.033793  0  0  0.106505  0  1.030437  0  0  0.119694  0.100552  0  1.03604  0
H  H16  1  0.53636003  0.89194935  0.58011334  1  0  0.077327  0  0.980199  0  0  0.08513  0  1.045396  0  0  0.08846  0  1.04159  0  0  0.118715  0.082659  0  1.04806  0
H  H17  1  0.46363246  0.10804290  0.41988482  1  0  0.07729  0  0.980146  0  0  0.085118  0  1.045318  0  0  0.088449  0  1.041514  0  0  0.118738  0.082643  0  1.047981  0
H  H18  1  0.63132313  0.53639132  0.09372682  1  0  0.110547  0  0.95401  0  0  0.117303  0  1.01698  0  0  0.12092  0  1.014292  0  0  0.1071  0.114648  0  1.01908  0
H  H19  1  0.36867684  0.46362262  0.90627787  1  0  0.110714  0  0.953748  0  0  0.117558  0  1.016616  0  0  0.121184  0  1.013913  0  0  0.107199  0.114901  0  1.018719  0
H  H20  1  0.23658379  0.73448813  0.71219417  1  0  0.067417  0  0.961009  0  0  0.073878  0  1.03123  0  0  0.076427  0  1.029488  0  0  0.10695  0.071866  0  1.032633  0
H  H21  1  0.76339139  0.26551356  0.28779746  1  0  0.067367  0  0.960892  0  0  0.07382  0  1.031164  0  0  0.076368  0  1.029428  0  0  0.106957  0.071811  0  1.032562  0
H  H22  1  0.69851457  0.98108432  0.96368516  1  0  0.088785  0  0.937478  0  0  0.102156  0  0.990702  0  0  0.105075  0  0.989061  0  0  0.104617  0.100211  0  0.991685  0
H  H23  1  0.30148872  0.01891563  0.03631678  1  0  0.088754  0  0.937513  0  0  0.102137  0  0.990726  0  0  0.105056  0  0.989085  0  0  0.10461  0.100192  0  0.991708  0
H  H24  1  0.95339910  0.06678696  0.06357025  1  0  0.086789  0  0.953008  0  0  0.097903  0  1.013385  0  0  0.100326  0  1.013304  0  0  0.100167  0.096082  0  1.013694  0
H  H25  1  0.04660481  0.93321454  0.93643192  1  0  0.086744  0  0.95308  0  0  0.097863  0  1.013446  0  0  0.100286  0  1.013366  0  0  0.100159  0.096045  0  1.01375  0
H  H26  1  0.48177227  0.89149311  0.03890451  1  0  0.095846  0  0.953527  0  0  0.105377  0  1.016048  0  0  0.108024  0  1.01577  0  0  0.102981  0.1034  0  1.016407  0
H  H27  1  0.51823084  0.10850917  0.96109769  1  0  0.095814  0  0.953626  0  0  0.105343  0  1.016141  0  0  0.107989  0  1.015863  0  0  0.102964  0.103366  0  1.0165  0
H  H28  1  0.14131556  0.62983838  0.49980626  1  0  0.102349  0  0.949306  0  0  0.113369  0  1.011257  0  0  0.116327  0  1.009085  0  0  0.110565  0.111577  0  1.011891  0
H  H29  1  0.85868774  0.37014759  0.50019479  1  0  0.102329  0  0.949294  0  0  0.113367  0  1.01125  0  0  0.116325  0  1.009078  0  0  0.110597  0.111589  0  1.01187  0
H  H30  1  0.22788333  0.67832438  0.99065579  1  0  0.081965  0  0.9545  0  0  0.086934  0  1.023813  0  0  0.089648  0  1.021839  0  0  0.109748  0.084679  0  1.025612  0
H  H31  1  0.77209794  0.32168429  0.00933500  1  0  0.082239  0  0.954377  0  0  0.087086  0  1.023809  0  0  0.089811  0  1.021812  0  0  0.109779  0.084829  0  1.025607  0
H  H32  1  0.25348921  0.81061558  0.57840485  1  0  0.121478  0  0.961294  0  0  0.130011  0  1.02021  0  0  0.133625  0  1.018918  0  0  0.116174  0.127692  0  1.020952  0
H  H33  1  0.74650696  0.18937197  0.42159585  1  0  0.121496  0  0.961314  0  0  0.130049  0  1.020205  0  0  0.133662  0  1.01891  0  0  0.1162  0.127729  0  1.020949  0
H  H34  1  0.07412068  0.82989553  0.07650285  1  0  0.085193  0  0.956875  0  0  0.096367  0  1.018946  0  0  0.098997  0  1.018849  0  0  0.095991  0.094551  0  1.019009  0
H  H35  1  0.92589069  0.17010519  0.92349558  1  0  0.085176  0  0.956918  0  0  0.096373  0  1.01896  0  0  0.099003  0  1.018864  0  0  0.095963  0.094557  0  1.019023  0
H  H36  1  0.88558883  0.48101205  0.29248891  1  0  0.109804  0  0.947347  0  0  0.122277  0  1.000081  0  0  0.124841  0  1.000794  0  0  0.110692  0.119556  0  1.001982  0
H  H37  1  0.11442098  0.51898477  0.70751246  1  0  0.109899  0  0.947289  0  0  0.122316  0  1.000072  0  0  0.124881  0  1.000784  0  0  0.110695  0.119592  0  1.001975  0
H  H38  1  0.17518718  0.47189647  0.39779184  1  0  0.102162  0  0.938456  0  0  0.115949  0  0.994445  0  0  0.11818  0  0.994554  0  0  0.106256  0.113286  0  0.996757  0
H  H39  1  0.82481767  0.52809339  0.60220626  1  0  0.102042  0  0.938541  0  0  0.115852  0  0.994525  0  0  0.118077  0  0.994649  0  0  0.106208  0.113191  0  0.996832  0
H  H40  1  0.34477926  0.38433911  0.31545860  1  0  0.10914  0  0.951222  0  0  0.120879  0  1.010129  0  0  0.123399  0  1.009365  0  0  0.109597  0.119169  0  1.010474  0
H  H41  1  0.65522731  0.61565231  0.68453842  1  0  0.109177  0  0.95126  0  0  0.120891  0  1.010199  0  0  0.123413  0  1.00943  0  0  0.109587  0.11918  0  1.010546  0
H  H42  1  0.93923963  0.83162148  0.21775433  1  0  0.084175  0  0.969833  0  0  0.095588  0  1.030359  0  0  0.097586  0  1.029976  0  0  0.099569  0.094292  0  1.0303  0
H  H43  1  0.06078893  0.16838068  0.78225046  1  0  0.08405  0  0.969976  0  0  0.095523  0  1.030451  0  0  0.097523  0  1.030067  0  0  0.0995  0.094227  0  1.030393  0
H  H44  1  0.71297509  0.68744407  0.22584085  1  0  0.096165  0  0.955824  0  0  0.104711  0  1.017859  0  0  0.107472  0  1.017807  0  0  0.101355  0.10287  0  1.017658  0
H  H45  1  0.28704356  0.31256666  0.77416698  1  0  0.096144  0  0.955873  0  0  0.104662  0  1.01793  0  0  0.107427  0  1.017869  0  0  0.101257  0.10282  0  1.01773  0
H  H46  1  0.60599151  0.38939803  0.26912943  1  0  0.108365  0  0.934512  0  0  0.11875  0  0.994756  0  0  0.122112  0  0.99172  0  0  0.115325  0.116902  0  0.995722  0
H  H47  1  0.39401818  0.61059567  0.73087228  1  0  0.108384  0  0.934517  0  0  0.118794  0  0.994712  0  0  0.122164  0  0.991678  0  0  0.115339  0.116944  0  0.995682  0
C  C48  1  0.40038147  0.91499242  0.28483320  1  0  -0.040052  0  3.641152  0  0  -0.078372  0  3.88465  0  0  -0.073503  0  3.901161  0  0  -0.055638  -0.081905  0  3.874631  0
C  C49  1  0.59962309  0.08500514  0.71517627  1  0  -0.039957  0  3.640883  0  0  -0.078188  0  3.884409  0  0  -0.073321  0  3.900913  0  0  -0.055597  -0.081724  0  3.874392  0
C  C50  1  0.21832686  0.75163722  0.28050872  1  0  0.123803  0  3.704773  0  0  0.078809  0  3.962608  0  0  0.087332  0  3.979861  0  0  0.053801  0.074383  0  3.950009  0
C  C51  1  0.78168674  0.24835798  0.71949976  1  0  0.124035  0  3.704808  0  0  0.079063  0  3.962643  0  0  0.087586  0  3.979901  0  0  0.053829  0.074638  0  3.950041  0
C  C52  1  0.18270048  0.90637485  0.38356744  1  0  0.707778  0  3.879359  0  0  0.65821  0  4.173867  0  0  0.693778  0  4.164013  0  0  0.234212  0.634099  0  4.180013  0
C  C53  1  0.81730410  0.09362275  0.61643714  1  0  0.70794  0  3.879179  0  0  0.658308  0  4.173813  0  0  0.693872  0  4.163963  0  0  0.234243  0.6342  0  4.179955  0
C  C54  1  0.27001639  0.85743358  0.31626963  1  0  -0.118707  0  3.730323  0  0  -0.091189  0  3.96844  0  0  -0.103901  0  3.992327  0  0  -0.012707  -0.084041  0  3.953387  0
C  C55  1  0.72999559  0.14256317  0.68374100  1  0  -0.118916  0  3.730241  0  0  -0.091381  0  3.968351  0  0  -0.104084  0  3.992233  0  0  -0.012808  -0.084235  0  3.953299  0
C  C56  1  0.61126143  0.61407977  0.41092331  1  0  0.146513  0  3.747746  0  0  0.142546  0  3.986115  0  0  0.14712  0  4.006495  0  0  0.129069  0.139423  0  3.972324  0
C  C57  1  0.38874022  0.38591322  0.58907421  1  0  0.14659  0  3.747868  0  0  0.142539  0  3.986293  0  0  0.147114  0  4.006671  0  0  0.12903  0.139417  0  3.972498  0
C  C58  1  0.51179131  0.66640912  0.45643405  1  0  0.149304  0  3.73785  0  0  0.144617  0  3.975028  0  0  0.148716  0  3.995708  0  0  0.126774  0.141452  0  3.961304  0
C  C59  1  0.48820580  0.33358079  0.54356209  1  0  0.149351  0  3.737858  0  0  0.144633  0  3.974926  0  0  0.148727  0  3.995605  0  0  0.126839  0.141468  0  3.9612  0
C  C60  1  0.93595315  0.71016629  0.83555229  1  0  -0.052968  0  3.674927  0  0  -0.092004  0  3.925406  0  0  -0.087768  0  3.941631  0  0  -0.062311  -0.094515  0  3.914183  0
C  C61  1  0.06403156  0.28984545  0.16444121  1  0  -0.052889  0  3.67485  0  0  -0.091957  0  3.925319  0  0  -0.087747  0  3.941523  0  0  -0.062247  -0.09445  0  3.914115  0
C  C62  1  0.79164565  0.95065670  0.33668040  1  0  0.691708  0  3.87815  0  0  0.646886  0  4.165389  0  0  0.681896  0  4.154914  0  0  0.218077  0.622936  0  4.171472  0
C  C63  1  0.20835464  0.04934404  0.66332071  1  0  0.69165  0  3.878166  0  0  0.646841  0  4.165384  0  0  0.681849  0  4.154909  0  0  0.21799  0.622891  0  4.171466  0
C  C64  1  0.94667795  0.75178785  0.66880902  1  0  0.628395  0  3.968227  0  0  0.582773  0  4.261701  0  0  0.616923  0  4.253975  0  0  0.185384  0.559866  0  4.266075  0
C  C65  1  0.05330651  0.24821769  0.33118165  1  0  0.628386  0  3.968074  0  0  0.58279  0  4.261557  0  0  0.616915  0  4.253845  0  0  0.185402  0.559899  0  4.265928  0
C  C66  1  0.75528513  0.96969434  0.23644655  1  0  -0.104018  0  3.698521  0  0  -0.087805  0  3.932997  0  0  -0.096525  0  3.955172  0  0  -0.010868  -0.082219  0  3.918478  0
C  C67  1  0.24471939  0.03030870  0.76355724  1  0  -0.104104  0  3.698627  0  0  -0.08782  0  3.933038  0  0  -0.096533  0  3.955219  0  0  -0.010894  -0.082232  0  3.918515  0
C  C68  1  0.61009549  0.92277987  0.18066367  1  0  0.056013  0  3.736683  0  0  0.063157  0  3.966811  0  0  0.064984  0  3.9923  0  0  0.004903  0.061722  0  3.950164  0
C  C69  1  0.38990731  0.07722163  0.81933912  1  0  0.056121  0  3.736616  0  0  0.063209  0  3.966848  0  0  0.065012  0  3.992371  0  0  0.004921  0.061772  0  3.950203  0
C  C70  1  0.47474737  0.86634491  0.22020767  1  0  0.021  0  3.762656  0  0  0.03942  0  4.004668  0  0  0.034728  0  4.027396  0  0  0.004473  0.041591  0  3.990109  0
C  C71  1  0.52526156  0.13365809  0.77979925  1  0  0.020743  0  3.762757  0  0  0.039089  0  4.004927  0  0  0.034387  0  4.0277  0  0  0.004392  0.041262  0  3.990363  0
C  C72  1  0.35399198  0.61410194  0.45112088  1  0  0.019347  0  3.80197  0  0  0.034539  0  4.036168  0  0  0.031805  0  4.061646  0  0  -0.001674  0.036694  0  4.018518  0
C  C73  1  0.64600721  0.38588483  0.54887785  1  0  0.01908  0  3.801983  0  0  0.034517  0  4.035858  0  0  0.031803  0  4.061299  0  0  -0.001847  0.036669  0  4.018213  0
C  C74  1  0.01664053  0.72483425  0.75885955  1  0  -0.114636  0  3.781655  0  0  -0.087963  0  4.016419  0  0  -0.099819  0  4.040454  0  0  -0.018688  -0.080512  0  4.000779  0
C  C75  1  0.98333557  0.27516976  0.24113312  1  0  -0.114613  0  3.781622  0  0  -0.088007  0  4.016476  0  0  -0.099784  0  4.040412  0  0  -0.018542  -0.080615  0  4.000916  0
C  C76  1  0.87630515  0.02194246  0.19327484  1  0  -0.065332  0  3.734981  0  0  -0.089099  0  3.985536  0  0  -0.088968  0  4.006627  0  0  -0.080808  -0.089063  0  3.971275  0
C  C77  1  0.12370017  0.97805980  0.80672892  1  0  -0.065321  0  3.734971  0  0  -0.089103  0  3.985511  0  0  -0.08897  0  4.006598  0  0  -0.080775  -0.089067  0  3.971252  0
C  C78  1  0.85597275  0.61395925  0.38173501  1  0  0.143664  0  3.731253  0  0  0.111828  0  3.994348  0  0  0.119895  0  4.009142  0  0  0.060825  0.107072  0  3.982533  0
C  C79  1  0.14403153  0.38603759  0.61826595  1  0  0.143612  0  3.731229  0  0  0.111794  0  3.994328  0  0  0.119862  0  4.009121  0  0  0.060772  0.107039  0  3.982511  0
C  C80  1  0.41194826  0.76022259  0.18808022  1  0  0.09304  0  3.636765  0  0  0.049666  0  3.895617  0  0  0.057353  0  3.909052  0  0  0.055976  0.045719  0  3.885644  0
C  C81  1  0.58806228  0.23977886  0.81192524  1  0  0.093167  0  3.636755  0  0  0.049817  0  3.895654  0  0  0.05751  0  3.90909  0  0  0.055933  0.045879  0  3.885662  0
C  C82  1  0.48133296  0.81301207  0.54513045  1  0  0.147049  0  3.709715  0  0  0.117998  0  3.962694  0  0  0.124736  0  3.979035  0  0  0.061518  0.114066  0  3.951275  0
C  C83  1  0.51866727  0.18698014  0.45486898  1  0  0.147068  0  3.709652  0  0  0.117989  0  3.962645  0  0  0.124726  0  3.978987  0  0  0.061469  0.114063  0  3.951222  0
C  C84  1  0.54877762  0.51304123  0.35797828  1  0  0.026673  0  3.774944  0  0  0.043026  0  4.004578  0  0  0.040434  0  4.029319  0  0  0.0023  0.045014  0  3.987691  0
C  C85  1  0.45122895  0.48695018  0.64202014  1  0  0.02665  0  3.775237  0  0  0.04307  0  4.004793  0  0  0.040478  0  4.029537  0  0  0.002362  0.045057  0  3.987902  0
C  C86  1  0.01013097  0.69236207  0.92082810  1  0  0.019482  0  3.779323  0  0  0.036737  0  4.01945  0  0  0.032478  0  4.042505  0  0  0.000577  0.038973  0  4.004473  0
C  C87  1  0.98985625  0.30765044  0.07916567  1  0  0.019552  0  3.77952  0  0  0.036876  0  4.01953  0  0  0.032615  0  4.042588  0  0  0.000614  0.039108  0  4.004551  0
C  C88  1  0.93016672  0.68249926  0.00539726  1  0  0.054997  0  3.752085  0  0  0.062174  0  3.981899  0  0  0.064862  0  4.006697  0  0  0.000518  0.060457  0  3.965199  0
C  C89  1  0.06982431  0.31751167  0.99459732  1  0  0.05508  0  3.752246  0  0  0.062132  0  3.982225  0  0  0.064833  0  4.007008  0  0  0.000496  0.060414  0  3.965505  0
C  C90  1  0.72880613  0.60141581  0.09175980  1  0  -0.040208  0  3.717015  0  0  -0.065201  0  3.963121  0  0  -0.063507  0  3.982556  0  0  -0.075977  -0.066406  0  3.950449  0
C  C91  1  0.27118961  0.39859585  0.90824012  1  0  -0.040489  0  3.716873  0  0  -0.065539  0  3.962908  0  0  -0.063851  0  3.982346  0  0  -0.07608  -0.066751  0  3.950231  0
C  C92  1  0.17080145  0.72187696  0.77100158  1  0  0.098343  0  3.737518  0  0  0.063148  0  3.998954  0  0  0.07028  0  4.015294  0  0  0.04162  0.058745  0  3.987795  0
C  C93  1  0.82917373  0.27812475  0.22898795  1  0  0.098685  0  3.737599  0  0  0.063461  0  3.99913  0  0  0.070574  0  4.015451  0  0  0.041618  0.059078  0  3.987983  0
C  C94  1  0.71506541  0.97911269  0.04028941  1  0  -0.048922  0  3.769423  0  0  -0.063038  0  4.018235  0  0  -0.062696  0  4.038271  0  0  -0.08227  -0.063131  0  4.004503  0
C  C95  1  0.28493800  0.02089037  0.95971290  1  0  -0.048977  0  3.769492  0  0  -0.063112  0  4.018316  0  0  -0.062772  0  4.038351  0  0  -0.082306  -0.063206  0  4.004586  0
C  C96  1  0.80506031  0.59850055  0.01187773  1  0  -0.11443  0  3.717212  0  0  -0.095594  0  3.94518  0  0  -0.105577  0  3.968559  0  0  -0.015492  -0.089163  0  3.92957  0
C  C97  1  0.19492690  0.40151195  0.98811745  1  0  -0.114511  0  3.717165  0  0  -0.095648  0  3.945174  0  0  -0.105636  0  3.968554  0  0  -0.015449  -0.089192  0  3.929532  0
C  C98  1  0.85709271  0.02670711  0.09580722  1  0  -0.071014  0  3.772341  0  0  -0.086064  0  4.026869  0  0  -0.089658  0  4.049591  0  0  -0.089886  -0.083608  0  4.011593  0
C  C99  1  0.14290928  0.97329517  0.90419629  1  0  -0.070908  0  3.772355  0  0  -0.085949  0  4.026869  0  0  -0.08954  0  4.049589  0  0  -0.089872  -0.083493  0  4.011596  0
C  C100  1  0.59281581  0.92815767  0.08268337  1  0  -0.115838  0  3.73419  0  0  -0.133989  0  3.979026  0  0  -0.138583  0  4.001478  0  0  -0.085399  -0.130551  0  3.963788  0
C  C101  1  0.40718699  0.07184383  0.91732011  1  0  -0.115809  0  3.734209  0  0  -0.133934  0  3.97906  0  0  -0.138514  0  4.001514  0  0  -0.085369  -0.130498  0  3.963824  0
C  C102  1  0.26178792  0.66726044  0.49880258  1  0  -0.04909  0  3.692872  0  0  -0.076756  0  3.949236  0  0  -0.074966  0  3.967608  0  0  -0.063693  -0.077573  0  3.935855  0
C  C103  1  0.73821552  0.33272866  0.50119394  1  0  -0.048942  0  3.692657  0  0  -0.076704  0  3.94897  0  0  -0.074918  0  3.967335  0  0  -0.063605  -0.077534  0  3.935588  0
C  C104  1  0.16534652  0.69216776  0.92544294  1  0  0.083291  0  3.675877  0  0  0.050327  0  3.936798  0  0  0.056415  0  3.951892  0  0  0.045919  0.046519  0  3.92692  0
C  C105  1  0.83463476  0.30784091  0.07454715  1  0  0.083021  0  3.6759  0  0  0.05016  0  3.936779  0  0  0.056246  0  3.951878  0  0  0.045861  0.046346  0  3.926932  0
C  C106  1  0.74681081  0.50164352  0.94093558  1  0  0.639872  0  3.830421  0  0  0.592822  0  4.127138  0  0  0.625986  0  4.118506  0  0  0.224769  0.570354  0  4.132396  0
C  C107  1  0.25318364  0.49837048  0.05906310  1  0  0.639723  0  3.830289  0  0  0.592666  0  4.127034  0  0  0.625825  0  4.118398  0  0  0.224606  0.57019  0  4.132296  0
C  C108  1  0.32488969  0.76768501  0.54432498  1  0  -0.112506  0  3.726123  0  0  -0.126067  0  3.981507  0  0  -0.132589  0  4.002296  0  0  -0.080784  -0.122538  0  3.96768  0
C  C109  1  0.67510900  0.23230331  0.45567460  1  0  -0.11251  0  3.725941  0  0  -0.126107  0  3.981402  0  0  -0.132628  0  4.00219  0  0  -0.080831  -0.122579  0  3.967579  0
C  C110  1  0.97734468  0.76503608  0.08106795  1  0  -0.133668  0  3.766766  0  0  -0.154201  0  4.020078  0  0  -0.159846  0  4.043204  0  0  -0.097547  -0.150159  0  4.003945  0
C  C111  1  0.02266520  0.23496929  0.91893301  1  0  -0.133696  0  3.766621  0  0  -0.15422  0  4.019996  0  0  -0.15987  0  4.043121  0  0  -0.097536  -0.150177  0  4.003855  0
C  C112  1  0.80447529  0.51563222  0.32593164  1  0  -0.117292  0  3.734783  0  0  -0.129188  0  3.986751  0  0  -0.136515  0  4.009309  0  0  -0.080156  -0.124522  0  3.973005  0
C  C113  1  0.19553501  0.48436304  0.67407100  1  0  -0.117495  0  3.735038  0  0  -0.12936  0  3.987023  0  0  -0.13669  0  4.009587  0  0  -0.080201  -0.124694  0  3.973274  0
C  C114  1  0.29588667  0.51137945  0.39940162  1  0  -0.091724  0  3.726405  0  0  -0.116263  0  3.984455  0  0  -0.119153  0  4.00725  0  0  -0.082296  -0.114206  0  3.970192  0
C  C115  1  0.70412089  0.48860885  0.60059582  1  0  -0.091412  0  3.726032  0  0  -0.116039  0  3.98401  0  0  -0.118939  0  4.006805  0  0  -0.082152  -0.113983  0  3.969749  0
C  C116  1  0.38916344  0.46311050  0.35366887  1  0  -0.08581  0  3.715488  0  0  -0.110425  0  3.97165  0  0  -0.112903  0  3.99396  0  0  -0.078337  -0.108707  0  3.956266  0
C  C117  1  0.61084454  0.53688168  0.64632973  1  0  -0.085973  0  3.715516  0  0  -0.11059  0  3.971665  0  0  -0.113068  0  3.993975  0  0  -0.078411  -0.108874  0  3.956282  0
C  C118  1  0.90094156  0.76657380  0.16013593  1  0  -0.043003  0  3.778349  0  0  -0.061001  0  4.034415  0  0  -0.060143  0  4.055687  0  0  -0.087268  -0.061384  0  4.019694  0
C  C119  1  0.09907435  0.23343000  0.83986389  1  0  -0.042806  0  3.778278  0  0  -0.060867  0  4.034328  0  0  -0.060013  0  4.055601  0  0  -0.087128  -0.06125  0  4.019608  0
C  C120  1  0.77472414  0.68509576  0.16500278  1  0  -0.0796  0  3.759002  0  0  -0.092922  0  4.015157  0  0  -0.097103  0  4.036829  0  0  -0.093407  -0.090133  0  4.000487  0
C  C121  1  0.22528304  0.31491117  0.83499815  1  0  -0.079494  0  3.759014  0  0  -0.092786  0  4.015185  0  0  -0.096966  0  4.036861  0  0  -0.093325  -0.089997  0  4.000515  0
C  C122  1  0.64996541  0.46520408  0.31332364  1  0  -0.03385  0  3.666477  0  0  -0.057953  0  3.911074  0  0  -0.055903  0  3.929834  0  0  -0.054165  -0.058977  0  3.897719  0
C  C123  1  0.35004208  0.53478965  0.68667581  1  0  -0.033743  0  3.666549  0  0  -0.057848  0  3.911029  0  0  -0.055811  0  3.929805  0  0  -0.054132  -0.05887  0  3.897671  0
N  N124  1  0.28722224  0.70429437  0.21792185  1  0  -0.292117  0  3.208945  0  0  -0.227053  0  3.464308  0  0  -0.241911  0  3.479956  0  0  -0.302608  -0.217065  0  3.452729  0
N  N125  1  0.71278959  0.29570475  0.78208274  1  0  -0.292204  0  3.208901  0  0  -0.227152  0  3.464254  0  0  -0.242022  0  3.479908  0  0  -0.302504  -0.217165  0  3.452672  0
N  N126  1  0.76303736  0.66309979  0.42171910  1  0  -0.419036  0  3.236289  0  0  -0.368384  0  3.505839  0  0  -0.381763  0  3.52204  0  0  -0.373565  -0.358827  0  3.493827  0
N  N127  1  0.23696410  0.33689553  0.57827868  1  0  -0.418975  0  3.236273  0  0  -0.368299  0  3.505845  0  0  -0.381681  0  3.522047  0  0  -0.373535  -0.358744  0  3.493829  0
N  N128  1  0.57339143  0.76383965  0.50418781  1  0  -0.404298  0  3.229513  0  0  -0.350659  0  3.491665  0  0  -0.363644  0  3.508559  0  0  -0.372259  -0.342054  0  3.479977  0
N  N129  1  0.42660599  0.23615104  0.49580703  1  0  -0.404321  0  3.229509  0  0  -0.350682  0  3.491659  0  0  -0.363672  0  3.508557  0  0  -0.372263  -0.342078  0  3.479968  0
N  N130  1  0.24503023  0.70643249  0.85233643  1  0  -0.310121  0  3.068854  0  0  -0.27759  0  3.343981  0  0  -0.287378  0  3.355574  0  0  -0.330422  -0.270646  0  3.334511  0
N  N131  1  0.75494760  0.29357309  0.14765304  1  0  -0.310414  0  3.068949  0  0  -0.277862  0  3.34405  0  0  -0.287658  0  3.355651  0  0  -0.330507  -0.270918  0  3.334577  0
O  O132  1  0.06657537  0.84691224  0.40850253  1  0  -0.718703  0  2.018719  0  0  -0.664482  0  2.278366  0  0  -0.689776  0  2.268585  0  0  -0.379114  -0.647431  0  2.285046  0
O  O133  1  0.93342750  0.15308382  0.59149964  1  0  -0.718793  0  2.018774  0  0  -0.664497  0  2.278355  0  0  -0.689793  0  2.268569  0  0  -0.379161  -0.647449  0  2.285033  0
O  O134  1  0.23007518  0.00393432  0.41005679  1  0  -0.720639  0  2.01884  0  0  -0.664152  0  2.268242  0  0  -0.68911  0  2.25639  0  0  -0.382977  -0.64606  0  2.275602  0
O  O135  1  0.76992277  0.99606333  0.58994449  1  0  -0.720728  0  2.018814  0  0  -0.664216  0  2.268222  0  0  -0.68917  0  2.256374  0  0  -0.382951  -0.646124  0  2.275585  0
O  O136  1  0.83038718  0.78973954  0.66954946  1  0  -0.692082  0  1.930482  0  0  -0.644783  0  2.162769  0  0  -0.667707  0  2.152417  0  0  -0.386035  -0.628929  0  2.16924  0
O  O137  1  0.16959686  0.21026213  0.33044074  1  0  -0.692148  0  1.930133  0  0  -0.644808  0  2.162348  0  0  -0.667735  0  2.152008  0  0  -0.386092  -0.628964  0  2.168829  0
O  O138  1  0.71823268  0.86629007  0.35984895  1  0  -0.675211  0  2.008401  0  0  -0.626802  0  2.24947  0  0  -0.651597  0  2.243985  0  0  -0.372075  -0.608982  0  2.252028  0
O  O139  1  0.28176732  0.13370992  0.64014855  1  0  -0.675203  0  2.008378  0  0  -0.626789  0  2.249419  0  0  -0.6516  0  2.243963  0  0  -0.372062  -0.60897  0  2.251978  0
O  O140  1  0.00870546  0.74085773  0.59367231  1  0  -0.694694  0  2.004792  0  0  -0.644887  0  2.253635  0  0  -0.669335  0  2.245664  0  0  -0.380248  -0.627866  0  2.258182  0
O  O141  1  0.99128109  0.25914468  0.40632096  1  0  -0.694696  0  2.004875  0  0  -0.644866  0  2.253659  0  0  -0.669322  0  2.245705  0  0  -0.380222  -0.627844  0  2.258199  0
O  O142  1  0.90108240  0.01514195  0.39522184  1  0  -0.814507  0  2.091275  0  0  -0.74989  0  2.34938  0  0  -0.774893  0  2.336672  0  0  -0.416578  -0.731785  0  2.357656  0
O  O143  1  0.09891978  0.98485799  0.60478212  1  0  -0.814451  0  2.09124  0  0  -0.749816  0  2.349252  0  0  -0.774815  0  2.336552  0  0  -0.416457  -0.731724  0  2.357555  0
O  O144  1  0.83416625  0.48784407  0.87402766  1  0  -0.549942  0  2.112204  0  0  -0.498333  0  2.336059  0  0  -0.521049  0  2.324219  0  0  -0.339641  -0.482355  0  2.343816  0
O  O145  1  0.16582622  0.51216214  0.12597489  1  0  -0.549932  0  2.11208  0  0  -0.498286  0  2.335926  0  0  -0.521005  0  2.32409  0  0  -0.33955  -0.482307  0  2.343685  0
O  O146  1  0.62675586  0.43705923  0.94688460  1  0  -0.556388  0  1.952093  0  0  -0.51405  0  2.168241  0  0  -0.534419  0  2.159937  0  0  -0.289018  -0.500051  0  2.173862  0
O  O147  1  0.37323138  0.56294778  0.05311765  1  0  -0.556188  0  1.952188  0  0  -0.513924  0  2.168404  0  0  -0.534283  0  2.160092  0  0  -0.289012  -0.499927  0  2.17403  0
