# generated using pymatgen
data_Ag2H12C17O11
_symmetry_space_group_name_H-M   'P 1'
_cell_length_a   8.54371777
_cell_length_b   9.78124808
_cell_length_c   11.46321340
_cell_angle_alpha   67.14886992
_cell_angle_beta   82.45873791
_cell_angle_gamma   71.77534621
_symmetry_Int_Tables_number   1
_chemical_formula_structural   Ag2H12C17O11
_chemical_formula_sum   'Ag4 H24 C34 O22'
_cell_volume   838.44206600
_cell_formula_units_Z   2
loop_
 _symmetry_equiv_pos_site_id
 _symmetry_equiv_pos_as_xyz
  1  'x, y, z'
loop_
 _atom_site_type_symbol
 _atom_site_label
 _atom_site_symmetry_multiplicity
 _atom_site_fract_x
 _atom_site_fract_y
 _atom_site_fract_z
 _atom_site_occupancy
 _atom_site_hle17_bader_spin_density
 _atom_site_hle17_ddec_charge
 _atom_site_hle17_ddec_spin_density
 _atom_site_hle17_ddec_sum_bond_order
 _atom_site_hle17_magmom
 _atom_site_hse06_10hf_bader_spin_density
 _atom_site_hse06_10hf_ddec_charge
 _atom_site_hse06_10hf_ddec_spin_density
 _atom_site_hse06_10hf_ddec_sum_bond_order
 _atom_site_hse06_10hf_magmom
 _atom_site_hse06_bader_spin_density
 _atom_site_hse06_ddec_charge
 _atom_site_hse06_ddec_spin_density
 _atom_site_hse06_ddec_sum_bond_order
 _atom_site_hse06_magmom
 _atom_site_pbe_bader_spin_density
 _atom_site_pbe_cm5_charge
 _atom_site_pbe_ddec_charge
 _atom_site_pbe_ddec_spin_density
 _atom_site_pbe_ddec_sum_bond_order
 _atom_site_pbe_magmom
Ag  Ag0  1  0.07610903  0.11027385  0.91774911  1  0  0.588826  0  1.425527  0  0  0.474678  0  1.904102  0  0  0.511239  0  1.832554  0  0  0.404611  0.448984  0  1.954265  0
Ag  Ag1  1  0.92389199  0.88972550  0.08225056  1  0  0.58882  0  1.425524  0  0  0.474669  0  1.904102  0  0  0.511231  0  1.832555  0  0  0.404605  0.448976  0  1.954263  0
Ag  Ag2  1  0.38835499  0.94574306  0.09017352  1  0  0.593568  0  1.409875  0  0  0.46575  0  1.889451  0  0  0.504216  0  1.820207  0  0  0.411054  0.438319  0  1.938568  0
Ag  Ag3  1  0.61164721  0.05425629  0.90982691  1  0  0.593558  0  1.409893  0  0  0.465729  0  1.889482  0  0  0.504198  0  1.820235  0  0  0.411042  0.438298  0  1.938601  0
H  H4  1  0.12621520  0.30580228  0.02735834  1  0  0.413113  0  0.877529  0  0  0.37996  0  0.958094  0  0  0.392488  0  0.944495  0  0  0.307076  0.371143  0  0.967518  0
H  H5  1  0.87378547  0.69419822  0.97264186  1  0  0.413097  0  0.877557  0  0  0.379912  0  0.958164  0  0  0.392436  0  0.944564  0  0  0.307066  0.371096  0  0.967588  0
H  H6  1  0.29125390  0.59363821  0.96347182  1  0  0.120327  0  0.96651  0  0  0.126887  0  1.035182  0  0  0.130737  0  1.032005  0  0  0.109965  0.124157  0  1.037271  0
H  H7  1  0.70874713  0.40636113  0.03652872  1  0  0.120356  0  0.966472  0  0  0.126877  0  1.035188  0  0  0.130728  0  1.032013  0  0  0.109965  0.124146  0  1.037277  0
H  H8  1  0.61482085  0.78487071  0.66624191  1  0  0.111576  0  0.985996  0  0  0.118166  0  1.057033  0  0  0.121759  0  1.053991  0  0  0.108903  0.115636  0  1.059249  0
H  H9  1  0.38517781  0.21512864  0.33375800  1  0  0.11158  0  0.985979  0  0  0.118165  0  1.057028  0  0  0.121759  0  1.053985  0  0  0.108903  0.115636  0  1.059242  0
H  H10  1  0.44329729  0.41623612  0.66370429  1  0  0.132443  0  0.946842  0  0  0.135765  0  1.018049  0  0  0.140262  0  1.013957  0  0  0.113155  0.132636  0  1.020806  0
H  H11  1  0.55670066  0.58376555  0.33629493  1  0  0.132442  0  0.946833  0  0  0.135773  0  1.01803  0  0  0.140269  0  1.013939  0  0  0.113161  0.13264  0  1.020793  0
H  H12  1  0.70802742  0.78672686  0.48694760  1  0  0.049189  0  0.922829  0  0  0.059954  0  0.98939  0  0  0.060616  0  0.987169  0  0  0.112781  0.0594  0  0.990884  0
H  H13  1  0.29196864  0.21327712  0.51305106  1  0  0.049163  0  0.922858  0  0  0.059923  0  0.989414  0  0  0.060584  0  0.987197  0  0  0.112789  0.05937  0  0.99091  0
H  H14  1  0.80100878  0.64321759  0.41597844  1  0  0.074879  0  0.90516  0  0  0.084356  0  0.969963  0  0  0.085254  0  0.96786  0  0  0.12182  0.083655  0  0.971344  0
H  H15  1  0.19898881  0.35678524  0.58401957  1  0  0.074858  0  0.905228  0  0  0.084334  0  0.970027  0  0  0.085228  0  0.967935  0  0  0.121817  0.083634  0  0.971407  0
H  H16  1  0.09052180  0.68483879  0.42168875  1  0  0.130799  0  0.93954  0  0  0.136588  0  1.006792  0  0  0.141306  0  1.002183  0  0  0.115687  0.133287  0  1.00987  0
H  H17  1  0.90947887  0.31516172  0.57831057  1  0  0.130794  0  0.939533  0  0  0.136584  0  1.006786  0  0  0.141303  0  1.002175  0  0  0.11569  0.133283  0  1.009865  0
H  H18  1  0.42316342  0.99899068  0.31594985  1  0  0.407889  0  0.883794  0  0  0.376834  0  0.960838  0  0  0.389599  0  0.946974  0  0  0.304954  0.367865  0  0.970364  0
H  H19  1  0.57683607  0.00100982  0.68405046  1  0  0.407896  0  0.883766  0  0  0.376847  0  0.960801  0  0  0.389613  0  0.94695  0  0  0.304971  0.36788  0  0.970326  0
H  H20  1  0.22502356  0.94385081  0.60217975  1  0  0.112206  0  0.950167  0  0  0.118486  0  1.018836  0  0  0.122473  0  1.01533  0  0  0.108039  0.115707  0  1.021154  0
H  H21  1  0.77497747  0.05614853  0.39782080  1  0  0.112224  0  0.950165  0  0  0.11851  0  1.018824  0  0  0.122497  0  1.015317  0  0  0.108047  0.11573  0  1.021139  0
H  H22  1  0.86959288  0.69238334  0.78006922  1  0  0.131882  0  0.939508  0  0  0.140717  0  1.003346  0  0  0.144534  0  1.000171  0  0  0.115711  0.137944  0  1.005696  0
H  H23  1  0.13040779  0.30761716  0.21993098  1  0  0.13187  0  0.939525  0  0  0.1407  0  1.003375  0  0  0.144518  0  1.000199  0  0  0.115705  0.137927  0  1.005724  0
H  H24  1  0.74325294  0.32318170  0.88703858  1  0  0.416435  0  0.875105  0  0  0.389599  0  0.940841  0  0  0.398845  0  0.927309  0  0  0.291269  0.383024  0  0.950508  0
H  H25  1  0.25674808  0.67681765  0.11296109  1  0  0.416444  0  0.875093  0  0  0.389604  0  0.940837  0  0  0.398849  0  0.927305  0  0  0.291268  0.383027  0  0.950505  0
H  H26  1  0.83121873  0.42134715  0.76837760  1  0  0.40986  0  0.879033  0  0  0.377625  0  0.953481  0  0  0.387014  0  0.93981  0  0  0.291895  0.371075  0  0.962966  0
H  H27  1  0.16877840  0.57865334  0.23162296  1  0  0.409834  0  0.879084  0  0  0.377593  0  0.953531  0  0  0.386983  0  0.93986  0  0  0.291856  0.371043  0  0.963017  0
C  C28  1  0.25767593  0.38338191  0.87681488  1  0  0.663646  0  3.800621  0  0  0.610943  0  4.093385  0  0  0.644836  0  4.08637  0  0  0.231587  0.58773  0  4.098  0
C  C29  1  0.74232628  0.61661743  0.12318555  1  0  0.663627  0  3.800684  0  0  0.610905  0  4.093462  0  0  0.644798  0  4.086448  0  0  0.231565  0.587692  0  4.098076  0
C  C30  1  0.35468160  0.49649557  0.81830916  1  0  -0.061746  0  3.78705  0  0  -0.034147  0  4.020397  0  0  -0.043748  0  4.045337  0  0  -0.017746  -0.027861  0  4.003508  0
C  C31  1  0.64531942  0.50350378  0.18169051  1  0  -0.061687  0  3.78696  0  0  -0.03408  0  4.020287  0  0  -0.043681  0  4.045229  0  0  -0.01771  -0.027794  0  4.003393  0
C  C32  1  0.36028966  0.59714666  0.87623374  1  0  -0.067613  0  3.670943  0  0  -0.112538  0  3.924537  0  0  -0.11015  0  3.943858  0  0  -0.080216  -0.113157  0  3.910551  0
C  C33  1  0.63971055  0.40285152  0.12376727  1  0  -0.067713  0  3.670964  0  0  -0.112645  0  3.924572  0  0  -0.110255  0  3.943883  0  0  -0.080247  -0.113264  0  3.910583  0
C  C34  1  0.45317475  0.70161646  0.82077251  1  0  -0.043021  0  3.747891  0  0  -0.013123  0  3.98254  0  0  -0.021944  0  4.004884  0  0  -0.012759  -0.007474  0  3.96748  0
C  C35  1  0.54682628  0.29838288  0.17922803  1  0  -0.042979  0  3.747872  0  0  -0.01299  0  3.982406  0  0  -0.021808  0  4.004748  0  0  -0.012736  -0.007342  0  3.967343  0
C  C36  1  0.45880798  0.80919040  0.88272890  1  0  0.672637  0  3.849795  0  0  0.611418  0  4.138974  0  0  0.648357  0  4.133655  0  0  0.217648  0.58639  0  4.141551  0
C  C37  1  0.54119305  0.19080894  0.11727164  1  0  0.672664  0  3.849752  0  0  0.611394  0  4.138961  0  0  0.648332  0  4.13364  0  0  0.217671  0.586364  0  4.141533  0
C  C38  1  0.54267166  0.70342205  0.70860722  1  0  -0.171939  0  3.694252  0  0  -0.211094  0  3.950159  0  0  -0.210874  0  3.966611  0  0  -0.090983  -0.211442  0  3.939719  0
C  C39  1  0.45733091  0.29657613  0.29139442  1  0  -0.172008  0  3.694366  0  0  -0.211171  0  3.950262  0  0  -0.210953  0  3.966715  0  0  -0.09103  -0.211519  0  3.939818  0
C  C40  1  0.53873081  0.59996256  0.65340875  1  0  0.25714  0  3.790856  0  0  0.25016  0  4.056463  0  0  0.257884  0  4.072152  0  0  0.079939  0.244687  0  4.046242  0
C  C41  1  0.46126748  0.40003796  0.34658907  1  0  0.257117  0  3.790856  0  0  0.250095  0  4.05653  0  0  0.257819  0  4.072219  0  0  0.07992  0.244621  0  4.046304  0
C  C42  1  0.44410135  0.49690298  0.70724687  1  0  -0.136686  0  3.656938  0  0  -0.173596  0  3.911007  0  0  -0.173089  0  3.927535  0  0  -0.079658  -0.174194  0  3.900299  0
C  C43  1  0.55589694  0.50309753  0.29275182  1  0  -0.136658  0  3.656792  0  0  -0.173543  0  3.910824  0  0  -0.173036  0  3.927354  0  0  -0.07966  -0.17414  0  3.900113  0
C  C44  1  0.75186239  0.66197932  0.50374153  1  0  0.266179  0  3.601726  0  0  0.183354  0  3.889243  0  0  0.198508  0  3.887653  0  0  0.031613  0.173192  0  3.890116  0
C  C45  1  0.24813485  0.33802466  0.49625701  1  0  0.266234  0  3.601827  0  0  0.183429  0  3.889344  0  0  0.198582  0  3.887753  0  0  0.03161  0.173264  0  3.890223  0
C  C46  1  0.97078842  0.67933148  0.60141159  1  0  0.248018  0  3.788987  0  0  0.245005  0  4.055589  0  0  0.249571  0  4.074101  0  0  0.077708  0.241676  0  4.043022  0
C  C47  1  0.02921450  0.32066554  0.39858952  1  0  0.248043  0  3.788989  0  0  0.245026  0  4.055601  0  0  0.249592  0  4.074113  0  0  0.077718  0.241702  0  4.043023  0
C  C48  1  0.07858996  0.72228412  0.50109115  1  0  -0.131834  0  3.659217  0  0  -0.172638  0  3.916793  0  0  -0.171179  0  3.933448  0  0  -0.07732  -0.173202  0  3.905093  0
C  C49  1  0.92141107  0.27771522  0.49890939  1  0  -0.131821  0  3.659174  0  0  -0.172633  0  3.916768  0  0  -0.171174  0  3.933422  0  0  -0.077312  -0.1732  0  3.905068  0
C  C50  1  0.17242077  0.81616396  0.50252512  1  0  -0.068096  0  3.793341  0  0  -0.040588  0  4.026665  0  0  -0.051511  0  4.05231  0  0  -0.015457  -0.033501  0  4.009442  0
C  C51  1  0.82757873  0.18383653  0.49747520  1  0  -0.068055  0  3.793351  0  0  -0.040547  0  4.026662  0  0  -0.051468  0  4.052307  0  0  -0.015448  -0.033463  0  4.009441  0
C  C52  1  0.28319381  0.86361465  0.39302386  1  0  0.664423  0  3.784867  0  0  0.612975  0  4.075072  0  0  0.647406  0  4.067005  0  0  0.236019  0.589579  0  4.079953  0
C  C53  1  0.71680568  0.13638585  0.60697646  1  0  0.664363  0  3.784971  0  0  0.612942  0  4.075149  0  0  0.64737  0  4.067087  0  0  0.236016  0.589547  0  4.080034  0
C  C54  1  0.15544491  0.86811693  0.60210714  1  0  -0.064428  0  3.708078  0  0  -0.106125  0  3.958355  0  0  -0.103738  0  3.980218  0  0  -0.075096  -0.107669  0  3.943797  0
C  C55  1  0.84455577  0.13188356  0.39789393  1  0  -0.064471  0  3.708108  0  0  -0.106157  0  3.958359  0  0  -0.10377  0  3.98022  0  0  -0.075108  -0.107698  0  3.943797  0
C  C56  1  0.04696087  0.82437443  0.70260647  1  0  -0.061556  0  3.761119  0  0  -0.030582  0  3.994107  0  0  -0.041103  0  4.019086  0  0  -0.017023  -0.024026  0  3.977725  0
C  C57  1  0.95304016  0.17562491  0.29739407  1  0  -0.06154  0  3.761081  0  0  -0.030569  0  3.994069  0  0  -0.041089  0  4.019047  0  0  -0.01702  -0.024013  0  3.977681  0
C  C58  1  0.02823502  0.88758286  0.80540469  1  0  0.661608  0  3.872401  0  0  0.604021  0  4.159116  0  0  0.639906  0  4.155808  0  0  0.21581  0.579613  0  4.160493  0
C  C59  1  0.97176601  0.11241648  0.19459585  1  0  0.661624  0  3.872409  0  0  0.604045  0  4.159113  0  0  0.63993  0  4.155804  0  0  0.215825  0.579636  0  4.160486  0
C  C60  1  0.95500049  0.72806504  0.70300215  1  0  -0.131458  0  3.641005  0  0  -0.171278  0  3.894522  0  0  -0.169874  0  3.911232  0  0  -0.078037  -0.172103  0  3.883496  0
C  C61  1  0.04500053  0.27193431  0.29699752  1  0  -0.131488  0  3.641004  0  0  -0.171306  0  3.894524  0  0  -0.169902  0  3.911234  0  0  -0.078053  -0.172133  0  3.883492  0
O  O62  1  0.18307770  0.39068935  0.98409311  1  0  -0.533504  0  2.106274  0  0  -0.476393  0  2.325203  0  0  -0.49861  0  2.310939  0  0  -0.32325  -0.461109  0  2.334826  0
O  O63  1  0.81692366  0.60930886  0.01590603  1  0  -0.533512  0  2.106238  0  0  -0.476357  0  2.325192  0  0  -0.498574  0  2.310921  0  0  -0.323238  -0.461075  0  2.334816  0
O  O64  1  0.25134777  0.29092194  0.82891780  1  0  -0.583389  0  1.99924  0  0  -0.529996  0  2.257502  0  0  -0.554319  0  2.243192  0  0  -0.298479  -0.512867  0  2.267183  0
O  O65  1  0.74865669  0.70907393  0.17108353  1  0  -0.583347  0  1.999383  0  0  -0.529949  0  2.257645  0  0  -0.554272  0  2.243334  0  0  -0.298444  -0.512823  0  2.26733  0
O  O66  1  0.39838352  0.78650039  0.99375655  1  0  -0.626909  0  2.166302  0  0  -0.542494  0  2.438458  0  0  -0.576775  0  2.428501  0  0  -0.304398  -0.51904  0  2.444844  0
O  O67  1  0.60161632  0.21349896  0.00624324  1  0  -0.626942  0  2.166331  0  0  -0.542504  0  2.438489  0  0  -0.576788  0  2.428536  0  0  -0.304413  -0.51905  0  2.444875  0
O  O68  1  0.52725291  0.91717610  0.82269144  1  0  -0.636389  0  2.151175  0  0  -0.551609  0  2.410785  0  0  -0.584361  0  2.398106  0  0  -0.316168  -0.528235  0  2.418354  0
O  O69  1  0.47274658  0.08282440  0.17730888  1  0  -0.636382  0  2.15116  0  0  -0.551586  0  2.410768  0  0  -0.584346  0  2.398113  0  0  -0.316169  -0.528223  0  2.418368  0
O  O70  1  0.62578762  0.58989121  0.54484829  1  0  -0.291111  0  2.319366  0  0  -0.223019  0  2.56068  0  0  -0.241222  0  2.562264  0  0  -0.174936  -0.210353  0  2.559091  0
O  O71  1  0.37420996  0.41011162  0.45514972  1  0  -0.2911  0  2.319314  0  0  -0.223012  0  2.560637  0  0  -0.241214  0  2.562219  0  0  -0.174927  -0.210348  0  2.559052  0
O  O72  1  0.87565359  0.58659421  0.60152052  1  0  -0.360392  0  2.28654  0  0  -0.287133  0  2.521737  0  0  -0.303863  0  2.522407  0  0  -0.198141  -0.275609  0  2.520954  0
O  O73  1  0.12434472  0.41340630  0.39847905  1  0  -0.360418  0  2.286632  0  0  -0.287159  0  2.521825  0  0  -0.303889  0  2.522497  0  0  -0.198155  -0.275634  0  2.521037  0
O  O74  1  0.37019754  0.95100539  0.40192306  1  0  -0.55507  0  2.085617  0  0  -0.503875  0  2.309983  0  0  -0.526079  0  2.295187  0  0  -0.333244  -0.488311  0  2.319452  0
O  O75  1  0.62980229  0.04899396  0.59807672  1  0  -0.555065  0  2.08557  0  0  -0.503892  0  2.309937  0  0  -0.526097  0  2.295152  0  0  -0.33327  -0.488329  0  2.319406  0
O  O76  1  0.28979674  0.82537861  0.30091618  1  0  -0.557377  0  2.030118  0  0  -0.495896  0  2.281709  0  0  -0.520849  0  2.26944  0  0  -0.291452  -0.478653  0  2.289566  0
O  O77  1  0.71020429  0.17462073  0.69908437  1  0  -0.557335  0  2.030191  0  0  -0.495864  0  2.28177  0  0  -0.520817  0  2.269504  0  0  -0.291439  -0.478622  0  2.289629  0
O  O78  1  0.93349334  0.84188400  0.90016610  1  0  -0.662956  0  2.191023  0  0  -0.575876  0  2.455222  0  0  -0.609839  0  2.443797  0  0  -0.320703  -0.552218  0  2.46238  0
O  O79  1  0.06650734  0.15811650  0.09983410  1  0  -0.662983  0  2.191042  0  0  -0.575925  0  2.455242  0  0  -0.60989  0  2.443817  0  0  -0.320714  -0.552267  0  2.462398  0
O  O80  1  0.10541835  0.98444551  0.79038958  1  0  -0.581891  0  2.095141  0  0  -0.508105  0  2.361866  0  0  -0.540329  0  2.352402  0  0  -0.310807  -0.485908  0  2.367643  0
O  O81  1  0.89458113  0.01555500  0.20960986  1  0  -0.581876  0  2.095117  0  0  -0.508097  0  2.361844  0  0  -0.540321  0  2.35238  0  0  -0.310806  -0.4859  0  2.367618  0
O  O82  1  0.84514080  0.35305396  0.85740139  1  0  -0.799264  0  1.864365  0  0  -0.743113  0  2.064176  0  0  -0.763328  0  2.031768  0  0  -0.591361  -0.728736  0  2.086648  0
O  O83  1  0.15485868  0.64694655  0.14259806  1  0  -0.799244  0  1.864392  0  0  -0.74309  0  2.064202  0  0  -0.763304  0  2.031795  0  0  -0.591318  -0.728712  0  2.086673  0
