# generated using pymatgen
data_GdH7C8O7
_symmetry_space_group_name_H-M   'P 1'
_cell_length_a   7.22316289
_cell_length_b   7.67295078
_cell_length_c   17.37204303
_cell_angle_alpha   92.13472392
_cell_angle_beta   89.99995411
_cell_angle_gamma   90.00011309
_symmetry_Int_Tables_number   1
_chemical_formula_structural   GdH7C8O7
_chemical_formula_sum   'Gd4 H28 C32 O28'
_cell_volume   962.14208975
_cell_formula_units_Z   4
loop_
 _symmetry_equiv_pos_site_id
 _symmetry_equiv_pos_as_xyz
  1  'x, y, z'
loop_
 _atom_site_type_symbol
 _atom_site_label
 _atom_site_symmetry_multiplicity
 _atom_site_fract_x
 _atom_site_fract_y
 _atom_site_fract_z
 _atom_site_occupancy
 _atom_site_hle17_bader_spin_density
 _atom_site_hle17_ddec_charge
 _atom_site_hle17_ddec_spin_density
 _atom_site_hle17_ddec_sum_bond_order
 _atom_site_hle17_magmom
 _atom_site_hse06_10hf_bader_spin_density
 _atom_site_hse06_10hf_ddec_charge
 _atom_site_hse06_10hf_ddec_spin_density
 _atom_site_hse06_10hf_ddec_sum_bond_order
 _atom_site_hse06_10hf_magmom
 _atom_site_hse06_bader_spin_density
 _atom_site_hse06_ddec_charge
 _atom_site_hse06_ddec_spin_density
 _atom_site_hse06_ddec_sum_bond_order
 _atom_site_hse06_magmom
 _atom_site_pbe_bader_spin_density
 _atom_site_pbe_cm5_charge
 _atom_site_pbe_ddec_charge
 _atom_site_pbe_ddec_spin_density
 _atom_site_pbe_ddec_sum_bond_order
 _atom_site_pbe_magmom
Gd  Gd0  1  0.50797017  0.85631535  0.74644962  1  0  2.2114  0  1.769104  0  0  2.118883  0  2.121642  0  0  2.174528  0  2.06533  0  0  1.492173  2.074756  0  2.168271  0
Gd  Gd1  1  0.00797014  0.64368544  0.75355091  1  0  2.211383  0  1.769103  0  0  2.118861  0  2.121643  0  0  2.17451  0  2.065325  0  0  1.492177  2.074723  0  2.1683  0
Gd  Gd2  1  0.49203090  0.14368360  0.25354945  1  0  2.211417  0  1.769028  0  0  2.118949  0  2.121495  0  0  2.174598  0  2.065177  0  0  1.492172  2.07477  0  2.168211  0
Gd  Gd3  1  0.99202954  0.35631482  0.24644991  1  0  2.211396  0  1.769074  0  0  2.118915  0  2.12156  0  0  2.174566  0  2.065235  0  0  1.492176  2.07479  0  2.168177  0
H  H4  1  0.18309772  0.03684936  0.80220203  1  0  0.44199  0  0.855696  0  0  0.412603  0  0.91682  0  0  0.423611  0  0.900821  0  0  0.304783  0.404748  0  0.928209  0
H  H5  1  0.68309807  0.46315079  0.69779730  1  0  0.441995  0  0.855688  0  0  0.412605  0  0.916822  0  0  0.423613  0  0.900823  0  0  0.30479  0.404748  0  0.928214  0
H  H6  1  0.81690334  0.96315220  0.19779708  1  0  0.441969  0  0.855724  0  0  0.412583  0  0.916847  0  0  0.423592  0  0.900848  0  0  0.304777  0.404728  0  0.928237  0
H  H7  1  0.31690300  0.53684817  0.30220293  1  0  0.441998  0  0.855682  0  0  0.412615  0  0.916801  0  0  0.423623  0  0.900802  0  0  0.304787  0.40476  0  0.928191  0
H  H8  1  0.30963249  0.20801200  0.80787697  1  0  0.458658  0  0.823179  0  0  0.433362  0  0.874253  0  0  0.443871  0  0.859078  0  0  0.310605  0.425854  0  0.885099  0
H  H9  1  0.80963249  0.29198838  0.69212290  1  0  0.458641  0  0.8232  0  0  0.433347  0  0.874272  0  0  0.443856  0  0.859097  0  0  0.310606  0.42584  0  0.885117  0
H  H10  1  0.69036719  0.79198825  0.19212270  1  0  0.458655  0  0.82318  0  0  0.433362  0  0.874249  0  0  0.443871  0  0.859074  0  0  0.310614  0.425854  0  0.885096  0
H  H11  1  0.19036857  0.70800927  0.30787730  1  0  0.458701  0  0.82312  0  0  0.43335  0  0.874278  0  0  0.443858  0  0.859103  0  0  0.310591  0.425842  0  0.885124  0
H  H12  1  0.66286704  0.03465984  0.52059214  1  0  0.126472  0  0.940821  0  0  0.133425  0  1.005816  0  0  0.137763  0  1.002598  0  0  0.119554  0.130241  0  1.008359  0
H  H13  1  0.16286587  0.46534027  0.97940720  1  0  0.126483  0  0.940813  0  0  0.133476  0  1.005768  0  0  0.137815  0  1.002545  0  0  0.119553  0.13029  0  1.008311  0
H  H14  1  0.33713402  0.96534041  0.47940753  1  0  0.126473  0  0.940784  0  0  0.133466  0  1.005756  0  0  0.137805  0  1.002534  0  0  0.119561  0.13028  0  1.008301  0
H  H15  1  0.83713381  0.53465999  0.02059305  1  0  0.126461  0  0.940777  0  0  0.133452  0  1.005751  0  0  0.137791  0  1.002528  0  0  0.119548  0.130267  0  1.008295  0
H  H16  1  0.29442620  0.29825522  0.55495943  1  0  0.100365  0  0.938096  0  0  0.116771  0  0.994165  0  0  0.118145  0  0.994623  0  0  0.0965  0.115774  0  0.993933  0
H  H17  1  0.79442414  0.20174775  0.94504106  1  0  0.100323  0  0.938106  0  0  0.116744  0  0.994168  0  0  0.11812  0  0.994623  0  0  0.096489  0.115748  0  0.993932  0
H  H18  1  0.70557625  0.70174765  0.44504086  1  0  0.100357  0  0.938089  0  0  0.116777  0  0.994151  0  0  0.118152  0  0.994606  0  0  0.096506  0.115781  0  0.993918  0
H  H19  1  0.20557693  0.79825251  0.05495918  1  0  0.100348  0  0.93806  0  0  0.116755  0  0.994139  0  0  0.118132  0  0.994592  0  0  0.096491  0.11576  0  0.993905  0
H  H20  1  0.48783167  0.24756684  0.61230170  1  0  0.113713  0  0.946737  0  0  0.12661  0  1.010144  0  0  0.128981  0  1.009321  0  0  0.104501  0.124916  0  1.01082  0
H  H21  1  0.98783121  0.25243387  0.88769869  1  0  0.113693  0  0.94673  0  0  0.12659  0  1.010148  0  0  0.128959  0  1.009325  0  0  0.104487  0.124895  0  1.010824  0
H  H22  1  0.51216940  0.75243342  0.38769854  1  0  0.1137  0  0.946773  0  0  0.126595  0  1.010193  0  0  0.128965  0  1.00937  0  0  0.104489  0.1249  0  1.010867  0
H  H23  1  0.01216847  0.74756769  0.11230158  1  0  0.113696  0  0.946718  0  0  0.126595  0  1.010128  0  0  0.128966  0  1.009304  0  0  0.104493  0.124901  0  1.010804  0
H  H24  1  0.60122264  0.32591034  0.48703543  1  0  0.062229  0  0.961319  0  0  0.080757  0  1.023671  0  0  0.080881  0  1.02528  0  0  0.087187  0.080614  0  1.022608  0
H  H25  1  0.10122176  0.17409129  0.01296526  1  0  0.062293  0  0.961355  0  0  0.080809  0  1.023701  0  0  0.080932  0  1.025309  0  0  0.087205  0.080664  0  1.022637  0
H  H26  1  0.39877704  0.67408992  0.51296482  1  0  0.062273  0  0.961345  0  0  0.08079  0  1.023684  0  0  0.080913  0  1.025293  0  0  0.087206  0.080647  0  1.022622  0
H  H27  1  0.89877654  0.82590898  0.98703499  1  0  0.06222  0  0.961315  0  0  0.080747  0  1.023674  0  0  0.08087  0  1.025283  0  0  0.087184  0.080604  0  1.022613  0
H  H28  1  0.66785561  0.49265854  0.55439529  1  0  0.075183  0  0.927819  0  0  0.093883  0  0.985484  0  0  0.09561  0  0.984824  0  0  0.095335  0.092545  0  0.986144  0
H  H29  1  0.16785631  0.00734028  0.94560518  1  0  0.075174  0  0.927886  0  0  0.093892  0  0.985511  0  0  0.095618  0  0.984852  0  0  0.095338  0.092554  0  0.986171  0
H  H30  1  0.33214407  0.50734172  0.44560496  1  0  0.075147  0  0.927791  0  0  0.09383  0  0.985468  0  0  0.095556  0  0.984807  0  0  0.095301  0.092493  0  0.986126  0
H  H31  1  0.83214337  0.99265867  0.05439504  1  0  0.075177  0  0.927811  0  0  0.093882  0  0.985471  0  0  0.095609  0  0.98481  0  0  0.095329  0.092544  0  0.986131  0
C  C32  1  0.92279981  0.97181396  0.57306158  1  0  -0.029164  0  3.654065  0  0  -0.016353  0  3.888102  0  0  -0.018983  0  3.905274  0  0  0.012661  -0.014854  0  3.876915  0
C  C33  1  0.42279921  0.52818497  0.92693707  1  0  -0.029287  0  3.654243  0  0  -0.016489  0  3.888298  0  0  -0.019121  0  3.905472  0  0  0.012586  -0.014989  0  3.877109  0
C  C34  1  0.07720125  0.02818760  0.42693754  1  0  -0.029273  0  3.654069  0  0  -0.01642  0  3.888161  0  0  -0.019052  0  3.905336  0  0  0.012628  -0.014919  0  3.876974  0
C  C35  1  0.57720048  0.47181138  0.07306312  1  0  -0.029156  0  3.654138  0  0  -0.016278  0  3.888209  0  0  -0.018907  0  3.905382  0  0  0.012706  -0.014777  0  3.877023  0
C  C36  1  0.11434095  0.95088314  0.56107816  1  0  -0.047649  0  3.688588  0  0  -0.035353  0  3.924107  0  0  -0.039994  0  3.942661  0  0  0.007789  -0.03251  0  3.911935  0
C  C37  1  0.61433996  0.54911654  0.93892118  1  0  -0.047621  0  3.688585  0  0  -0.035373  0  3.924162  0  0  -0.040013  0  3.942716  0  0  0.007782  -0.03253  0  3.911989  0
C  C38  1  0.88566012  0.04911320  0.43892088  1  0  -0.04744  0  3.688483  0  0  -0.035254  0  3.924113  0  0  -0.039896  0  3.942666  0  0  0.007806  -0.032412  0  3.91194  0
C  C39  1  0.38565972  0.45088373  0.06107964  1  0  -0.04757  0  3.688577  0  0  -0.035408  0  3.924244  0  0  -0.040049  0  3.942795  0  0  0.007764  -0.032564  0  3.912071  0
C  C40  1  0.81155952  0.02064014  0.51179717  1  0  -0.064238  0  3.658067  0  0  -0.09992  0  3.911277  0  0  -0.099666  0  3.928125  0  0  -0.060888  -0.1001  0  3.900255  0
C  C41  1  0.31155835  0.47935895  0.98820268  1  0  -0.064146  0  3.65801  0  0  -0.099841  0  3.911205  0  0  -0.099589  0  3.928057  0  0  -0.060814  -0.10002  0  3.900181  0
C  C42  1  0.18844293  0.97936533  0.48820257  1  0  -0.064051  0  3.657927  0  0  -0.099813  0  3.911115  0  0  -0.099559  0  3.927966  0  0  -0.060812  -0.099992  0  3.900092  0
C  C43  1  0.68844133  0.52063349  0.01179745  1  0  -0.064079  0  3.657902  0  0  -0.099816  0  3.911079  0  0  -0.099567  0  3.927932  0  0  -0.06083  -0.099997  0  3.900058  0
C  C44  1  0.24484046  0.90581032  0.62364047  1  0  0.688433  0  3.871064  0  0  0.638374  0  4.171101  0  0  0.673518  0  4.160781  0  0  0.222726  0.614502  0  4.177043  0
C  C45  1  0.74484107  0.59418829  0.87635880  1  0  0.688515  0  3.870967  0  0  0.638466  0  4.170998  0  0  0.673608  0  4.16068  0  0  0.222807  0.614593  0  4.176939  0
C  C46  1  0.75515922  0.09418733  0.37635858  1  0  0.688442  0  3.870942  0  0  0.638422  0  4.17098  0  0  0.673565  0  4.160663  0  0  0.22278  0.61455  0  4.176914  0
C  C47  1  0.25515723  0.40581327  0.12364146  1  0  0.688485  0  3.871018  0  0  0.638472  0  4.171042  0  0  0.673616  0  4.160722  0  0  0.222785  0.614598  0  4.176985  0
C  C48  1  0.82046781  0.94531319  0.64687058  1  0  0.710923  0  3.840866  0  0  0.656485  0  4.149462  0  0  0.691822  0  4.137196  0  0  0.231759  0.632377  0  4.156793  0
C  C49  1  0.32046740  0.55468557  0.85312924  1  0  0.710951  0  3.841021  0  0  0.65657  0  4.149521  0  0  0.691909  0  4.137257  0  0  0.231811  0.63246  0  4.15685  0
C  C50  1  0.17953187  0.05469099  0.35313030  1  0  0.710913  0  3.840939  0  0  0.656448  0  4.14958  0  0  0.691787  0  4.137318  0  0  0.231748  0.632337  0  4.156905  0
C  C51  1  0.67953090  0.44531469  0.14687043  1  0  0.710932  0  3.841034  0  0  0.656414  0  4.149762  0  0  0.691752  0  4.137499  0  0  0.231721  0.632304  0  4.157092  0
C  C52  1  0.35252412  0.48287298  0.64575694  1  0  0.773286  0  3.762208  0  0  0.731933  0  4.058753  0  0  0.766357  0  4.048662  0  0  0.237399  0.708316  0  4.064917  0
C  C53  1  0.85252462  0.01712618  0.85424290  1  0  0.773308  0  3.762214  0  0  0.73196  0  4.058747  0  0  0.766389  0  4.048649  0  0  0.237409  0.708342  0  4.064914  0
C  C54  1  0.64747418  0.51712727  0.35424273  1  0  0.773273  0  3.762216  0  0  0.731942  0  4.05873  0  0  0.766363  0  4.048645  0  0  0.237395  0.70832  0  4.0649  0
C  C55  1  0.14747507  0.98287408  0.14575677  1  0  0.773268  0  3.762291  0  0  0.731931  0  4.058809  0  0  0.766352  0  4.048726  0  0  0.237377  0.70831  0  4.064976  0
C  C56  1  0.41730730  0.35428948  0.58345532  1  0  -0.27605  0  3.659778  0  0  -0.314046  0  3.90724  0  0  -0.320073  0  3.915386  0  0  -0.16701  -0.309878  0  3.901659  0
C  C57  1  0.91730518  0.14571111  0.91654510  1  0  -0.275965  0  3.659764  0  0  -0.313994  0  3.907232  0  0  -0.320019  0  3.915377  0  0  -0.166995  -0.309823  0  3.901648  0
C  C58  1  0.58269377  0.64571208  0.41654495  1  0  -0.276029  0  3.659817  0  0  -0.314062  0  3.907276  0  0  -0.320084  0  3.915422  0  0  -0.167026  -0.30989  0  3.901694  0
C  C59  1  0.08269451  0.85428915  0.08345515  1  0  -0.276015  0  3.659702  0  0  -0.31402  0  3.90717  0  0  -0.320045  0  3.915318  0  0  -0.166999  -0.30985  0  3.901589  0
C  C60  1  0.54782506  0.43284514  0.52459363  1  0  -0.081464  0  3.670273  0  0  -0.121451  0  3.929957  0  0  -0.122012  0  3.943936  0  0  -0.16587  -0.120912  0  3.920299  0
C  C61  1  0.04782582  0.06715477  0.97540689  1  0  -0.081599  0  3.670439  0  0  -0.121548  0  3.93008  0  0  -0.12211  0  3.94406  0  0  -0.165885  -0.121008  0  3.92042  0
C  C62  1  0.45217463  0.56715513  0.47540661  1  0  -0.081507  0  3.670295  0  0  -0.121426  0  3.929928  0  0  -0.121987  0  3.943907  0  0  -0.165843  -0.120887  0  3.920269  0
C  C63  1  0.95217524  0.93284549  0.02459393  1  0  -0.081431  0  3.670258  0  0  -0.121421  0  3.929945  0  0  -0.121983  0  3.943926  0  0  -0.165857  -0.120882  0  3.920288  0
O  O64  1  0.18187069  0.85023823  0.68728462  1  0  -0.800664  0  2.241753  0  0  -0.750962  0  2.497947  0  0  -0.779302  0  2.489224  0  0  -0.427707  -0.730142  0  2.503178  0
O  O65  1  0.68187155  0.64976157  0.81271527  1  0  -0.800685  0  2.241709  0  0  -0.750993  0  2.497923  0  0  -0.779334  0  2.489205  0  0  -0.427738  -0.730173  0  2.503154  0
O  O66  1  0.81812899  0.14976203  0.31271563  1  0  -0.800683  0  2.241746  0  0  -0.751025  0  2.497988  0  0  -0.779368  0  2.48927  0  0  -0.427749  -0.730201  0  2.503214  0
O  O67  1  0.31812675  0.35023999  0.18728442  1  0  -0.800689  0  2.241756  0  0  -0.751008  0  2.497949  0  0  -0.779354  0  2.489235  0  0  -0.42773  -0.730179  0  2.503173  0
O  O68  1  0.31002694  0.08286547  0.79222692  1  0  -0.907287  0  1.832073  0  0  -0.864892  0  2.01061  0  0  -0.884334  0  1.977034  0  0  -0.650434  -0.850545  0  2.03448  0
O  O69  1  0.81002717  0.41713361  0.70777293  1  0  -0.907276  0  1.832067  0  0  -0.864874  0  2.010593  0  0  -0.884317  0  1.977019  0  0  -0.650441  -0.850524  0  2.034466  0
O  O70  1  0.68997412  0.91713348  0.20777273  1  0  -0.907271  0  1.832087  0  0  -0.864877  0  2.010609  0  0  -0.88432  0  1.977036  0  0  -0.650438  -0.850522  0  2.034485  0
O  O71  1  0.18997251  0.58286535  0.29222730  1  0  -0.907333  0  1.832035  0  0  -0.864896  0  2.010611  0  0  -0.884338  0  1.977037  0  0  -0.650426  -0.85055  0  2.034482  0
O  O72  1  0.41747262  0.92582259  0.61457770  1  0  -0.658608  0  1.995189  0  0  -0.619848  0  2.238039  0  0  -0.645057  0  2.231123  0  0  -0.349101  -0.60195  0  2.242389  0
O  O73  1  0.91747179  0.57417634  0.88542209  1  0  -0.658638  0  1.995174  0  0  -0.619872  0  2.238031  0  0  -0.645081  0  2.231113  0  0  -0.349131  -0.601972  0  2.242381  0
O  O74  1  0.58252568  0.07417896  0.38542141  1  0  -0.658606  0  1.995054  0  0  -0.619843  0  2.237885  0  0  -0.645047  0  2.230959  0  0  -0.349091  -0.601939  0  2.242233  0
O  O75  1  0.08252513  0.42582132  0.11457869  1  0  -0.658575  0  1.995088  0  0  -0.619837  0  2.237952  0  0  -0.645038  0  2.231021  0  0  -0.349097  -0.60194  0  2.2423  0
O  O76  1  0.73729277  0.07219735  0.67946659  1  0  -0.637698  0  1.993068  0  0  -0.589741  0  2.217396  0  0  -0.614802  0  2.207793  0  0  -0.301785  -0.571952  0  2.223624  0
O  O77  1  0.23729321  0.42780160  0.82053386  1  0  -0.637717  0  1.993118  0  0  -0.589772  0  2.217419  0  0  -0.614835  0  2.207812  0  0  -0.301808  -0.571983  0  2.223648  0
O  O78  1  0.26270552  0.92780161  0.32053421  1  0  -0.637757  0  1.992999  0  0  -0.589755  0  2.217328  0  0  -0.61482  0  2.207725  0  0  -0.301806  -0.571961  0  2.223554  0
O  O79  1  0.76270647  0.57219866  0.17946696  1  0  -0.637764  0  1.99307  0  0  -0.589762  0  2.217423  0  0  -0.614825  0  2.207822  0  0  -0.301807  -0.571973  0  2.223652  0
O  O80  1  0.79905457  0.78918457  0.67070959  1  0  -0.78896  0  2.104147  0  0  -0.748929  0  2.364079  0  0  -0.775777  0  2.351798  0  0  -0.425626  -0.72891  0  2.371822  0
O  O81  1  0.29905315  0.71081414  0.82928967  1  0  -0.788931  0  2.104183  0  0  -0.748939  0  2.364133  0  0  -0.775773  0  2.351819  0  0  -0.425631  -0.72892  0  2.371874  0
O  O82  1  0.20094650  0.21081438  0.32928949  1  0  -0.788928  0  2.104201  0  0  -0.748917  0  2.364182  0  0  -0.775754  0  2.351876  0  0  -0.425615  -0.728895  0  2.371922  0
O  O83  1  0.70094792  0.28918741  0.17070944  1  0  -0.788979  0  2.104194  0  0  -0.748948  0  2.364194  0  0  -0.775788  0  2.351894  0  0  -0.425626  -0.728922  0  2.371936  0
O  O84  1  0.47606839  0.57132197  0.68354976  1  0  -0.749998  0  2.075015  0  0  -0.698985  0  2.318029  0  0  -0.726747  0  2.309003  0  0  -0.37343  -0.678903  0  2.32364  0
O  O85  1  0.97606844  0.92867838  0.81645004  1  0  -0.749989  0  2.074995  0  0  -0.698975  0  2.31801  0  0  -0.726742  0  2.308984  0  0  -0.373436  -0.678893  0  2.323621  0
O  O86  1  0.52393129  0.42867829  0.31644991  1  0  -0.749989  0  2.075043  0  0  -0.698986  0  2.318042  0  0  -0.726756  0  2.30903  0  0  -0.373415  -0.678901  0  2.323664  0
O  O87  1  0.02393124  0.07132188  0.18354963  1  0  -0.749973  0  2.075057  0  0  -0.698959  0  2.318048  0  0  -0.726728  0  2.309031  0  0  -0.373403  -0.678881  0  2.323661  0
O  O88  1  0.18022010  0.49605053  0.65858976  1  0  -0.720985  0  2.006129  0  0  -0.682684  0  2.248423  0  0  -0.708423  0  2.236726  0  0  -0.401158  -0.664059  0  2.256152  0
O  O89  1  0.68022060  0.00394961  0.84141015  1  0  -0.721005  0  2.00614  0  0  -0.68271  0  2.248437  0  0  -0.70845  0  2.236737  0  0  -0.401165  -0.664086  0  2.256165  0
O  O90  1  0.81977819  0.50394972  0.34140991  1  0  -0.720983  0  2.006108  0  0  -0.682701  0  2.248402  0  0  -0.708438  0  2.236707  0  0  -0.401163  -0.664076  0  2.256131  0
O  O91  1  0.31977909  0.99605064  0.15858952  1  0  -0.721007  0  2.006151  0  0  -0.682723  0  2.248433  0  0  -0.70846  0  2.236737  0  0  -0.401165  -0.664092  0  2.256165  0
