# generated using pymatgen
data_CdH20C26(N2O5)2
_symmetry_space_group_name_H-M   'P 1'
_cell_length_a   7.87282514
_cell_length_b   8.83574405
_cell_length_c   9.71078344
_cell_angle_alpha   78.27503815
_cell_angle_beta   77.66255799
_cell_angle_gamma   74.27621793
_symmetry_Int_Tables_number   1
_chemical_formula_structural   CdH20C26(N2O5)2
_chemical_formula_sum   'Cd1 H20 C26 N4 O10'
_cell_volume   627.58027719
_cell_formula_units_Z   1
loop_
 _symmetry_equiv_pos_site_id
 _symmetry_equiv_pos_as_xyz
  1  'x, y, z'
loop_
 _atom_site_type_symbol
 _atom_site_label
 _atom_site_symmetry_multiplicity
 _atom_site_fract_x
 _atom_site_fract_y
 _atom_site_fract_z
 _atom_site_occupancy
 _atom_site_hle17_bader_spin_density
 _atom_site_hle17_ddec_charge
 _atom_site_hle17_ddec_spin_density
 _atom_site_hle17_ddec_sum_bond_order
 _atom_site_hle17_magmom
 _atom_site_hse06_10hf_bader_spin_density
 _atom_site_hse06_10hf_ddec_charge
 _atom_site_hse06_10hf_ddec_spin_density
 _atom_site_hse06_10hf_ddec_sum_bond_order
 _atom_site_hse06_10hf_magmom
 _atom_site_hse06_bader_spin_density
 _atom_site_hse06_ddec_charge
 _atom_site_hse06_ddec_spin_density
 _atom_site_hse06_ddec_sum_bond_order
 _atom_site_hse06_magmom
 _atom_site_pbe_bader_spin_density
 _atom_site_pbe_cm5_charge
 _atom_site_pbe_ddec_charge
 _atom_site_pbe_ddec_spin_density
 _atom_site_pbe_ddec_sum_bond_order
 _atom_site_pbe_magmom
Cd  Cd0  1  0.99999645  0.50000455  0.49999975  1  0  1.156039  0  1.694438  0  0  0.964422  0  2.156569  0  0  1.018801  0  2.104583  0  0  0.792073  0.924992  0  2.192558  0
H  H1  1  0.42958977  0.99838697  0.23911550  1  0  0.411516  0  0.778521  0  0  0.399164  0  0.824621  0  0  0.408262  0  0.815817  0  0  0.352907  0.392501  0  0.831299  0
H  H2  1  0.57041735  0.00163191  0.76088275  1  0  0.41146  0  0.778522  0  0  0.399088  0  0.824653  0  0  0.408188  0  0.815842  0  0  0.352856  0.392424  0  0.831336  0
H  H3  1  0.22541653  0.82767775  0.14065790  1  0  0.097132  0  0.970813  0  0  0.103077  0  1.040789  0  0  0.1071  0  1.037729  0  0  0.105318  0.100158  0  1.043169  0
H  H4  1  0.77459286  0.17231820  0.85933122  1  0  0.097007  0  0.970874  0  0  0.103033  0  1.040779  0  0  0.107059  0  1.037725  0  0  0.105312  0.100115  0  1.043159  0
H  H5  1  0.68667457  0.48272652  0.04235036  1  0  0.089869  0  0.934445  0  0  0.10908  0  0.987765  0  0  0.10932  0  0.988714  0  0  0.115219  0.108925  0  0.986981  0
H  H6  1  0.31332263  0.51726614  0.95765178  1  0  0.089882  0  0.934421  0  0  0.109112  0  0.987737  0  0  0.109349  0  0.988683  0  0  0.115256  0.10896  0  0.986954  0
H  H7  1  0.86900910  0.38533340  0.92192521  1  0  0.083811  0  0.961123  0  0  0.095564  0  1.03091  0  0  0.09651  0  1.030704  0  0  0.106133  0.094684  0  1.031303  0
H  H8  1  0.13098938  0.61465928  0.07807774  1  0  0.083793  0  0.961164  0  0  0.095537  0  1.030979  0  0  0.09648  0  1.03077  0  0  0.106125  0.094662  0  1.031366  0
H  H9  1  0.67245830  0.15396147  0.36633486  1  0  0.131211  0  0.982323  0  0  0.13687  0  1.045766  0  0  0.141598  0  1.043094  0  0  0.107857  0.133401  0  1.047812  0
H  H10  1  0.32753139  0.84603968  0.63367301  1  0  0.131148  0  0.982354  0  0  0.136823  0  1.045787  0  0  0.141549  0  1.043119  0  0  0.107847  0.133355  0  1.047837  0
H  H11  1  0.28495924  0.69546545  0.35541657  1  0  0.079799  0  0.93245  0  0  0.091729  0  0.990672  0  0  0.094002  0  0.988706  0  0  0.118995  0.089866  0  0.992404  0
H  H12  1  0.71504034  0.30453786  0.64458095  1  0  0.079735  0  0.932446  0  0  0.091685  0  0.990667  0  0  0.093975  0  0.98868  0  0  0.119014  0.089822  0  0.992394  0
H  H13  1  0.33716530  0.20909979  0.45343813  1  0  0.09409  0  0.968079  0  0  0.099669  0  1.033963  0  0  0.103805  0  1.029586  0  0  0.115222  0.096586  0  1.037224  0
H  H14  1  0.66282349  0.79090485  0.54656609  1  0  0.094053  0  0.968029  0  0  0.099701  0  1.033884  0  0  0.103837  0  1.029508  0  0  0.11525  0.096616  0  1.037146  0
H  H15  1  0.61150340  0.66385678  0.25431505  1  0  0.122777  0  0.953334  0  0  0.129475  0  1.018454  0  0  0.133078  0  1.016927  0  0  0.110235  0.126757  0  1.019917  0
H  H16  1  0.38849449  0.33614304  0.74568655  1  0  0.122793  0  0.953318  0  0  0.129459  0  1.018457  0  0  0.133057  0  1.016944  0  0  0.110258  0.126747  0  1.019921  0
H  H17  1  0.17272036  0.28690258  0.99712454  1  0  0.075172  0  0.931872  0  0  0.087103  0  1.001122  0  0  0.086792  0  1.002008  0  0  0.105386  0.087154  0  1.000821  0
H  H18  1  0.82727995  0.71308790  0.00288576  1  0  0.075235  0  0.931944  0  0  0.087218  0  1.00113  0  0  0.086879  0  1.002017  0  0  0.105454  0.087262  0  1.000836  0
H  H19  1  0.19228010  0.32731114  0.16486030  1  0  0.094092  0  0.941346  0  0  0.105666  0  1.006032  0  0  0.107473  0  1.004142  0  0  0.114887  0.104314  0  1.007393  0
H  H20  1  0.80771540  0.67268767  0.83514913  1  0  0.094225  0  0.941295  0  0  0.105786  0  1.006  0  0  0.107579  0  1.004098  0  0  0.11493  0.10443  0  1.007361  0
C  C21  1  0.94350296  0.92553756  0.14131169  1  0  -0.024957  0  3.664192  0  0  -0.016996  0  3.908153  0  0  -0.017765  0  3.924105  0  0  -4.1e-05  -0.017123  0  3.897912  0
C  C22  1  0.05650546  0.07445717  0.85867680  1  0  -0.025031  0  3.664118  0  0  -0.017092  0  3.908153  0  0  -0.017863  0  3.924104  0  0  -5.5e-05  -0.017225  0  3.897921  0
C  C23  1  0.12420104  0.90439691  0.08007131  1  0  -0.08892  0  3.713515  0  0  -0.121515  0  3.96714  0  0  -0.12127  0  3.983572  0  0  -0.079282  -0.121674  0  3.95648  0
C  C24  1  0.87580799  0.09559550  0.91991961  1  0  -0.088617  0  3.713422  0  0  -0.121299  0  3.967046  0  0  -0.121067  0  3.983498  0  0  -0.079235  -0.121458  0  3.956388  0
C  C25  1  0.81684279  0.02388803  0.05813340  1  0  -0.074649  0  3.722731  0  0  -0.062594  0  3.96431  0  0  -0.067755  0  3.983763  0  0  -0.010419  -0.059122  0  3.951394  0
C  C26  1  0.18316495  0.97610917  0.94185780  1  0  -0.074504  0  3.722608  0  0  -0.062526  0  3.964165  0  0  -0.067665  0  3.983631  0  0  -0.010409  -0.059065  0  3.951241  0
C  C27  1  0.82996058  0.46673243  0.00114059  1  0  -0.020721  0  3.615289  0  0  -0.084696  0  3.873632  0  0  -0.081223  0  3.885602  0  0  -0.057162  -0.086776  0  3.865181  0
C  C28  1  0.17003690  0.53325910  0.99886379  1  0  -0.020742  0  3.615348  0  0  -0.084734  0  3.873814  0  0  -0.081223  0  3.885782  0  0  -0.057233  -0.08683  0  3.865377  0
C  C29  1  0.58894201  0.27569510  0.35756042  1  0  -0.142852  0  3.686205  0  0  -0.163471  0  3.932828  0  0  -0.170863  0  3.953297  0  0  -0.082885  -0.158653  0  3.919272  0
C  C30  1  0.41104902  0.72430598  0.64244415  1  0  -0.142809  0  3.68611  0  0  -0.1634  0  3.932791  0  0  -0.17079  0  3.953259  0  0  -0.082889  -0.158574  0  3.919229  0
C  C31  1  0.66540817  0.40525668  0.29954385  1  0  0.015509  0  3.754976  0  0  0.032821  0  3.991899  0  0  0.032979  0  4.011489  0  0  0.011466  0.032938  0  3.978745  0
C  C32  1  0.33458483  0.59474196  0.70045882  1  0  0.015464  0  3.754908  0  0  0.032759  0  3.991822  0  0  0.032916  0  4.011403  0  0  0.011474  0.032855  0  3.978667  0
C  C33  1  0.37519040  0.57807117  0.35027252  1  0  0.127579  0  3.723145  0  0  0.096041  0  3.977931  0  0  0.102607  0  3.996996  0  0  0.046468  0.091856  0  3.96503  0
C  C34  1  0.62480167  0.42193582  0.64972965  1  0  0.127635  0  3.723151  0  0  0.096049  0  3.977936  0  0  0.102604  0  3.996999  0  0  0.046423  0.09187  0  3.965026  0
C  C35  1  0.40525174  0.30503122  0.40612754  1  0  0.126545  0  3.684749  0  0  0.095955  0  3.938179  0  0  0.102989  0  3.955251  0  0  0.044932  0.091346  0  3.926704  0
C  C36  1  0.59473576  0.69497340  0.59387587  1  0  0.126632  0  3.684402  0  0  0.095892  0  3.937963  0  0  0.102924  0  3.955036  0  0  0.044922  0.091287  0  3.92648  0
C  C37  1  0.55654135  0.55971133  0.29546774  1  0  -0.137961  0  3.702421  0  0  -0.159759  0  3.953276  0  0  -0.165416  0  3.973147  0  0  -0.080502  -0.156274  0  3.940175  0
C  C38  1  0.44345916  0.44028843  0.70453138  1  0  -0.137969  0  3.702409  0  0  -0.159712  0  3.953256  0  0  -0.165369  0  3.973127  0  0  -0.080515  -0.156241  0  3.940174  0
C  C39  1  0.90090965  0.84109180  0.29273024  1  0  0.647329  0  3.961465  0  0  0.594255  0  4.273644  0  0  0.628087  0  4.265103  0  0  0.197129  0.571263  0  4.278187  0
C  C40  1  0.09909551  0.15891020  0.70726248  1  0  0.647466  0  3.961346  0  0  0.594399  0  4.273518  0  0  0.628229  0  4.264979  0  0  0.197235  0.571417  0  4.27805  0
C  C41  1  0.86482188  0.37413603  0.25640522  1  0  0.502638  0  3.810698  0  0  0.450673  0  4.096919  0  0  0.480657  0  4.095604  0  0  0.251105  0.429389  0  4.097921  0
C  C42  1  0.13517430  0.62586032  0.74360149  1  0  0.502671  0  3.810592  0  0  0.450769  0  4.096826  0  0  0.480758  0  4.09551  0  0  0.251094  0.42955  0  4.097713  0
C  C43  1  0.61923138  0.06231360  0.10549235  1  0  0.645134  0  3.813078  0  0  0.591484  0  4.1273  0  0  0.623883  0  4.11836  0  0  0.233225  0.569192  0  4.133278  0
C  C44  1  0.38078372  0.93768502  0.89450762  1  0  0.644965  0  3.813667  0  0  0.591483  0  4.127647  0  0  0.623818  0  4.118798  0  0  0.233199  0.569227  0  4.133574  0
C  C45  1  0.12711674  0.37422872  0.07118010  1  0  -0.008272  0  3.613795  0  0  -0.070434  0  3.875053  0  0  -0.065456  0  3.884929  0  0  -0.060853  -0.073594  0  3.868104  0
C  C46  1  0.87288005  0.62576528  0.92882802  1  0  -0.008568  0  3.614001  0  0  -0.070732  0  3.875278  0  0  -0.065662  0  3.885058  0  0  -0.060981  -0.073898  0  3.868332  0
N  N47  1  0.30065655  0.45374353  0.40287686  1  0  -0.338112  0  3.281228  0  0  -0.258912  0  3.546326  0  0  -0.278449  0  3.565253  0  0  -0.331548  -0.245507  0  3.533121  0
N  N48  1  0.69933747  0.54626105  0.59712443  1  0  -0.338128  0  3.280921  0  0  -0.258872  0  3.546042  0  0  -0.278408  0  3.564974  0  0  -0.331549  -0.245463  0  3.532824  0
N  N49  1  0.93368504  0.39730041  0.11663414  1  0  -0.190849  0  3.391503  0  0  -0.104976  0  3.629105  0  0  -0.126347  0  3.65162  0  0  -0.267392  -0.09027  0  3.613761  0
N  N50  1  0.06631342  0.60269230  0.88336984  1  0  -0.19078  0  3.391756  0  0  -0.105077  0  3.629566  0  0  -0.126473  0  3.652047  0  0  -0.267381  -0.090384  0  3.614204  0
O  O51  1  0.83103646  0.92088616  0.39107387  1  0  -0.580924  0  1.925409  0  0  -0.540499  0  2.13895  0  0  -0.563603  0  2.129824  0  0  -0.315385  -0.523573  0  2.144161  0
O  O52  1  0.16898338  0.07911936  0.60891464  1  0  -0.580965  0  1.925347  0  0  -0.540562  0  2.138898  0  0  -0.563665  0  2.129773  0  0  -0.315442  -0.523641  0  2.144106  0
O  O53  1  0.95167986  0.68845987  0.30144723  1  0  -0.67728  0  1.993928  0  0  -0.61288  0  2.25876  0  0  -0.643745  0  2.248955  0  0  -0.342597  -0.590035  0  2.264377  0
O  O54  1  0.04831589  0.31154332  0.69854581  1  0  -0.677401  0  1.993978  0  0  -0.612917  0  2.258654  0  0  -0.643779  0  2.248852  0  0  -0.342612  -0.590075  0  2.264269  0
O  O55  1  0.95968356  0.32318269  0.35250874  1  0  -0.567202  0  1.984435  0  0  -0.518974  0  2.232824  0  0  -0.542606  0  2.221964  0  0  -0.30364  -0.501889  0  2.239846  0
O  O56  1  0.04030715  0.67681960  0.64749667  1  0  -0.567235  0  1.984262  0  0  -0.518989  0  2.232608  0  0  -0.542629  0  2.22175  0  0  -0.303659  -0.501925  0  2.239593  0
O  O57  1  0.51710587  0.17872359  0.05007946  1  0  -0.544444  0  1.928329  0  0  -0.509182  0  2.152631  0  0  -0.528054  0  2.146106  0  0  -0.284882  -0.496318  0  2.157086  0
O  O58  1  0.48290089  0.82129172  0.94991958  1  0  -0.544373  0  1.928794  0  0  -0.509187  0  2.153022  0  0  -0.528034  0  2.146528  0  0  -0.284938  -0.496335  0  2.157449  0
O  O59  1  0.55930091  0.95675061  0.21470240  1  0  -0.525126  0  2.069296  0  0  -0.475976  0  2.275895  0  0  -0.496042  0  2.262054  0  0  -0.315926  -0.462042  0  2.285423  0
O  O60  1  0.44070517  0.04325751  0.78529614  1  0  -0.525016  0  2.069459  0  0  -0.475876  0  2.275958  0  0  -0.495922  0  2.262145  0  0  -0.315793  -0.461953  0  2.285474  0
