# generated using pymatgen
data_GdH4C10(NO3)2
_symmetry_space_group_name_H-M   'P 1'
_cell_length_a   7.27476713
_cell_length_b   7.48301407
_cell_length_c   9.54446140
_cell_angle_alpha   92.42933827
_cell_angle_beta   101.50988464
_cell_angle_gamma   98.04731044
_symmetry_Int_Tables_number   1
_chemical_formula_structural   GdH4C10(NO3)2
_chemical_formula_sum   'Gd2 H8 C20 N4 O12'
_cell_volume   502.78589959
_cell_formula_units_Z   2
loop_
 _symmetry_equiv_pos_site_id
 _symmetry_equiv_pos_as_xyz
  1  'x, y, z'
loop_
 _atom_site_type_symbol
 _atom_site_label
 _atom_site_symmetry_multiplicity
 _atom_site_fract_x
 _atom_site_fract_y
 _atom_site_fract_z
 _atom_site_occupancy
 _atom_site_hle17_bader_spin_density
 _atom_site_hle17_ddec_charge
 _atom_site_hle17_ddec_spin_density
 _atom_site_hle17_ddec_sum_bond_order
 _atom_site_hle17_magmom
 _atom_site_hse06_10hf_bader_spin_density
 _atom_site_hse06_10hf_ddec_charge
 _atom_site_hse06_10hf_ddec_spin_density
 _atom_site_hse06_10hf_ddec_sum_bond_order
 _atom_site_hse06_10hf_magmom
 _atom_site_hse06_bader_spin_density
 _atom_site_hse06_ddec_charge
 _atom_site_hse06_ddec_spin_density
 _atom_site_hse06_ddec_sum_bond_order
 _atom_site_hse06_magmom
 _atom_site_pbe_bader_spin_density
 _atom_site_pbe_cm5_charge
 _atom_site_pbe_ddec_charge
 _atom_site_pbe_ddec_spin_density
 _atom_site_pbe_ddec_sum_bond_order
 _atom_site_pbe_magmom
Gd  Gd0  1  0.63885928  0.18908796  0.91476009  1  0  2.132436  0  1.860436  0  0  2.034145  0  2.237757  0  0  2.090357  0  2.17988  0  0  1.501153  1.991908  0  2.282333  0
Gd  Gd1  1  0.36114451  0.81090743  0.08523733  1  0  2.132391  0  1.860481  0  0  2.034163  0  2.237685  0  0  2.09036  0  2.179838  0  0  1.50115  1.991936  0  2.282253  0
H  H2  1  0.82548869  0.64214949  0.90153627  1  0  0.101078  0  0.930707  0  0  0.109554  0  0.993143  0  0  0.112402  0  0.988894  0  0  0.150551  0.106619  0  0.99783  0
H  H3  1  0.17452306  0.35785129  0.09846772  1  0  0.101149  0  0.930552  0  0  0.109598  0  0.993022  0  0  0.112448  0  0.988774  0  0  0.150578  0.10666  0  0.997711  0
H  H4  1  0.62681557  0.12433621  0.52931684  1  0  0.133828  0  0.95915  0  0  0.141999  0  1.019856  0  0  0.146382  0  1.015811  0  0  0.11711  0.139053  0  1.022524  0
H  H5  1  0.37318826  0.87566734  0.47069027  1  0  0.133883  0  0.958939  0  0  0.141929  0  1.019808  0  0  0.146305  0  1.015776  0  0  0.117118  0.138987  0  1.022466  0
H  H6  1  0.79774062  0.75026850  0.37862659  1  0  0.137468  0  0.925475  0  0  0.14833  0  0.979354  0  0  0.152615  0  0.976414  0  0  0.120474  0.145666  0  0.981179  0
H  H7  1  0.20224737  0.24972429  0.62137470  1  0  0.13741  0  0.925545  0  0  0.148285  0  0.979405  0  0  0.152569  0  0.976469  0  0  0.120445  0.145618  0  0.981227  0
H  H8  1  0.86585470  0.82990360  0.69223217  1  0  0.327563  0  0.865447  0  0  0.31402  0  0.913485  0  0  0.322006  0  0.907387  0  0  0.333468  0.308392  0  0.91788  0
H  H9  1  0.13416097  0.17010393  0.30777367  1  0  0.327521  0  0.86547  0  0  0.314037  0  0.913456  0  0  0.322  0  0.907377  0  0  0.333516  0.308463  0  0.917769  0
C  C10  1  0.80445771  0.58850575  0.79130362  1  0  0.311993  0  3.640324  0  0  0.242555  0  3.93859  0  0  0.261746  0  3.945675  0  0  0.182337  0.229894  0  3.935134  0
C  C11  1  0.19555573  0.41149639  0.20870695  1  0  0.312009  0  3.640045  0  0  0.242625  0  3.938318  0  0  0.261814  0  3.945399  0  0  0.182377  0.229963  0  3.934877  0
C  C12  1  0.77958908  0.58070001  0.55644999  1  0  0.173117  0  3.786073  0  0  0.161837  0  4.035178  0  0  0.167171  0  4.057514  0  0  0.106714  0.158321  0  4.020022  0
C  C13  1  0.22039964  0.41930629  0.44354137  1  0  0.173234  0  3.786531  0  0  0.161969  0  4.035574  0  0  0.16731  0  4.057903  0  0  0.106779  0.158451  0  4.020427  0
C  C14  1  0.73222845  0.40467063  0.60058343  1  0  0.158906  0  3.814176  0  0  0.160645  0  4.065043  0  0  0.162734  0  4.088488  0  0  0.096565  0.159114  0  4.049125  0
C  C15  1  0.26777249  0.59533291  0.39941487  1  0  0.158861  0  3.814429  0  0  0.160648  0  4.065162  0  0  0.162734  0  4.088604  0  0  0.096593  0.159117  0  4.049247  0
C  C16  1  0.67156029  0.25906145  0.49859290  1  0  -0.114824  0  3.663412  0  0  -0.148791  0  3.916071  0  0  -0.147328  0  3.931874  0  0  -0.072736  -0.149577  0  3.904868  0
C  C17  1  0.32843241  0.74092590  0.50140891  1  0  -0.114815  0  3.663237  0  0  -0.148698  0  3.9159  0  0  -0.147238  0  3.931718  0  0  -0.072804  -0.149481  0  3.904696  0
C  C18  1  0.65581457  0.28926604  0.35288985  1  0  -0.088264  0  3.697683  0  0  -0.079075  0  3.944251  0  0  -0.087481  0  3.966917  0  0  -0.017427  -0.0735  0  3.929014  0
C  C19  1  0.34418011  0.71074161  0.64711606  1  0  -0.088339  0  3.697788  0  0  -0.079093  0  3.944293  0  0  -0.087501  0  3.966951  0  0  -0.017413  -0.073515  0  3.929054  0
C  C20  1  0.70398487  0.46783023  0.31040353  1  0  -0.053799  0  3.674111  0  0  -0.044538  0  3.916983  0  0  -0.048027  0  3.937678  0  0  -0.003107  -0.042018  0  3.903372  0
C  C21  1  0.29601297  0.53218009  0.68959349  1  0  -0.053763  0  3.673849  0  0  -0.044617  0  3.916848  0  0  -0.048106  0  3.937544  0  0  -0.003084  -0.042096  0  3.903229  0
C  C22  1  0.76599360  0.61436692  0.41283472  1  0  -0.150025  0  3.696008  0  0  -0.180276  0  3.951753  0  0  -0.18303  0  3.969568  0  0  -0.077643  -0.178411  0  3.939525  0
C  C23  1  0.23399332  0.38562855  0.58715497  1  0  -0.150121  0  3.696146  0  0  -0.18034  0  3.951867  0  0  -0.183093  0  3.969686  0  0  -0.077675  -0.178468  0  3.939627  0
C  C24  1  0.69508888  0.51813700  0.15845181  1  0  0.747208  0  3.817393  0  0  0.698459  0  4.114665  0  0  0.734609  0  4.101757  0  0  0.246758  0.672868  0  4.12414  0
C  C25  1  0.30491026  0.48186385  0.84155138  1  0  0.747264  0  3.817247  0  0  0.698555  0  4.114511  0  0  0.734707  0  4.101602  0  0  0.246787  0.672965  0  4.123982  0
C  C26  1  0.56601871  0.12780913  0.25316861  1  0  0.694791  0  3.84503  0  0  0.645286  0  4.147574  0  0  0.681324  0  4.137061  0  0  0.214175  0.620721  0  4.153891  0
C  C27  1  0.43397507  0.87218496  0.74682939  1  0  0.694805  0  3.845329  0  0  0.645342  0  4.147775  0  0  0.681382  0  4.13726  0  0  0.21416  0.620775  0  4.154088  0
C  C28  1  0.01285944  0.00024549  0.92151991  1  0  0.545624  0  3.945619  0  0  0.504192  0  4.250087  0  0  0.533703  0  4.241337  0  0  0.213349  0.484195  0  4.255239  0
C  C29  1  0.98714361  0.99975396  0.07847648  1  0  0.54572  0  3.945341  0  0  0.504282  0  4.249813  0  0  0.533792  0  4.241059  0  0  0.213406  0.484284  0  4.254973  0
N  N30  1  0.74854960  0.41458421  0.74909767  1  0  -0.527547  0  3.123843  0  0  -0.488352  0  3.410884  0  0  -0.507709  0  3.425212  0  0  -0.415034  -0.475049  0  3.401984  0
N  N31  1  0.25146263  0.58541929  0.25091067  1  0  -0.527601  0  3.124141  0  0  -0.488436  0  3.41114  0  0  -0.507787  0  3.425467  0  0  -0.415034  -0.475133  0  3.402235  0
N  N32  1  0.82574249  0.69266958  0.68079035  1  0  -0.329901  0  3.357096  0  0  -0.266959  0  3.591496  0  0  -0.285527  0  3.603413  0  0  -0.367891  -0.25408  0  3.583306  0
N  N33  1  0.17425695  0.30733264  0.31922027  1  0  -0.329888  0  3.357182  0  0  -0.267058  0  3.591637  0  0  -0.285606  0  3.60356  0  0  -0.367999  -0.254225  0  3.583399  0
O  O34  1  0.88669322  0.06032961  0.83096631  1  0  -0.656696  0  2.020677  0  0  -0.61795  0  2.258416  0  0  -0.641225  0  2.248839  0  0  -0.369328  -0.601519  0  2.264536  0
O  O35  1  0.11331168  0.93967254  0.16903043  1  0  -0.656678  0  2.020629  0  0  -0.617947  0  2.258351  0  0  -0.641221  0  2.248788  0  0  -0.369316  -0.60153  0  2.264486  0
O  O36  1  0.61711957  0.65482831  0.12197228  1  0  -0.709943  0  2.053001  0  0  -0.669265  0  2.313088  0  0  -0.69607  0  2.302204  0  0  -0.394991  -0.651111  0  2.321692  0
O  O37  1  0.38289073  0.34517246  0.87802731  1  0  -0.710054  0  2.052981  0  0  -0.669362  0  2.313039  0  0  -0.696169  0  2.302152  0  0  -0.395028  -0.65121  0  2.321639  0
O  O38  1  0.77478777  0.43098529  0.07595856  1  0  -0.725218  0  2.037915  0  0  -0.680803  0  2.290254  0  0  -0.707977  0  2.27962  0  0  -0.411337  -0.66049  0  2.29943  0
O  O39  1  0.22520475  0.56901829  0.92403746  1  0  -0.725211  0  2.037977  0  0  -0.680835  0  2.290355  0  0  -0.708005  0  2.279721  0  0  -0.411368  -0.660523  0  2.299531  0
O  O40  1  0.49774907  0.14124328  0.11802653  1  0  -0.812838  0  2.133779  0  0  -0.767869  0  2.399102  0  0  -0.795676  0  2.388298  0  0  -0.442306  -0.747231  0  2.404984  0
O  O41  1  0.50224843  0.85874808  0.88196773  1  0  -0.812876  0  2.133768  0  0  -0.76793  0  2.399076  0  0  -0.795734  0  2.388261  0  0  -0.442305  -0.74733  0  2.405049  0
O  O42  1  0.54358474  0.97352746  0.30335382  1  0  -0.664851  0  1.986638  0  0  -0.622643  0  2.22907  0  0  -0.647046  0  2.218546  0  0  -0.366036  -0.605619  0  2.235868  0
O  O43  1  0.45640800  0.02645989  0.69665219  1  0  -0.664754  0  1.986841  0  0  -0.622588  0  2.229288  0  0  -0.646992  0  2.218762  0  0  -0.366008  -0.605559  0  2.236087  0
O  O44  1  0.84589942  0.06336810  0.10529883  1  0  -0.630158  0  2.114047  0  0  -0.594544  0  2.365704  0  0  -0.617992  0  2.358335  0  0  -0.344872  -0.578176  0  2.370251  0
O  O45  1  0.15409405  0.93662463  0.89469069  1  0  -0.630095  0  2.114237  0  0  -0.594485  0  2.365864  0  0  -0.617928  0  2.35849  0  0  -0.344823  -0.578117  0  2.37041  0
