# generated using pymatgen
data_H12PbC19S2N4O7
_symmetry_space_group_name_H-M   'P 1'
_cell_length_a   7.34222191
_cell_length_b   9.60120136
_cell_length_c   15.20255126
_cell_angle_alpha   73.46621842
_cell_angle_beta   77.30784070
_cell_angle_gamma   77.54590489
_symmetry_Int_Tables_number   1
_chemical_formula_structural   H12PbC19S2N4O7
_chemical_formula_sum   'H24 Pb2 C38 S4 N8 O14'
_cell_volume   988.74771168
_cell_formula_units_Z   2
loop_
 _symmetry_equiv_pos_site_id
 _symmetry_equiv_pos_as_xyz
  1  'x, y, z'
loop_
 _atom_site_type_symbol
 _atom_site_label
 _atom_site_symmetry_multiplicity
 _atom_site_fract_x
 _atom_site_fract_y
 _atom_site_fract_z
 _atom_site_occupancy
 _atom_site_hle17_bader_spin_density
 _atom_site_hle17_ddec_charge
 _atom_site_hle17_ddec_spin_density
 _atom_site_hle17_ddec_sum_bond_order
 _atom_site_hle17_magmom
 _atom_site_hse06_10hf_bader_spin_density
 _atom_site_hse06_10hf_ddec_charge
 _atom_site_hse06_10hf_ddec_spin_density
 _atom_site_hse06_10hf_ddec_sum_bond_order
 _atom_site_hse06_10hf_magmom
 _atom_site_hse06_bader_spin_density
 _atom_site_hse06_ddec_charge
 _atom_site_hse06_ddec_spin_density
 _atom_site_hse06_ddec_sum_bond_order
 _atom_site_hse06_magmom
 _atom_site_pbe_bader_spin_density
 _atom_site_pbe_cm5_charge
 _atom_site_pbe_ddec_charge
 _atom_site_pbe_ddec_spin_density
 _atom_site_pbe_ddec_sum_bond_order
 _atom_site_pbe_magmom
H  H0  1  0.83197711  0.20933172  0.12065264  1  0  0.316184  0  0.93388  0  0  0.298383  0  0.993212  0  0  0.307306  0  0.98565  0  0  0.311314  0.292037  0  0.998673  0
H  H1  1  0.16802715  0.79066582  0.87934060  1  0  0.316347  0  0.933766  0  0  0.298389  0  0.993314  0  0  0.307307  0  0.985761  0  0  0.311322  0.292049  0  0.998774  0
H  H2  1  0.63496905  0.32824322  0.59128931  1  0  0.08535  0  0.941918  0  0  0.093887  0  1.004756  0  0  0.096939  0  1.00142  0  0  0.119348  0.091667  0  1.00702  0
H  H3  1  0.36502501  0.67175648  0.40871123  1  0  0.085397  0  0.941877  0  0  0.093955  0  1.004688  0  0  0.097007  0  1.001351  0  0  0.11937  0.091735  0  1.006952  0
H  H4  1  0.63831490  0.06019931  0.66927982  1  0  0.122861  0  0.967603  0  0  0.131752  0  1.026787  0  0  0.135748  0  1.024575  0  0  0.108017  0.128656  0  1.028539  0
H  H5  1  0.36167728  0.93980260  0.33071723  1  0  0.122854  0  0.967675  0  0  0.131777  0  1.0268  0  0  0.135773  0  1.02459  0  0  0.108024  0.128679  0  1.02855  0
H  H6  1  0.67617233  0.97325824  0.83937000  1  0  0.098827  0  0.960557  0  0  0.10957  0  1.023849  0  0  0.112301  0  1.021438  0  0  0.109548  0.108362  0  1.024109  0
H  H7  1  0.32383985  0.02674151  0.16062464  1  0  0.098809  0  0.96062  0  0  0.109523  0  1.023941  0  0  0.112254  0  1.02153  0  0  0.109513  0.108316  0  1.024198  0
H  H8  1  0.78246120  0.48999784  0.04894867  1  0  0.099811  0  0.931032  0  0  0.115998  0  0.983064  0  0  0.118519  0  0.981803  0  0  0.110331  0.113894  0  0.984556  0
H  H9  1  0.21753635  0.50999857  0.95105207  1  0  0.099807  0  0.931024  0  0  0.115988  0  0.983058  0  0  0.118511  0  0.981795  0  0  0.110319  0.113885  0  0.98455  0
H  H10  1  0.74959749  0.75349121  0.95306560  1  0  0.108712  0  0.965187  0  0  0.114158  0  1.034956  0  0  0.118284  0  1.031979  0  0  0.107737  0.112618  0  1.035195  0
H  H11  1  0.25039987  0.24650627  0.04694090  1  0  0.108816  0  0.965226  0  0  0.114252  0  1.034989  0  0  0.118383  0  1.031999  0  0  0.107762  0.112712  0  1.035225  0
H  H12  1  0.68349280  0.80636181  0.79113353  1  0  0.083065  0  0.947913  0  0  0.095479  0  1.007119  0  0  0.097491  0  1.004929  0  0  0.122841  0.094064  0  1.008385  0
H  H13  1  0.31648964  0.19364006  0.20886984  1  0  0.083122  0  0.948003  0  0  0.095534  0  1.007202  0  0  0.097545  0  1.005013  0  0  0.122901  0.094118  0  1.008466  0
H  H14  1  0.79429818  0.76733909  0.07694221  1  0  0.095203  0  0.984145  0  0  0.102712  0  1.051633  0  0  0.106453  0  1.048897  0  0  0.103363  0.099895  0  1.053616  0
H  H15  1  0.20572471  0.23266287  0.92305418  1  0  0.095186  0  0.984036  0  0  0.102698  0  1.051549  0  0  0.10641  0  1.048899  0  0  0.103343  0.099873  0  1.053561  0
H  H16  1  0.81126234  0.53508911  0.20388719  1  0  0.108898  0  0.922747  0  0  0.11958  0  0.982266  0  0  0.123353  0  0.979197  0  0  0.110752  0.117151  0  0.984267  0
H  H17  1  0.18873893  0.46491610  0.79611291  1  0  0.108926  0  0.92273  0  0  0.119574  0  0.982288  0  0  0.123352  0  0.979209  0  0  0.110763  0.117147  0  0.984288  0
H  H18  1  0.85027620  0.78463928  0.39146155  1  0  0.112881  0  0.960827  0  0  0.120358  0  1.026037  0  0  0.124116  0  1.023481  0  0  0.113336  0.117502  0  1.027954  0
H  H19  1  0.14971510  0.21536700  0.60854403  1  0  0.112881  0  0.960954  0  0  0.120395  0  1.026092  0  0  0.124153  0  1.023536  0  0  0.113352  0.11754  0  1.028006  0
H  H20  1  0.90778750  0.91495148  0.58915475  1  0  0.434757  0  0.850512  0  0  0.405721  0  0.909995  0  0  0.415414  0  0.895832  0  0  0.297696  0.398738  0  0.920233  0
H  H21  1  0.09220099  0.08504821  0.41084770  1  0  0.43468  0  0.850605  0  0  0.405654  0  0.910078  0  0  0.415347  0  0.895915  0  0  0.297697  0.398671  0  0.920315  0
H  H22  1  0.80910793  0.96361547  0.50090300  1  0  0.427183  0  0.86905  0  0  0.398261  0  0.928461  0  0  0.408252  0  0.913779  0  0  0.292074  0.39134  0  0.938605  0
H  H23  1  0.19088147  0.03638642  0.49909764  1  0  0.427173  0  0.869059  0  0  0.398237  0  0.928491  0  0  0.408229  0  0.913808  0  0  0.292044  0.391317  0  0.938634  0
Pb  Pb24  1  0.64436731  0.66251830  0.62162806  1  0  1.404792  0  1.393201  0  0  1.22504  0  1.786577  0  0  1.277325  0  1.744356  0  0  0.695371  1.186767  0  1.816285  0
Pb  Pb25  1  0.35563607  0.33747701  0.37837357  1  0  1.404811  0  1.393139  0  0  1.225053  0  1.786521  0  0  1.27734  0  1.744299  0  0  0.695385  1.186779  0  1.816226  0
C  C26  1  0.64912141  0.28553691  0.66443763  1  0  0.150659  0  3.685151  0  0  0.118615  0  3.940757  0  0  0.126526  0  3.957792  0  0  0.058111  0.113127  0  3.928522  0
C  C27  1  0.35086591  0.71445507  0.33556434  1  0  0.150698  0  3.685221  0  0  0.118615  0  3.94083  0  0  0.126528  0  3.957864  0  0  0.058188  0.113127  0  3.928593  0
C  C28  1  0.65080267  0.13549481  0.70867122  1  0  -0.104876  0  3.693213  0  0  -0.118072  0  3.948564  0  0  -0.124528  0  3.968821  0  0  -0.078213  -0.112718  0  3.934359  0
C  C29  1  0.34919696  0.86449831  0.29132594  1  0  -0.104934  0  3.693504  0  0  -0.118131  0  3.948814  0  0  -0.124587  0  3.969073  0  0  -0.07826  -0.112774  0  3.934604  0
C  C30  1  0.67232371  0.08776753  0.80105725  1  0  -0.019674  0  3.673105  0  0  -0.050747  0  3.931042  0  0  -0.047823  0  3.948  0  0  -0.060857  -0.053003  0  3.919071  0
C  C31  1  0.32768312  0.91223111  0.19893750  1  0  -0.019722  0  3.673252  0  0  -0.050747  0  3.931153  0  0  -0.047824  0  3.948115  0  0  -0.060821  -0.053004  0  3.919179  0
C  C32  1  0.69212485  0.18878328  0.84802926  1  0  -0.021238  0  3.784195  0  0  -0.008013  0  4.016494  0  0  -0.011113  0  4.040236  0  0  0.002067  -0.00713  0  4.001216  0
C  C33  1  0.30788481  0.81120873  0.15197229  1  0  -0.021088  0  3.783725  0  0  -0.007928  0  4.016133  0  0  -0.011035  0  4.039877  0  0  0.00218  -0.007042  0  4.000865  0
C  C34  1  0.72364733  0.14842927  0.94218468  1  0  0.105879  0  3.851759  0  0  0.098144  0  4.113859  0  0  0.100007  0  4.136726  0  0  0.090047  0.097508  0  4.097703  0
C  C35  1  0.27636114  0.85156826  0.05781141  1  0  0.105795  0  3.85162  0  0  0.098049  0  4.113729  0  0  0.099915  0  4.136595  0  0  0.090023  0.09741  0  4.097576  0
C  C36  1  0.75024072  0.25375370  0.98405739  1  0  0.10806  0  3.797755  0  0  0.088648  0  4.054944  0  0  0.090991  0  4.078887  0  0  0.092916  0.087026  0  4.038446  0
C  C37  1  0.24977100  0.74624825  0.01593757  1  0  0.10784  0  3.79802  0  0  0.088548  0  4.055069  0  0  0.090886  0  4.079019  0  0  0.092857  0.086926  0  4.038577  0
C  C38  1  0.73768113  0.40648734  0.93829283  1  0  -0.038963  0  3.809873  0  0  -0.024885  0  4.048783  0  0  -0.02851  0  4.073449  0  0  -0.002376  -0.02269  0  4.032051  0
C  C39  1  0.26233221  0.59351351  0.06170149  1  0  -0.03882  0  3.809545  0  0  -0.024845  0  4.048462  0  0  -0.02848  0  4.073152  0  0  -0.002408  -0.022651  0  4.031735  0
C  C40  1  0.75555691  0.51853843  0.97765571  1  0  -0.048975  0  3.700978  0  0  -0.075797  0  3.95308  0  0  -0.07369  0  3.971482  0  0  -0.070551  -0.077565  0  3.941921  0
C  C41  1  0.24443833  0.48146236  0.02234845  1  0  -0.048921  0  3.700972  0  0  -0.075714  0  3.953067  0  0  -0.073606  0  3.971466  0  0  -0.07056  -0.077482  0  3.941904  0
C  C42  1  0.73720305  0.66324783  0.92561307  1  0  -0.107325  0  3.710832  0  0  -0.122314  0  3.973475  0  0  -0.127654  0  3.991831  0  0  -0.083472  -0.119492  0  3.96138  0
C  C43  1  0.26277939  0.33675404  0.07439095  1  0  -0.107593  0  3.711084  0  0  -0.122566  0  3.973706  0  0  -0.127901  0  3.992047  0  0  -0.083486  -0.119747  0  3.961618  0
C  C44  1  0.70013297  0.69452040  0.83465593  1  0  0.163419  0  3.686552  0  0  0.124795  0  3.94806  0  0  0.134733  0  3.96208  0  0  0.057847  0.11768  0  3.939243  0
C  C45  1  0.29985319  0.30547708  0.16534716  1  0  0.163495  0  3.686662  0  0  0.124859  0  3.948174  0  0  0.134798  0  3.962191  0  0  0.057807  0.117745  0  3.939354  0
C  C46  1  0.70231172  0.44834661  0.84466956  1  0  0.137496  0  3.752053  0  0  0.127481  0  3.997088  0  0  0.132329  0  4.019164  0  0  0.121536  0.124512  0  3.981782  0
C  C47  1  0.29769349  0.55165312  0.15532780  1  0  0.137358  0  3.7522  0  0  0.127469  0  3.997104  0  0  0.132316  0  4.019174  0  0  0.12162  0.124504  0  3.981802  0
C  C48  1  0.68566583  0.33893770  0.79866383  1  0  0.123777  0  3.774553  0  0  0.114974  0  4.018775  0  0  0.118698  0  4.042125  0  0  0.115222  0.112181  0  4.003167  0
C  C49  1  0.31432825  0.66105538  0.20133920  1  0  0.123863  0  3.774501  0  0  0.114992  0  4.018789  0  0  0.118728  0  4.042123  0  0  0.115148  0.112182  0  4.003206  0
C  C50  1  0.77902599  0.03091346  0.07982938  1  0  0.330916  0  3.721991  0  0  0.303741  0  3.995574  0  0  0.315908  0  4.010684  0  0  0.21878  0.295447  0  3.985834  0
C  C51  1  0.22098457  0.96908738  0.92016787  1  0  0.330828  0  3.722164  0  0  0.303725  0  3.995659  0  0  0.315889  0  4.010764  0  0  0.218823  0.295432  0  3.985917  0
C  C52  1  0.80621860  0.90762238  0.16141313  1  0  0.009067  0  3.727466  0  0  0.01479  0  3.96513  0  0  0.016856  0  3.985851  0  0  0.004049  0.013404  0  3.95136  0
C  C53  1  0.19378268  0.09237623  0.83858880  1  0  0.009146  0  3.727383  0  0  0.014802  0  3.965074  0  0  0.016874  0  3.985788  0  0  0.004085  0.013424  0  3.951303  0
C  C54  1  0.80651703  0.76869469  0.14660124  1  0  -0.082247  0  3.720512  0  0  -0.106892  0  3.983192  0  0  -0.109827  0  4.00279  0  0  -0.082902  -0.104509  0  3.970107  0
C  C55  1  0.19348494  0.23130722  0.85340003  1  0  -0.08217  0  3.720319  0  0  -0.10683  0  3.983028  0  0  -0.109775  0  4.00261  0  0  -0.082864  -0.104453  0  3.96993  0
C  C56  1  0.81596562  0.64032403  0.21670038  1  0  -0.049603  0  3.743572  0  0  -0.082961  0  4.008379  0  0  -0.080474  0  4.02552  0  0  -0.082878  -0.084335  0  3.996549  0
C  C57  1  0.18403660  0.35967678  0.78330171  1  0  -0.04954  0  3.743533  0  0  -0.082865  0  4.008359  0  0  -0.080378  0  4.0255  0  0  -0.082869  -0.084236  0  3.996526  0
C  C58  1  0.82768352  0.64734879  0.30583574  1  0  -0.112126  0  3.732435  0  0  -0.083737  0  3.983004  0  0  -0.090805  0  4.003713  0  0  -0.016243  -0.079355  0  3.969391  0
C  C59  1  0.17230938  0.35265641  0.69416657  1  0  -0.112321  0  3.732605  0  0  -0.083962  0  3.98323  0  0  -0.091022  0  4.003936  0  0  -0.016268  -0.079577  0  3.969608  0
C  C60  1  0.83659820  0.78082308  0.32241945  1  0  -0.065509  0  3.745242  0  0  -0.10417  0  3.996692  0  0  -0.102827  0  4.017326  0  0  -0.080482  -0.104663  0  3.982891  0
C  C61  1  0.16340029  0.21918212  0.67758226  1  0  -0.065479  0  3.745245  0  0  -0.104178  0  3.996694  0  0  -0.102838  0  4.017328  0  0  -0.08052  -0.104669  0  3.982904  0
C  C62  1  0.82525706  0.91127315  0.25157687  1  0  -0.137825  0  3.635095  0  0  -0.115661  0  3.884351  0  0  -0.122381  0  3.905243  0  0  -0.012794  -0.111494  0  3.870602  0
C  C63  1  0.17474075  0.08872874  0.74842682  1  0  -0.137908  0  3.634967  0  0  -0.115645  0  3.88412  0  0  -0.122364  0  3.90501  0  0  -0.012815  -0.111495  0  3.870392  0
S  S64  1  0.81254264  0.07762084  0.28789172  1  0  1.316867  0  5.619637  0  0  1.2144  0  6.147587  0  0  1.263435  0  6.123037  0  0  0.518869  1.180454  0  6.163684  0
S  S65  1  0.18745164  0.92238437  0.71210780  1  0  1.31701  0  5.619724  0  0  1.214492  0  6.147662  0  0  1.263527  0  6.123111  0  0  0.51887  1.180555  0  6.163758  0
S  S66  1  0.82474698  0.48314782  0.39711572  1  0  1.365488  0  5.640213  0  0  1.260331  0  6.162647  0  0  1.312387  0  6.134137  0  0  0.531935  1.224253  0  6.181037  0
S  S67  1  0.17524918  0.51685518  0.60288729  1  0  1.365573  0  5.64016  0  0  1.260436  0  6.162573  0  0  1.312488  0  6.13407  0  0  0.532024  1.224357  0  6.180956  0
N  N68  1  0.66513293  0.38366985  0.70793601  1  0  -0.366606  0  3.230702  0  0  -0.301653  0  3.489413  0  0  -0.320555  0  3.511095  0  0  -0.292536  -0.288234  0  3.473935  0
N  N69  1  0.33485581  0.61632212  0.29206910  1  0  -0.366684  0  3.230735  0  0  -0.301698  0  3.489451  0  0  -0.320601  0  3.511128  0  0  -0.292624  -0.288271  0  3.473971  0
N  N70  1  0.68306561  0.59107732  0.79608152  1  0  -0.353211  0  3.221147  0  0  -0.284741  0  3.474455  0  0  -0.302759  0  3.492995  0  0  -0.289335  -0.272596  0  3.462162  0
N  N71  1  0.31693146  0.40892131  0.20391494  1  0  -0.353225  0  3.221314  0  0  -0.284783  0  3.474592  0  0  -0.302802  0  3.493132  0  0  -0.289383  -0.272637  0  3.462295  0
N  N72  1  0.78481316  0.17642359  0.07130200  1  0  -0.36829  0  3.370364  0  0  -0.310958  0  3.601431  0  0  -0.327976  0  3.615226  0  0  -0.375505  -0.299696  0  3.592523  0
N  N73  1  0.21519064  0.82357615  0.92869287  1  0  -0.368288  0  3.370598  0  0  -0.310905  0  3.60168  0  0  -0.327915  0  3.615484  0  0  -0.375476  -0.299649  0  3.592781  0
N  N74  1  0.74096255  0.01165648  0.00191157  1  0  -0.419222  0  2.946634  0  0  -0.396404  0  3.223841  0  0  -0.408871  0  3.237468  0  0  -0.331052  -0.388205  0  3.212899  0
N  N75  1  0.25905526  0.98833665  0.99808825  1  0  -0.419171  0  2.946825  0  0  -0.396338  0  3.223945  0  0  -0.408799  0  3.23757  0  0  -0.331076  -0.388135  0  3.213002  0
O  O76  1  0.61076439  0.14187968  0.29360822  1  0  -0.706878  0  2.001339  0  0  -0.651689  0  2.267389  0  0  -0.676914  0  2.255338  0  0  -0.330466  -0.63352  0  2.275442  0
O  O77  1  0.38923266  0.85812556  0.70638706  1  0  -0.70691  0  2.001333  0  0  -0.651711  0  2.267375  0  0  -0.676938  0  2.255325  0  0  -0.330473  -0.633542  0  2.275427  0
O  O78  1  0.87946061  0.03026377  0.37773067  1  0  -0.679224  0  2.013753  0  0  -0.615019  0  2.249049  0  0  -0.636375  0  2.23279  0  0  -0.324666  -0.600025  0  2.260377  0
O  O79  1  0.12053156  0.96974474  0.62226784  1  0  -0.679288  0  2.013804  0  0  -0.615087  0  2.249132  0  0  -0.636437  0  2.232866  0  0  -0.324663  -0.60009  0  2.260455  0
O  O80  1  0.93536867  0.17114556  0.21611342  1  0  -0.653171  0  1.950419  0  0  -0.608227  0  2.19878  0  0  -0.629175  0  2.185876  0  0  -0.339351  -0.5929  0  2.206884  0
O  O81  1  0.06462863  0.82885856  0.78388401  1  0  -0.65327  0  1.950454  0  0  -0.608254  0  2.19883  0  0  -0.629201  0  2.185928  0  0  -0.339349  -0.592929  0  2.206931  0
O  O82  1  0.00875534  0.39012559  0.37783683  1  0  -0.697375  0  2.039054  0  0  -0.6331  0  2.307764  0  0  -0.658644  0  2.291841  0  0  -0.324374  -0.614606  0  2.318277  0
O  O83  1  0.99124055  0.60988514  0.62215957  1  0  -0.697372  0  2.03913  0  0  -0.633108  0  2.307824  0  0  -0.658653  0  2.291905  0  0  -0.324376  -0.614614  0  2.318334  0
O  O84  1  0.67161347  0.41499846  0.38816507  1  0  -0.720233  0  2.022407  0  0  -0.661933  0  2.292398  0  0  -0.686828  0  2.276369  0  0  -0.333599  -0.644162  0  2.30317  0
O  O85  1  0.32838667  0.58499903  0.61183915  1  0  -0.72025  0  2.022446  0  0  -0.661939  0  2.292405  0  0  -0.686834  0  2.276377  0  0  -0.333622  -0.64417  0  2.303177  0
O  O86  1  0.79321677  0.52856103  0.48391845  1  0  -0.705703  0  2.044502  0  0  -0.646362  0  2.312915  0  0  -0.6706  0  2.297933  0  0  -0.326047  -0.629185  0  2.322442  0
O  O87  1  0.20679361  0.47143427  0.51608572  1  0  -0.705742  0  2.044332  0  0  -0.646406  0  2.312749  0  0  -0.670646  0  2.29777  0  0  -0.326109  -0.629231  0  2.322275  0
O  O88  1  0.78750933  0.92089092  0.56877156  1  0  -0.85185  0  1.78967  0  0  -0.793482  0  1.947015  0  0  -0.815031  0  1.918445  0  0  -0.575422  -0.778191  0  1.96631  0
O  O89  1  0.21248543  0.07910549  0.43122817  1  0  -0.851744  0  1.789717  0  0  -0.793381  0  1.947099  0  0  -0.814933  0  1.91853  0  0  -0.575384  -0.778093  0  1.966388  0
