# generated using pymatgen
data_CuH8C9S2N4Cl
_symmetry_space_group_name_H-M   'P 1'
_cell_length_a   8.95419685
_cell_length_b   8.95427870
_cell_length_c   15.30406786
_cell_angle_alpha   96.53436423
_cell_angle_beta   96.53488153
_cell_angle_gamma   94.38976685
_symmetry_Int_Tables_number   1
_chemical_formula_structural   CuH8C9S2N4Cl
_chemical_formula_sum   'Cu4 H32 C36 S8 N16 Cl4'
_cell_volume   1206.17497078
_cell_formula_units_Z   4
loop_
 _symmetry_equiv_pos_site_id
 _symmetry_equiv_pos_as_xyz
  1  'x, y, z'
loop_
 _atom_site_type_symbol
 _atom_site_label
 _atom_site_symmetry_multiplicity
 _atom_site_fract_x
 _atom_site_fract_y
 _atom_site_fract_z
 _atom_site_occupancy
 _atom_site_pbe_bader_charge
 _atom_site_pbe_bader_spin_density
 _atom_site_pbe_cm5_charge
 _atom_site_pbe_ddec_charge
 _atom_site_pbe_ddec_spin_density
 _atom_site_pbe_ddec_sum_bond_order
 _atom_site_pbe_magmom
Cu  Cu0  1  0.41960768  0.92400726  0.57083158  1  0.684265  0  0.451122  0.365112  0  2.585796  0
Cu  Cu1  1  0.07598725  0.58039932  0.92916901  1  0.684212  0  0.451107  0.365098  0  2.585785  0
Cu  Cu2  1  0.58039701  0.07599984  0.42916831  1  0.684496  0  0.451119  0.365123  0  2.585781  0
Cu  Cu3  1  0.92400955  0.41959583  0.07083217  1  0.684257  0  0.451125  0.365172  0  2.585732  0
H  H4  1  0.59056861  0.65850075  0.52752273  1  0.104807  0  0.111188  0.091693  0  0.995533  0
H  H5  1  0.34149231  0.40943647  0.97248421  1  0.104697  0  0.111227  0.091796  0  0.99547  0
H  H6  1  0.40943609  0.34150748  0.47247332  1  0.104923  0  0.111194  0.091709  0  0.995468  0
H  H7  1  0.65849998  0.59055152  0.02752078  1  0.104788  0  0.111164  0.091713  0  0.99551  0
H  H8  1  0.69806682  0.45968028  0.61773942  1  0.142056  0  0.097646  0.120015  0  1.035693  0
H  H9  1  0.54030451  0.30192415  0.88226940  1  0.142143  0  0.09762  0.119977  0  1.03576  0
H  H10  1  0.30194690  0.54032764  0.38225199  1  0.142221  0  0.097651  0.120058  0  1.035633  0
H  H11  1  0.45968326  0.69805670  0.11773612  1  0.142126  0  0.097642  0.119989  0  1.035752  0
H  H12  1  0.71142949  0.51367016  0.78527194  1  0.151399  0  0.097405  0.0848  0  1.052278  0
H  H13  1  0.48632762  0.28856256  0.71473436  1  0.15197  0  0.097465  0.08495  0  1.052068  0
H  H14  1  0.28859214  0.48632836  0.21472394  1  0.151514  0  0.097394  0.084843  0  1.052328  0
H  H15  1  0.51367595  0.71143208  0.28526986  1  0.151693  0  0.097452  0.084914  0  1.052241  0
H  H16  1  0.46056800  0.05164592  0.92097657  1  0.14568  0  0.099644  0.121748  0  1.04354  0
H  H17  1  0.94834963  0.53943192  0.57902257  1  0.145609  0  0.099634  0.121743  0  1.043559  0
H  H18  1  0.53942428  0.94834994  0.07902044  1  0.145584  0  0.099636  0.121765  0  1.043567  0
H  H19  1  0.05165394  0.46057059  0.42097956  1  0.145575  0  0.099639  0.121756  0  1.043525  0
H  H20  1  0.59046272  0.90871713  0.91007752  1  0.123636  0  0.105645  0.133497  0  1.00508  0
H  H21  1  0.09128174  0.40953924  0.58992585  1  0.123678  0  0.105632  0.13351  0  1.005103  0
H  H22  1  0.40952956  0.09128098  0.08992096  1  0.123566  0  0.105667  0.133553  0  1.005092  0
H  H23  1  0.90872296  0.59046674  0.41007659  1  0.123653  0  0.105626  0.133491  0  1.005047  0
H  H24  1  0.82113549  0.77463528  0.90415489  1  0.107988  0  0.11475  0.086998  0  1.020449  0
H  H25  1  0.22537505  0.17885952  0.59584782  1  0.108219  0  0.114697  0.086951  0  1.020488  0
H  H26  1  0.17885905  0.22536417  0.09585885  1  0.108076  0  0.114661  0.086943  0  1.02036  0
H  H27  1  0.77462851  0.82114973  0.40415279  1  0.108325  0  0.114634  0.086928  0  1.020408  0
H  H28  1  0.80159484  0.04560190  0.87025435  1  0.139086  0  0.105889  0.122861  0  1.017131  0
H  H29  1  0.95440430  0.19840315  0.62974304  1  0.139141  0  0.105886  0.122837  0  1.017162  0
H  H30  1  0.19839857  0.95439632  0.12975728  1  0.13913  0  0.105901  0.122866  0  1.017086  0
H  H31  1  0.04559700  0.80160140  0.37025581  1  0.139203  0  0.1059  0.122881  0  1.017094  0
H  H32  1  0.04420108  0.20371100  0.86614044  1  0.147707  0  0.110168  0.08641  0  1.0125  0
H  H33  1  0.79629019  0.95580219  0.63386128  1  0.147694  0  0.110166  0.086406  0  1.012482  0
H  H34  1  0.95579120  0.79628599  0.13386776  1  0.14762  0  0.110199  0.086397  0  1.012493  0
H  H35  1  0.20370885  0.04419990  0.36613203  1  0.147653  0  0.110188  0.086424  0  1.012456  0
C  C36  1  0.59829356  0.66833772  0.59977027  1  0.452574  0  0.0562  0.142851  0  3.914372  0
C  C37  1  0.33165103  0.40170308  0.90023451  1  0.452552  0  0.056249  0.142898  0  3.914078  0
C  C38  1  0.40171000  0.33166703  0.40022351  1  0.440641  0  0.056222  0.14292  0  3.914146  0
C  C39  1  0.66834125  0.59828717  0.09976867  1  0.440657  0  0.056284  0.142947  0  3.914077  0
C  C40  1  0.65842566  0.56185998  0.64929504  1  -0.004722  0  -0.095186  -0.187887  0  3.960006  0
C  C41  1  0.43812830  0.34157009  0.85071041  1  -0.004605  0  -0.095287  -0.188077  0  3.959976  0
C  C42  1  0.34158919  0.43814580  0.35070022  1  0.00693  0  -0.095093  -0.187808  0  3.959868  0
C  C43  1  0.56186510  0.65841801  0.14929400  1  0.007194  0  -0.095211  -0.187894  0  3.960035  0
C  C44  1  0.66224685  0.58945483  0.74110204  1  0.470634  0  0.055104  0.141451  0  3.932506  0
C  C45  1  0.41053996  0.33775048  0.75890514  1  0.471038  0  0.055139  0.141483  0  3.932223  0
C  C46  1  0.33776461  0.41054164  0.25889171  1  0.470807  0  0.055035  0.141302  0  3.932745  0
C  C47  1  0.58946248  0.66224630  0.24110111  1  0.471057  0  0.055104  0.141366  0  3.93258  0
C  C48  1  0.54808131  0.80595219  0.72820836  1  0.936052  0  0.231245  0.300127  0  4.076616  0
C  C49  1  0.19404326  0.45192193  0.77179056  1  0.936068  0  0.231225  0.300214  0  4.076906  0
C  C50  1  0.45192225  0.19404020  0.27178787  1  0.936108  0  0.231157  0.300018  0  4.076765  0
C  C51  1  0.80596031  0.54808282  0.22821041  1  0.936171  0  0.23119  0.300071  0  4.076765  0
C  C52  1  0.47871405  0.94142460  0.88697103  1  -0.267641  0  -0.146742  -0.231899  0  3.918459  0
C  C53  1  0.05857301  0.52128906  0.61302971  1  -0.267628  0  -0.146711  -0.231915  0  3.918525  0
C  C54  1  0.52127823  0.05857014  0.11302657  1  -0.267541  0  -0.146748  -0.23199  0  3.918471  0
C  C55  1  0.94143394  0.47871937  0.38697108  1  -0.267865  0  -0.146706  -0.231935  0  3.918325  0
C  C56  1  0.17855315  0.88501285  0.90326292  1  0.94471  0  0.230539  0.301369  0  4.063096  0
C  C57  1  0.11498878  0.82144724  0.59674071  1  0.94476  0  0.23053  0.301399  0  4.063301  0
C  C58  1  0.82144139  0.11498659  0.09674690  1  0.945205  0  0.230533  0.301517  0  4.063235  0
C  C59  1  0.88500914  0.17855700  0.40325332  1  0.944747  0  0.230518  0.301466  0  4.063159  0
C  C60  1  0.92005521  0.85059646  0.89900345  1  0.491615  0  0.055632  0.140904  0  3.91202  0
C  C61  1  0.14941095  0.07993981  0.60099853  1  0.491581  0  0.055571  0.140826  0  3.911983  0
C  C62  1  0.07993708  0.14940390  0.10100890  1  0.491705  0  0.05566  0.140969  0  3.911766  0
C  C63  1  0.85059036  0.92006586  0.39899778  1  0.491509  0  0.055699  0.140994  0  3.911853  0
C  C64  1  0.90965055  0.99824042  0.88051311  1  -0.057194  0  -0.09443  -0.188197  0  3.945692  0
C  C65  1  0.00176633  0.09034800  0.61948638  1  -0.057468  0  -0.094337  -0.18806  0  3.945498  0
C  C66  1  0.09033947  0.00175524  0.11949551  1  -0.057158  0  -0.094495  -0.188295  0  3.945672  0
C  C67  1  0.99823611  0.90965890  0.38051009  1  -0.057261  0  -0.094425  -0.188257  0  3.94549  0
C  C68  1  0.04432239  0.08529203  0.87705391  1  0.46468  0  0.058696  0.148351  0  3.92965  0
C  C69  1  0.91471007  0.95568244  0.62295112  1  0.464054  0  0.058693  0.148376  0  3.929494  0
C  C70  1  0.95567327  0.91470414  0.12295446  1  0.464067  0  0.058733  0.148535  0  3.929523  0
C  C71  1  0.08529124  0.04432436  0.37704656  1  0.464252  0  0.058734  0.148484  0  3.929408  0
S  S72  1  0.46604842  0.96577670  0.77071790  1  0.149003  0  0.032937  0.004159  0  2.843417  0
S  S73  1  0.03422274  0.53395371  0.72928207  1  0.148984  0  0.032993  0.004238  0  2.843524  0
S  S74  1  0.53394047  0.03421098  0.22927835  1  0.148948  0  0.032956  0.004277  0  2.843415  0
S  S75  1  0.96579099  0.46605646  0.27071994  1  0.149206  0  0.032993  0.004307  0  2.84336  0
S  S76  1  0.34641181  0.79666549  0.91509737  1  0.140073  0  0.03361  0.012265  0  2.81065  0
S  S77  1  0.20333278  0.65359151  0.58490478  1  0.14009  0  0.033604  0.012261  0  2.810724  0
S  S78  1  0.65358273  0.20333170  0.08490641  1  0.140043  0  0.033596  0.012207  0  2.810566  0
S  S79  1  0.79666627  0.34641395  0.41509005  1  0.139999  0  0.033587  0.012228  0  2.810502  0
N  N80  1  0.54222600  0.79111736  0.63846604  1  -1.195174  0  -0.371181  -0.31367  0  3.6832  0
N  N81  1  0.20887629  0.45777851  0.86153158  1  -1.195156  0  -0.371219  -0.313782  0  3.683163  0
N  N82  1  0.45777418  0.20888372  0.36152988  1  -1.19512  0  -0.37112  -0.313664  0  3.683082  0
N  N83  1  0.79112276  0.54222134  0.13846811  1  -1.195252  0  -0.371209  -0.313771  0  3.683189  0
N  N84  1  0.60735362  0.71157693  0.78091684  1  -1.21034  0  -0.321006  -0.328073  0  3.324034  0
N  N85  1  0.28841941  0.39264492  0.71908906  1  -1.210737  0  -0.321054  -0.328174  0  3.324123  0
N  N86  1  0.39265559  0.28841484  0.21908102  1  -1.210644  0  -0.321036  -0.3281  0  3.324121  0
N  N87  1  0.71158868  0.60735912  0.28091674  1  -1.210462  0  -0.321058  -0.328128  0  3.324115  0
N  N88  1  0.17913578  0.02908968  0.88854219  1  -1.205786  0  -0.321048  -0.328847  0  3.312879  0
N  N89  1  0.97091094  0.82086867  0.61146425  1  -1.205584  0  -0.320992  -0.328837  0  3.312852  0
N  N90  1  0.82086102  0.97090772  0.11146764  1  -1.205929  0  -0.320971  -0.328944  0  3.312793  0
N  N91  1  0.02908698  0.17913782  0.38852993  1  -1.205499  0  -0.320979  -0.328931  0  3.312858  0
N  N92  1  0.05401917  0.79183900  0.91036502  1  -1.181877  0  -0.367252  -0.306527  0  3.675078  0
N  N93  1  0.20816845  0.94597748  0.58963991  1  -1.182018  0  -0.36729  -0.306613  0  3.675205  0
N  N94  1  0.94597424  0.20816371  0.08964494  1  -1.18225  0  -0.367278  -0.306669  0  3.675199  0
N  N95  1  0.79183173  0.05402697  0.41035820  1  -1.182088  0  -0.367345  -0.306702  0  3.675181  0
Cl  Cl96  1  0.43799933  0.83618928  0.42042347  1  -0.673303  0  -0.33056  -0.519508  0  1.533337  0
Cl  Cl97  1  0.16381063  0.56201002  0.07957858  1  -0.673275  0  -0.330567  -0.519531  0  1.533357  0
Cl  Cl98  1  0.56199972  0.16381844  0.57957478  1  -0.673232  0  -0.330558  -0.519512  0  1.533368  0
Cl  Cl99  1  0.83618504  0.43798840  0.92042406  1  -0.673295  0  -0.330559  -0.519505  0  1.533328  0
