# generated using pymatgen
data_AlH9C27(BrO)6
_symmetry_space_group_name_H-M   'P 1'
_cell_length_a   4.04787815
_cell_length_b   16.20336623
_cell_length_c   16.20320275
_cell_angle_alpha   120.67025305
_cell_angle_beta   89.53966238
_cell_angle_gamma   89.51760004
_symmetry_Int_Tables_number   1
_chemical_formula_structural   AlH9C27(BrO)6
_chemical_formula_sum   'Al1 H9 C27 Br6 O6'
_cell_volume   913.96837825
_cell_formula_units_Z   1
loop_
 _symmetry_equiv_pos_site_id
 _symmetry_equiv_pos_as_xyz
  1  'x, y, z'
loop_
 _atom_site_type_symbol
 _atom_site_label
 _atom_site_symmetry_multiplicity
 _atom_site_fract_x
 _atom_site_fract_y
 _atom_site_fract_z
 _atom_site_occupancy
 _atom_site_pbe_bader_charge
 _atom_site_pbe_bader_spin_density
 _atom_site_pbe_cm5_charge
 _atom_site_pbe_ddec_charge
 _atom_site_pbe_ddec_spin_density
 _atom_site_pbe_ddec_sum_bond_order
 _atom_site_pbe_magmom
Al  Al0  1  0.99994172  0.50106581  0.49884461  1  2.511339  0  0.428684  1.630003  0  2.513558  0
H  H1  1  0.50001434  0.92036465  0.07956776  1  0.034321  0  0.101961  0.103651  0  1.025759  0
H  H2  1  0.47178061  0.65462054  0.07802122  1  0.019604  0  0.102441  0.10633  0  1.016139  0
H  H3  1  0.52830737  0.92191963  0.34533356  1  0.019698  0  0.102545  0.106281  0  1.01577  0
H  H4  1  0.73637810  0.05185267  0.15676260  1  0.054488  0  0.102783  0.116834  0  1.010875  0
H  H5  1  0.27398815  0.05796763  0.40139184  1  0.086666  0  0.102974  0.117407  0  1.009166  0
H  H6  1  0.26375339  0.84318773  0.94807525  1  0.094341  0  0.102771  0.116745  0  1.010885  0
H  H7  1  0.72615073  0.59851512  0.94196864  1  0.084092  0  0.102894  0.117483  0  1.008557  0
H  H8  1  0.76232291  0.60464958  0.15928254  1  0.083343  0  0.101312  0.114555  0  1.01375  0
H  H9  1  0.23753417  0.84058687  0.39520475  1  0.085026  0  0.101259  0.114581  0  1.014303  0
C  C10  1  0.49646683  0.57409759  0.64686002  1  1.593722  0  0.271399  0.675394  0  4.072595  0
C  C11  1  0.49989402  0.57430705  0.42549542  1  1.587679  0  0.271934  0.677573  0  4.039326  0
C  C12  1  0.50353166  0.35305450  0.42584074  1  1.60355  0  0.271434  0.67585  0  4.072732  0
C  C13  1  0.49621211  0.78116941  0.06607908  1  -0.069804  0  -0.005314  0.081607  0  4.010042  0
C  C14  1  0.50004483  0.88170630  0.11821341  1  0.147831  0  -0.083712  -0.16726  0  3.913231  0
C  C15  1  0.50385794  0.93384376  0.21877119  1  -0.069922  0  -0.004899  0.082487  0  4.008962  0
C  C16  1  0.50859385  0.88294625  0.26743107  1  0.060657  0  -0.085413  -0.171779  0  3.917399  0
C  C17  1  0.50007399  0.78244268  0.21752049  1  -0.074379  0  -0.006371  0.078584  0  4.011223  0
C  C18  1  0.49148694  0.73248822  0.11696954  1  0.059662  0  -0.08525  -0.171843  0  3.916135  0
C  C19  1  0.62134202  0.18980266  0.27815004  1  -0.126265  0  -0.010821  0.106538  0  3.966798  0
C  C20  1  0.62873501  0.08998723  0.22870041  1  0.06959  0  -0.100226  -0.195329  0  3.977255  0
C  C21  1  0.50538753  0.04004484  0.27172408  1  -0.040027  0  -0.004413  0.09858  0  3.997656  0
C  C22  1  0.38075595  0.09353071  0.36602126  1  -0.068444  0  -0.1003  -0.196028  0  3.972776  0
C  C23  1  0.38562338  0.19341016  0.41541971  1  0.007151  0  -0.010319  0.107557  0  3.959473  0
C  C24  1  0.50287051  0.24458059  0.37298840  1  0.113137  0  -0.018977  -0.126582  0  3.912481  0
C  C25  1  0.37137306  0.77123702  0.90992177  1  0.027231  0  -0.100434  -0.195914  0  3.977346  0
C  C26  1  0.37880024  0.72180688  0.81012253  1  -0.12743  0  -0.010939  0.107221  0  3.967396  0
C  C27  1  0.49726496  0.62695917  0.75532771  1  0.139384  0  -0.018489  -0.126343  0  3.912764  0
C  C28  1  0.61453917  0.58451405  0.80651608  1  -0.020737  0  -0.010127  0.107926  0  3.959506  0
C  C29  1  0.61936029  0.63390972  0.90639153  1  -0.058088  0  -0.100406  -0.196696  0  3.973328  0
C  C30  1  0.49470733  0.72818768  0.95987619  1  -0.034566  0  -0.004304  0.099366  0  3.997123  0
C  C31  1  0.64286649  0.63822895  0.22966248  1  0.097393  0  -0.101705  -0.199156  0  3.979838  0
C  C32  1  0.64460404  0.58912003  0.27941526  1  -0.13129  0  -0.004534  0.116625  0  3.926253  0
C  C33  1  0.49976624  0.62769153  0.37210683  1  0.096941  0  -0.019902  -0.145068  0  3.883382  0
C  C34  1  0.35497864  0.72038254  0.41068261  1  -0.126872  0  -0.004608  0.116904  0  3.925833  0
C  C35  1  0.35689063  0.77019979  0.36162892  1  0.095109  0  -0.101692  -0.199698  0  3.9802  0
C  C36  1  0.49997944  0.72991699  0.26996384  1  -0.107348  0  -0.000576  0.112527  0  3.992387  0
Br  Br37  1  0.22614665  0.26017405  0.54411433  1  -0.035311  0  0.038096  -0.04059  0  1.612144  0
Br  Br38  1  0.78118809  0.25201157  0.21383041  1  -0.036294  0  0.036472  -0.043683  0  1.602304  0
Br  Br39  1  0.21891800  0.78613889  0.74791022  1  -0.036667  0  0.036494  -0.043855  0  1.602093  0
Br  Br40  1  0.77402981  0.45582009  0.73972522  1  -0.036269  0  0.038017  -0.040741  0  1.612326  0
Br  Br41  1  0.84716295  0.46527099  0.20942211  1  -0.031601  0  0.040207  -0.035642  0  1.61168  0
Br  Br42  1  0.15218493  0.79035353  0.53449550  1  -0.032077  0  0.040285  -0.035564  0  1.61072  0
O  O43  1  0.26780859  0.39435364  0.40902303  1  -1.248339  0  -0.232716  -0.590703  0  2.40795  0
O  O44  1  0.26006357  0.51745516  0.60529144  1  -1.251964  0  -0.230593  -0.58977  0  2.422447  0
O  O45  1  0.26113072  0.58995769  0.48339948  1  -1.256599  0  -0.236655  -0.597814  0  2.449795  0
O  O46  1  0.73996126  0.39463955  0.48250335  1  -1.250362  0  -0.230767  -0.590356  0  2.422359  0
O  O47  1  0.73864141  0.51641476  0.40987756  1  -1.254784  0  -0.236628  -0.597325  0  2.450153  0
O  O48  1  0.73212026  0.59092010  0.60553597  1  -1.246518  0  -0.232875  -0.590871  0  2.407005  0
