# generated using pymatgen
data_ZnH32C30NO7
_symmetry_space_group_name_H-M   'P 1'
_cell_length_a   10.73274994
_cell_length_b   18.46172469
_cell_length_c   19.48594299
_cell_angle_alpha   89.45559397
_cell_angle_beta   90.69421943
_cell_angle_gamma   71.69581403
_symmetry_Int_Tables_number   1
_chemical_formula_structural   ZnH32C30NO7
_chemical_formula_sum   'Zn2 H64 C60 N2 O14'
_cell_volume   3665.05543661
_cell_formula_units_Z   2
loop_
 _symmetry_equiv_pos_site_id
 _symmetry_equiv_pos_as_xyz
  1  'x, y, z'
loop_
 _atom_site_type_symbol
 _atom_site_label
 _atom_site_symmetry_multiplicity
 _atom_site_fract_x
 _atom_site_fract_y
 _atom_site_fract_z
 _atom_site_occupancy
 _atom_site_pbe_bader_charge
 _atom_site_pbe_bader_spin_density
 _atom_site_pbe_cm5_charge
 _atom_site_pbe_ddec_charge
 _atom_site_pbe_ddec_spin_density
 _atom_site_pbe_ddec_sum_bond_order
 _atom_site_pbe_magmom
Zn  Zn0  1  0.47945038  0.58184771  0.50047601  1  1.32104  0  0.681867  0.864333  0  2.389751  0
Zn  Zn1  1  0.51250413  0.41901940  0.49823971  1  1.321045  0  0.684319  0.870364  0  2.366501  0
H  H2  1  0.14010991  0.45170846  0.48574564  1  0.125784  0  0.108802  0.113963  0  1.004698  0
H  H3  1  0.85183495  0.56141654  0.49870776  1  0.111408  0  0.105608  0.108217  0  0.990489  0
H  H4  1  0.44276841  0.83673416  0.61060033  1  0.135661  0  0.112219  0.127997  0  1.016276  0
H  H5  1  0.71636452  0.13420280  0.45598283  1  0.111293  0  0.108939  0.117081  0  1.04654  0
H  H6  1  0.60139263  0.81192426  0.40617381  1  0.072855  0  0.106519  0.119583  0  1.04596  0
H  H7  1  0.32491099  0.19784562  0.53908797  1  0.091764  0  0.112853  0.133561  0  1.005138  0
H  H8  1  0.67537551  0.89679708  0.43253872  1  0.066515  0  0.110127  0.123841  0  1.003713  0
H  H9  1  0.37014905  0.09126927  0.57348942  1  0.081523  0  0.110539  0.123689  0  1.005549  0
H  H10  1  0.02915856  0.62521394  0.50807552  1  0.061791  0  0.102047  0.115677  0  1.004081  0
H  H11  1  0.96114552  0.38708112  0.48189023  1  0.053443  0  0.10423  0.120436  0  0.996807  0
H  H12  1  0.53210641  0.38242569  0.85374429  1  0.060329  0  0.103669  0.118506  0  1.004337  0
H  H13  1  0.30374095  0.63149733  0.15784517  1  0.038087  0  0.101902  0.115431  0  1.010863  0
H  H14  1  0.29534833  0.61850975  0.82886433  1  0.084499  0  0.097767  0.099007  0  1.009399  0
H  H15  1  0.46972866  0.38582969  0.15811404  1  0.051955  0  0.095684  0.095429  0  1.017557  0
H  H16  1  0.35074700  0.61081408  0.70496795  1  0.060674  0  0.103133  0.10728  0  0.999952  0
H  H17  1  0.49731806  0.38828891  0.28473006  1  0.103362  0  0.101285  0.108153  0  1.005624  0
H  H18  1  0.41192858  0.61669262  0.93363775  1  0.0386  0  0.099731  0.0981  0  1.006237  0
H  H19  1  0.34917591  0.39846774  0.06329121  1  0.086401  0  0.099519  0.097357  0  1.007338  0
H  H20  1  0.40451951  0.61968090  0.05984749  1  0.094992  0  0.09959  0.099201  0  1.00756  0
H  H21  1  0.36051478  0.39460667  0.93696700  1  0.058817  0  0.100452  0.101364  0  1.000041  0
H  H22  1  0.43285141  0.70358434  0.60129914  1  0.136062  0  0.127268  0.104697  0  0.97603  0
H  H23  1  0.69707820  0.27259756  0.45716191  1  0.149598  0  0.126661  0.107113  0  0.982786  0
H  H24  1  0.76894435  0.70620938  0.37570360  1  0.045061  0  0.098933  0.055797  0  0.984531  0
H  H25  1  0.63186367  0.72541597  0.31704739  1  0.055783  0  0.102415  0.063857  0  0.964948  0
H  H26  1  0.82197511  0.56619647  0.35133224  1  0.060287  0  0.097257  0.096696  0  0.978139  0
H  H27  1  0.69249191  0.58760923  0.28988707  1  0.050166  0  0.101153  0.103678  0  0.957552  0
H  H28  1  0.80581770  0.66723072  0.22165655  1  0.019509  0  0.083614  0.104662  0  1.008367  0
H  H29  1  0.90898770  0.57164622  0.23244946  1  0.045421  0  0.094135  0.126067  0  0.989694  0
H  H30  1  0.93528452  0.64419919  0.28390735  1  0.026877  0  0.082144  0.101228  0  1.03775  0
H  H31  1  0.38915284  0.33779852  0.64869021  1  0.094516  0  0.103903  0.07779  0  0.994828  0
H  H32  1  0.27826888  0.28307217  0.63779216  1  0.019397  0  0.091399  0.046216  0  0.989057  0
H  H33  1  0.20375800  0.45737821  0.62906390  1  0.049283  0  0.096661  0.100526  0  0.974099  0
H  H34  1  0.09327144  0.40448489  0.61833720  1  0.031298  0  0.089617  0.081574  0  0.990804  0
H  H35  1  0.14344580  0.35302925  0.74050990  1  -0.003489  0  0.079131  0.097539  0  1.019338  0
H  H36  1  0.08215420  0.45418894  0.73836731  1  -0.000598  0  0.089687  0.119504  0  0.995211  0
H  H37  1  0.25270139  0.40753902  0.75100012  1  0.044217  0  0.08318  0.113412  0  1.027652  0
H  H38  1  0.71134723  0.08740449  0.32536603  1  0.082407  0  0.107793  0.07686  0  0.954459  0
H  H39  1  0.54900664  0.11385490  0.35755511  1  0.052366  0  0.096505  0.056609  0  0.996528  0
H  H40  1  0.69202750  0.96266316  0.28751109  1  0.010783  0  0.092178  0.085671  0  0.971621  0
H  H41  1  0.53171208  0.98660942  0.32098185  1  0.015489  0  0.088786  0.08186  0  0.985141  0
H  H42  1  0.45486644  0.09872526  0.23821266  1  0.01307  0  0.087763  0.113237  0  1.000585  0
H  H43  1  0.52198140  0.01212226  0.19361328  1  0.024214  0  0.090812  0.119129  0  0.996747  0
H  H44  1  0.61523733  0.07540516  0.20434597  1  0.017542  0  0.087681  0.111769  0  1.000861  0
H  H45  1  0.19124482  0.91566373  0.59302388  1  0.050519  0  0.108156  0.077368  0  0.95502  0
H  H46  1  0.25693149  0.91384048  0.50950779  1  0.040965  0  0.097223  0.059071  0  0.998533  0
H  H47  1  0.09096785  0.05736555  0.58342988  1  0.024659  0  0.092346  0.086512  0  0.976103  0
H  H48  1  0.15685000  0.05664877  0.50051453  1  0.017193  0  0.088028  0.08058  0  0.982856  0
H  H49  1  0.02292408  0.97446290  0.45780696  1  0.032926  0  0.085783  0.110829  0  1.008975  0
H  H50  1  0.91988798  0.06012447  0.49314547  1  0.030935  0  0.086398  0.116169  0  1.018691  0
H  H51  1  0.95824780  0.97370948  0.54102650  1  0.020093  0  0.087828  0.113738  0  0.997103  0
H  H52  1  0.79235233  0.35320520  0.74579557  1  0.000432  0  0.090372  0.047452  0  0.972986  0
H  H53  1  0.71509274  0.40680266  0.67138315  1  0.07378  0  0.100831  0.069228  0  0.998243  0
H  H54  1  0.77441092  0.23435804  0.69002238  1  0.015385  0  0.087084  0.077287  0  0.974057  0
H  H55  1  0.69916190  0.28985273  0.61705409  1  0.051781  0  0.091014  0.091237  0  0.997962  0
H  H56  1  0.90183335  0.32531740  0.59508886  1  0.03611  0  0.083648  0.114752  0  1.031689  0
H  H57  1  0.94111615  0.22468324  0.59815994  1  0.007513  0  0.08049  0.10463  0  1.014535  0
H  H58  1  0.98009657  0.27320129  0.66959764  1  0.003753  0  0.078862  0.099165  0  1.019174  0
H  H59  1  0.22744728  0.62141651  0.36525448  1  0.076922  0  0.097993  0.066915  0  1.017085  0
H  H60  1  0.12843529  0.67693983  0.29685459  1  0.015148  0  0.085129  0.03735  0  1.000061  0
H  H61  1  0.30126410  0.72851723  0.39935878  1  0.057629  0  0.090698  0.092244  0  0.990467  0
H  H62  1  0.21766013  0.78452065  0.32836832  1  0.013436  0  0.083792  0.071484  0  0.981091  0
H  H63  1  0.00006091  0.78024722  0.37799490  1  0.019367  0  0.073428  0.090509  0  1.025949  0
H  H64  1  0.08555196  0.82326507  0.43493104  1  0.004685  0  0.079625  0.104103  0  1.021457  0
H  H65  1  0.09017180  0.72771988  0.45004138  1  0.053253  0  0.082438  0.116802  0  1.040144  0
C  C66  1  0.45807433  0.50365421  0.36751380  1  1.59462  0  0.211918  0.603014  0  4.167235  0
C  C67  1  0.49112602  0.49525651  0.63321499  1  1.586824  0  0.212882  0.599048  0  4.177894  0
C  C68  1  0.46992547  0.49387828  0.70919333  1  -0.052322  0  -0.028651  -0.149989  0  3.9467  0
C  C69  1  0.42192429  0.50929884  0.29247845  1  -0.071662  0  -0.027903  -0.146637  0  3.932754  0
C  C70  1  0.39615680  0.56912481  0.96190555  1  -0.051955  0  -0.093601  -0.128891  0  4.002976  0
C  C71  1  0.36514153  0.44610462  0.03518579  1  -0.10263  0  -0.093674  -0.128397  0  4.000361  0
C  C72  1  0.39175261  0.57079647  0.03315169  1  -0.054045  0  -0.092418  -0.12596  0  3.998288  0
C  C73  1  0.37104190  0.44398787  0.96390140  1  -0.002306  0  -0.093474  -0.131464  0  4.003679  0
C  C74  1  0.37860078  0.50881203  0.07157525  1  0.003156  0  -0.011592  0.063668  0  4.001555  0
C  C75  1  0.38910173  0.50491012  0.92584237  1  -0.032317  0  -0.009936  0.066684  0  4.003758  0
C  C76  1  0.47181481  0.73012518  0.56006321  1  0.439971  0  0.057368  0.127917  0  3.946714  0
C  C77  1  0.61806965  0.25221929  0.47526784  1  0.433646  0  0.053885  0.11853  0  3.936808  0
C  C78  1  0.47621199  0.80414219  0.56457375  1  -0.000703  0  -0.099723  -0.222318  0  3.978664  0
C  C79  1  0.62761267  0.17563842  0.47448809  1  -0.004708  0  -0.093342  -0.21007  0  3.968805  0
C  C80  1  0.52016900  0.83680102  0.50784702  1  -0.029795  0  0.01019  0.151311  0  4.004949  0
C  C81  1  0.52154501  0.15237503  0.49726434  1  -0.007039  0  0.012181  0.147801  0  3.9907  0
C  C82  1  0.56793747  0.78973963  0.45177094  1  0.014167  0  -0.107526  -0.324063  0  3.954017  0
C  C83  1  0.41276528  0.20974337  0.52208473  1  -0.018671  0  -0.092698  -0.292712  0  3.922708  0
C  C84  1  0.56860510  0.71377902  0.45347148  1  1.072768  0  0.222029  0.407353  0  4.075721  0
C  C85  1  0.41333667  0.28515400  0.52442963  1  1.068637  0  0.220407  0.411724  0  4.074145  0
C  C86  1  0.60376172  0.93927030  0.46250933  1  -0.049874  0  -0.093589  -0.219879  0  3.97866  0
C  C87  1  0.43580469  0.05005309  0.53998948  1  0.011251  0  -0.094103  -0.219729  0  3.98093  0
C  C88  1  0.75004780  0.45096456  0.49315441  1  1.560083  0  0.202098  0.627088  0  4.207732  0
C  C89  1  0.24130470  0.56165241  0.50361954  1  1.555593  0  0.197471  0.615047  0  4.214128  0
C  C90  1  0.60547587  0.01415802  0.45627441  1  0.546675  0  0.081858  0.206764  0  4.036964  0
C  C91  1  0.42944904  0.97598302  0.54370250  1  0.467595  0  0.083092  0.209402  0  4.043836  0
C  C92  1  0.52225224  0.07215552  0.49708873  1  -0.025944  0  -0.011277  -0.020701  0  3.972529  0
C  C93  1  0.51744445  0.91730404  0.50552619  1  0.009503  0  -0.010508  -0.017313  0  3.968126  0
C  C94  1  0.89082928  0.44390412  0.48802242  1  -0.018634  0  -0.094203  -0.23821  0  3.900137  0
C  C95  1  0.10016624  0.56876313  0.50115400  1  -0.080593  0  -0.094257  -0.232929  0  3.897075  0
C  C96  1  0.92905120  0.50687761  0.49228810  1  -0.098709  0  -0.078614  -0.034848  0  4.036895  0
C  C97  1  0.06265493  0.50616226  0.49167811  1  -0.036243  0  -0.077142  -0.034485  0  4.030711  0
C  C98  1  0.51968742  0.42878834  0.75232026  1  0.489595  0  0.088485  0.246664  0  4.050456  0
C  C99  1  0.36529740  0.57839082  0.25517652  1  0.506006  0  0.087518  0.250343  0  4.039517  0
C  C100  1  0.48784655  0.43307590  0.82185725  1  -0.06027  0  -0.103581  -0.254733  0  3.969772  0
C  C101  1  0.34845952  0.57683931  0.18399468  1  -0.032536  0  -0.106619  -0.257256  0  3.971418  0
C  C102  1  0.40909495  0.50086887  0.85101369  1  0.029373  0  -0.007467  0.090972  0  4.034604  0
C  C103  1  0.38620171  0.50862202  0.14724167  1  0.012617  0  -0.007823  0.092493  0  4.031837  0
C  C104  1  0.35918355  0.56538479  0.80796705  1  -0.052009  0  -0.104478  -0.163856  0  4.024143  0
C  C105  1  0.43751796  0.43999673  0.18484889  1  -0.123545  0  -0.10501  -0.160805  0  4.021264  0
C  C106  1  0.38985780  0.56126860  0.73880856  1  -0.002579  0  -0.088138  -0.071045  0  4.018325  0
C  C107  1  0.45414306  0.44105114  0.25551448  1  0.021617  0  -0.090196  -0.074159  0  4.0214  0
C  C108  1  0.69715905  0.68199190  0.35185451  1  0.375842  0  -0.056418  0.044485  0  3.878123  0
C  C109  1  0.76657157  0.60957445  0.31375265  1  0.000367  0  -0.162465  -0.127277  0  3.953797  0
C  C110  1  0.85890839  0.62409287  0.26001709  1  -0.089984  0  -0.241229  -0.351801  0  3.982018  0
C  C111  1  0.29638293  0.33712072  0.62433099  1  0.378114  0  -0.061666  0.045768  0  3.849186  0
C  C112  1  0.18333064  0.40520058  0.64552981  1  -0.005627  0  -0.167071  -0.124577  0  3.961482  0
C  C113  1  0.16456663  0.40484273  0.72315832  1  -0.024541  0  -0.243517  -0.350639  0  3.971424  0
C  C114  1  0.63648553  0.06490575  0.34687441  1  0.358384  0  -0.064565  0.03266  0  3.894524  0
C  C115  1  0.60273175  0.01067311  0.29706605  1  0.026332  0  -0.171315  -0.13893  0  3.995126  0
C  C116  1  0.54558263  0.05145911  0.22965266  1  -0.048919  0  -0.240796  -0.351657  0  3.979191  0
C  C117  1  0.22595224  0.94930246  0.55525725  1  0.402481  0  -0.06574  0.032174  0  3.89405  0
C  C118  1  0.11831978  0.02309440  0.53681097  1  0.004134  0  -0.171106  -0.140271  0  3.998269  0
C  C119  1  0.99855467  0.00696601  0.50547037  1  -0.067758  0  -0.24111  -0.345501  0  3.971685  0
C  C120  1  0.72363269  0.35544734  0.70245800  1  0.415417  0  -0.068022  0.045209  0  3.893325  0
C  C121  1  0.77146703  0.28489857  0.65871000  1  0.009399  0  -0.170157  -0.126594  0  3.975035  0
C  C122  1  0.90629612  0.27658277  0.62892478  1  -0.063594  0  -0.245916  -0.349543  0  3.979013  0
C  C123  1  0.21830859  0.66843893  0.32859216  1  0.398682  0  -0.069849  0.047056  0  3.88962  0
C  C124  1  0.21317592  0.74079455  0.36629326  1  -0.013557  0  -0.170407  -0.121658  0  3.970481  0
C  C125  1  0.09001573  0.76957089  0.40959929  1  -0.085432  0  -0.248944  -0.350867  0  3.981257  0
N  N126  1  0.51443211  0.68582129  0.50531645  1  -1.250517  0  -0.326744  -0.308059  0  3.484615  0
N  N127  1  0.51280230  0.30662677  0.49971407  1  -1.218809  0  -0.320398  -0.29814  0  3.476946  0
O  O128  1  0.45182110  0.56501073  0.39828734  1  -1.158021  0  -0.308888  -0.543907  0  2.407487  0
O  O129  1  0.51622245  0.43199099  0.60194944  1  -1.169988  0  -0.312314  -0.546792  0  2.377192  0
O  O130  1  0.49517086  0.43666618  0.39426289  1  -1.169522  0  -0.327996  -0.55833  0  2.314187  0
O  O131  1  0.47916672  0.55997466  0.60590764  1  -1.172245  0  -0.317861  -0.556109  0  2.330511  0
O  O132  1  0.67169822  0.51823223  0.49958751  1  -1.191939  0  -0.323015  -0.574646  0  2.411349  0
O  O133  1  0.32148145  0.49432883  0.50082739  1  -1.186677  0  -0.321121  -0.57978  0  2.412337  0
O  O134  1  0.71679181  0.39029223  0.49170573  1  -1.164706  0  -0.322447  -0.557792  0  2.258869  0
O  O135  1  0.27406057  0.62236762  0.50791717  1  -1.151011  0  -0.323135  -0.545743  0  2.226524  0
O  O136  1  0.62032328  0.66262895  0.40502200  1  -1.069126  0  -0.149926  -0.185543  0  2.5718  0
O  O137  1  0.31082540  0.34108038  0.54992563  1  -1.091965  0  -0.185929  -0.250967  0  2.508259  0
O  O138  1  0.69388272  0.02778746  0.41091256  1  -1.080392  0  -0.207359  -0.248543  0  2.507027  0
O  O139  1  0.33896213  0.96280645  0.58770686  1  -1.079432  0  -0.208646  -0.247161  0  2.501365  0
O  O140  1  0.59789522  0.35886645  0.73057641  1  -1.07731  0  -0.205601  -0.247027  0  2.532444  0
O  O141  1  0.32927470  0.64985647  0.28347034  1  -1.070267  0  -0.208807  -0.246359  0  2.526029  0
