# generated using pymatgen
data_CdH20C10S2(NO)2
_symmetry_space_group_name_H-M   'P 1'
_cell_length_a   7.49684987
_cell_length_b   9.00298083
_cell_length_c   11.81036371
_cell_angle_alpha   112.48521206
_cell_angle_beta   100.16057330
_cell_angle_gamma   89.95442623
_symmetry_Int_Tables_number   1
_chemical_formula_structural   CdH20C10S2(NO)2
_chemical_formula_sum   'Cd2 H40 C20 S4 N4 O4'
_cell_volume   723.02817025
_cell_formula_units_Z   2
loop_
 _symmetry_equiv_pos_site_id
 _symmetry_equiv_pos_as_xyz
  1  'x, y, z'
loop_
 _atom_site_type_symbol
 _atom_site_label
 _atom_site_symmetry_multiplicity
 _atom_site_fract_x
 _atom_site_fract_y
 _atom_site_fract_z
 _atom_site_occupancy
 _atom_site_pbe_bader_spin_density
 _atom_site_pbe_cm5_charge
 _atom_site_pbe_ddec_charge
 _atom_site_pbe_ddec_spin_density
 _atom_site_pbe_ddec_sum_bond_order
 _atom_site_pbe_magmom
Cd  Cd0  1  0.75015114  0.93923150  0.00028458  1  0  0.645067  0.790711  0  2.336246  0
Cd  Cd1  1  0.24983771  0.06077150  0.99972472  1  0  0.645069  0.790756  0  2.336138  0
H  H2  1  0.29377915  0.84133199  0.41243214  1  0  0.104868  0.077993  0  0.999674  0
H  H3  1  0.20728143  0.42818947  0.58729807  1  0  0.104908  0.07797  0  0.999674  0
H  H4  1  0.70623065  0.15867819  0.58758081  1  0  0.104897  0.078085  0  0.999656  0
H  H5  1  0.79274049  0.57180275  0.41268303  1  0  0.104879  0.077891  0  0.999731  0
H  H6  1  0.06225433  0.88022587  0.38603019  1  0  0.099538  0.081543  0  1.016513  0
H  H7  1  0.43865220  0.49382887  0.61410680  1  0  0.099345  0.080915  0  1.017232  0
H  H8  1  0.93775484  0.11977707  0.61398309  1  0  0.099617  0.081679  0  1.016525  0
H  H9  1  0.56136636  0.50618855  0.38590503  1  0  0.099383  0.080979  0  1.017273  0
H  H10  1  0.24160936  0.11217873  0.56811538  1  0  0.082666  0.118991  0  1.041746  0
H  H11  1  0.25983141  0.54285800  0.43187981  1  0  0.082194  0.118368  0  1.042714  0
H  H12  1  0.75839660  0.88783390  0.43189278  1  0  0.082605  0.118986  0  1.041726  0
H  H13  1  0.74019516  0.45714140  0.56811155  1  0  0.082167  0.118307  0  1.042715  0
H  H14  1  0.14659194  0.17094186  0.44296073  1  0  0.081985  0.111471  0  1.041734  0
H  H15  1  0.35370667  0.72752426  0.55708935  1  0  0.081968  0.11177  0  1.041152  0
H  H16  1  0.85341455  0.82906113  0.55704380  1  0  0.082033  0.111549  0  1.041646  0
H  H17  1  0.64631926  0.27246789  0.44290320  1  0  0.081986  0.111794  0  1.041117  0
H  H18  1  0.38128152  0.13846520  0.46837339  1  0  0.084187  0.114719  0  1.02994  0
H  H19  1  0.11915768  0.66890329  0.53110466  1  0  0.084484  0.115405  0  1.029433  0
H  H20  1  0.61872257  0.86154141  0.53163363  1  0  0.084156  0.114729  0  1.029917  0
H  H21  1  0.88087484  0.33110214  0.46888577  1  0  0.084472  0.115372  0  1.029372  0
H  H22  1  0.49145632  0.93001003  0.30016607  1  0  0.0971  0.072299  0  0.997308  0
H  H23  1  0.00867812  0.62884276  0.69936400  1  0  0.09729  0.072692  0  0.997517  0
H  H24  1  0.50855120  0.06998932  0.69984090  1  0  0.097142  0.072407  0  0.997274  0
H  H25  1  0.99130041  0.37114953  0.30061897  1  0  0.097293  0.072768  0  0.997339  0
H  H26  1  0.39663801  0.89289333  0.14324206  1  0  0.098873  0.08112  0  1.054788  0
H  H27  1  0.10293454  0.74884272  0.85650189  1  0  0.099248  0.081729  0  1.053643  0
H  H28  1  0.60336419  0.10710724  0.85676551  1  0  0.098829  0.081092  0  1.054835  0
H  H29  1  0.89703838  0.25114719  0.14347636  1  0  0.099234  0.081731  0  1.053613  0
H  H30  1  0.55890074  0.65853221  0.16052122  1  0  0.086965  0.124965  0  1.022973  0
H  H31  1  0.94164501  0.49672535  0.83859390  1  0  0.08747  0.126143  0  1.020735  0
H  H32  1  0.44109846  0.34146477  0.83948072  1  0  0.086978  0.124975  0  1.022874  0
H  H33  1  0.05833901  0.50326810  0.16139681  1  0  0.087481  0.126186  0  1.020739  0
H  H34  1  0.32404484  0.60454361  0.09606357  1  0  0.088634  0.124675  0  1.015714  0
H  H35  1  0.17649304  0.50735163  0.90305353  1  0  0.088525  0.124434  0  1.015711  0
H  H36  1  0.67595758  0.39545939  0.90394219  1  0  0.08864  0.124653  0  1.015815  0
H  H37  1  0.82349623  0.49265512  0.09693153  1  0  0.088573  0.124483  0  1.015715  0
H  H38  1  0.40851438  0.63263514  0.25352426  1  0  0.079038  0.104159  0  1.051005  0
H  H39  1  0.09221564  0.37790588  0.74545537  1  0  0.079071  0.1035  0  1.051861  0
H  H40  1  0.59148899  0.36736303  0.74647850  1  0  0.078998  0.104096  0  1.050968  0
H  H41  1  0.90777141  0.62209119  0.25453505  1  0  0.079072  0.10353  0  1.051905  0
C  C42  1  0.06736186  0.90679475  0.17374408  1  0  0.213697  0.432428  0  4.182892  0
C  C43  1  0.43253012  0.73285155  0.82648177  1  0  0.213762  0.430647  0  4.184646  0
C  C44  1  0.93264225  0.09319620  0.82625494  1  0  0.213557  0.432238  0  4.182549  0
C  C45  1  0.56744175  0.26715873  0.17352522  1  0  0.213827  0.430785  0  4.184123  0
C  C46  1  0.19963018  0.91980716  0.38403125  1  0  -0.063434  -2.1e-05  0  3.905459  0
C  C47  1  0.30113524  0.53527866  0.61591761  1  0  -0.063115  0.000945  0  3.90457  0
C  C48  1  0.80037701  0.08020424  0.61598091  1  0  -0.063554  -0.000301  0  3.905939  0
C  C49  1  0.69887537  0.46472438  0.38407639  1  0  -0.063015  0.001043  0  3.904546  0
C  C50  1  0.24564992  0.09595097  0.47154784  1  0  -0.249692  -0.391404  0  3.946385  0
C  C51  1  0.25511534  0.62362035  0.52835813  1  0  -0.250158  -0.392851  0  3.946035  0
C  C52  1  0.75435728  0.90406044  0.52846179  1  0  -0.249628  -0.391458  0  3.946325  0
C  C53  1  0.74490404  0.37637424  0.47163184  1  0  -0.250141  -0.392735  0  3.945837  0
C  C54  1  0.38783123  0.85524932  0.21975052  1  0  -0.070279  -0.010814  0  3.919043  0
C  C55  1  0.11223816  0.63469694  0.77982265  1  0  -0.070231  -0.011562  0  3.917783  0
C  C56  1  0.61217610  0.14474764  0.78025318  1  0  -0.070354  -0.01095  0  3.919209  0
C  C57  1  0.88773766  0.36529536  0.22016001  1  0  -0.070307  -0.011611  0  3.917711  0
C  C58  1  0.42137189  0.67734731  0.18067908  1  0  -0.247651  -0.377135  0  3.932892  0
C  C59  1  0.07916403  0.49551366  0.81846224  1  0  -0.247808  -0.3772  0  3.930479  0
C  C60  1  0.57863137  0.32264965  0.81932585  1  0  -0.247608  -0.377021  0  3.932863  0
C  C61  1  0.92082137  0.50447982  0.18152270  1  0  -0.247871  -0.377383  0  3.930496  0
S  S62  1  0.85674760  0.95008500  0.21872430  1  0  -0.199314  -0.435104  0  2.333784  0
S  S63  1  0.64347450  0.73116342  0.78200247  1  0  -0.198867  -0.434255  0  2.336269  0
S  S64  1  0.14325273  0.04990954  0.78128128  1  0  -0.199292  -0.435061  0  2.333758  0
S  S65  1  0.35649639  0.26885164  0.21801512  1  0  -0.198908  -0.43434  0  2.33601  0
N  N66  1  0.20987037  0.89184756  0.25508166  1  0  -0.27725  -0.102214  0  3.610485  0
N  N67  1  0.29032208  0.63643768  0.74478620  1  0  -0.276605  -0.100102  0  3.608519  0
N  N68  1  0.79014109  0.10815055  0.74493047  1  0  -0.277058  -0.102015  0  3.610626  0
N  N69  1  0.70965810  0.36355821  0.25520056  1  0  -0.276561  -0.100161  0  3.608685  0
O  O70  1  0.08331347  0.88862601  0.06309257  1  0  -0.333148  -0.523589  0  2.38862  0
O  O71  1  0.41602415  0.82524807  0.93713067  1  0  -0.333365  -0.523371  0  2.390209  0
O  O72  1  0.91669268  0.11135764  0.93691724  1  0  -0.333147  -0.52355  0  2.388016  0
O  O73  1  0.58392711  0.17474300  0.06286578  1  0  -0.333414  -0.523496  0  2.390066  0
