# generated using pymatgen
data_NdH7(C3O4)2
_symmetry_space_group_name_H-M   'P 1'
_cell_length_a   8.68609858
_cell_length_b   9.32738598
_cell_length_c   12.81188334
_cell_angle_alpha   75.40591827
_cell_angle_beta   70.21819203
_cell_angle_gamma   62.22232151
_symmetry_Int_Tables_number   1
_chemical_formula_structural   NdH7(C3O4)2
_chemical_formula_sum   'Nd4 H28 C24 O32'
_cell_volume   858.63428346
_cell_formula_units_Z   4
loop_
 _symmetry_equiv_pos_site_id
 _symmetry_equiv_pos_as_xyz
  1  'x, y, z'
loop_
 _atom_site_type_symbol
 _atom_site_label
 _atom_site_symmetry_multiplicity
 _atom_site_fract_x
 _atom_site_fract_y
 _atom_site_fract_z
 _atom_site_occupancy
 _atom_site_hle17_bader_spin_density
 _atom_site_hle17_ddec_charge
 _atom_site_hle17_ddec_spin_density
 _atom_site_hle17_ddec_sum_bond_order
 _atom_site_hle17_magmom
 _atom_site_hse06_10hf_bader_spin_density
 _atom_site_hse06_10hf_ddec_charge
 _atom_site_hse06_10hf_ddec_spin_density
 _atom_site_hse06_10hf_ddec_sum_bond_order
 _atom_site_hse06_10hf_magmom
 _atom_site_hse06_bader_spin_density
 _atom_site_hse06_ddec_charge
 _atom_site_hse06_ddec_spin_density
 _atom_site_hse06_ddec_sum_bond_order
 _atom_site_hse06_magmom
 _atom_site_pbe_bader_spin_density
 _atom_site_pbe_cm5_charge
 _atom_site_pbe_ddec_charge
 _atom_site_pbe_ddec_spin_density
 _atom_site_pbe_ddec_sum_bond_order
 _atom_site_pbe_magmom
Nd  Nd0  1  0.00133607  0.00090386  0.82991220  1  0  2.347347  0  1.605841  0  0  2.240288  0  1.968602  0  0  2.281175  0  1.924716  0  0  1.518974  2.156216  0  2.099495  0
Nd  Nd1  1  0.83235528  0.49895575  0.66995257  1  0  2.346329  0  1.607773  0  0  2.239131  0  1.970613  0  0  2.27996  0  1.926781  0  0  1.518716  2.153531  0  2.103937  0
Nd  Nd2  1  0.99866262  0.99909568  0.17008861  1  0  2.34735  0  1.605834  0  0  2.240287  0  1.968592  0  0  2.281174  0  1.924707  0  0  1.518986  2.156216  0  2.099481  0
Nd  Nd3  1  0.16764514  0.50104379  0.33004776  1  0  2.346333  0  1.607744  0  0  2.239135  0  1.970583  0  0  2.279967  0  1.926748  0  0  1.518725  2.153534  0  2.103906  0
H  H4  1  0.67361377  0.02535324  0.45799277  1  0  0.142262  0  0.918628  0  0  0.154097  0  0.979015  0  0  0.157454  0  0.977091  0  0  0.11897  0.151608  0  0.980558  0
H  H5  1  0.15757486  0.47462254  0.04203474  1  0  0.141899  0  0.918341  0  0  0.153995  0  0.978411  0  0  0.157354  0  0.97653  0  0  0.118897  0.151328  0  0.980242  0
H  H6  1  0.32638551  0.97464874  0.54200737  1  0  0.142265  0  0.918651  0  0  0.154103  0  0.979023  0  0  0.157461  0  0.977101  0  0  0.11898  0.151623  0  0.980557  0
H  H7  1  0.84242461  0.52537700  0.95796530  1  0  0.141906  0  0.918337  0  0  0.154003  0  0.978405  0  0  0.157361  0  0.976524  0  0  0.118902  0.151336  0  0.980236  0
H  H8  1  0.83694446  0.03069579  0.50662294  1  0  0.151315  0  0.895109  0  0  0.166093  0  0.946058  0  0  0.16926  0  0.944676  0  0  0.124486  0.163633  0  0.947715  0
H  H9  1  0.37477425  0.46933701  0.99363603  1  0  0.151108  0  0.895911  0  0  0.166134  0  0.946525  0  0  0.169318  0  0.945151  0  0  0.124776  0.163729  0  0.948014  0
H  H10  1  0.16305482  0.96930618  0.49337720  1  0  0.151336  0  0.895087  0  0  0.166118  0  0.94603  0  0  0.169287  0  0.944644  0  0  0.124497  0.163658  0  0.947689  0
H  H11  1  0.62522616  0.53066252  0.00636429  1  0  0.151114  0  0.895906  0  0  0.16614  0  0.946521  0  0  0.169326  0  0.945145  0  0  0.12478  0.163736  0  0.94801  0
H  H12  1  0.41937880  0.12565273  0.61528337  1  0  0.135664  0  0.919631  0  0  0.148825  0  0.976111  0  0  0.151726  0  0.974985  0  0  0.111212  0.146578  0  0.977437  0
H  H13  1  0.16050593  0.37435597  0.88491493  1  0  0.136001  0  0.919999  0  0  0.148975  0  0.976464  0  0  0.151891  0  0.975349  0  0  0.111341  0.146947  0  0.977494  0
H  H14  1  0.58061898  0.87435047  0.38471639  1  0  0.135683  0  0.919639  0  0  0.148866  0  0.976095  0  0  0.151767  0  0.974967  0  0  0.111246  0.146618  0  0.977422  0
H  H15  1  0.83949391  0.62564478  0.11508530  1  0  0.135992  0  0.920001  0  0  0.148967  0  0.976466  0  0  0.151882  0  0.975351  0  0  0.111336  0.146938  0  0.977497  0
H  H16  1  0.55826441  0.15949000  0.67198775  1  0  0.141755  0  0.9127  0  0  0.156026  0  0.968634  0  0  0.159081  0  0.967038  0  0  0.118762  0.153225  0  0.971177  0
H  H17  1  0.39006081  0.34009873  0.82826688  1  0  0.140178  0  0.912923  0  0  0.154642  0  0.968966  0  0  0.157862  0  0.967133  0  0  0.118335  0.152276  0  0.970752  0
H  H18  1  0.44173466  0.84051075  0.32801326  1  0  0.141745  0  0.91271  0  0  0.156018  0  0.968642  0  0  0.159074  0  0.967046  0  0  0.118772  0.153216  0  0.971187  0
H  H19  1  0.60993788  0.65990080  0.17173394  1  0  0.140167  0  0.912922  0  0  0.154633  0  0.968965  0  0  0.157854  0  0.967132  0  0  0.118331  0.152267  0  0.970751  0
H  H20  1  0.49093805  0.81155678  0.67829425  1  0  0.394118  0  0.900929  0  0  0.367766  0  0.97325  0  0  0.379412  0  0.95989  0  0  0.306644  0.359679  0  0.981728  0
H  H21  1  0.98115286  0.68814689  0.82172240  1  0  0.394569  0  0.899129  0  0  0.368295  0  0.971567  0  0  0.37999  0  0.958011  0  0  0.306333  0.360131  0  0.980272  0
H  H22  1  0.50906101  0.18844397  0.32170676  1  0  0.394167  0  0.900891  0  0  0.367811  0  0.973214  0  0  0.379458  0  0.959852  0  0  0.306652  0.359724  0  0.981691  0
H  H23  1  0.01884604  0.31185387  0.17827755  1  0  0.394556  0  0.899131  0  0  0.368283  0  0.971572  0  0  0.379979  0  0.958014  0  0  0.306335  0.360118  0  0.980278  0
H  H24  1  0.63536452  0.04843710  0.00699778  1  0  0.443097  0  0.855646  0  0  0.409721  0  0.921512  0  0  0.42214  0  0.903449  0  0  0.296276  0.400775  0  0.934415  0
H  H25  1  0.69075421  0.45162988  0.49280978  1  0  0.443484  0  0.855189  0  0  0.41023  0  0.920925  0  0  0.422646  0  0.902857  0  0  0.29663  0.401355  0  0.933723  0
H  H26  1  0.36463516  0.95156366  0.99300139  1  0  0.443071  0  0.855682  0  0  0.409684  0  0.921559  0  0  0.422103  0  0.903498  0  0  0.296276  0.400737  0  0.934462  0
H  H27  1  0.30924642  0.54837088  0.50718967  1  0  0.44348  0  0.855195  0  0  0.410226  0  0.920929  0  0  0.422641  0  0.902863  0  0  0.296628  0.401349  0  0.933731  0
H  H28  1  0.62727082  0.01363729  0.89350757  1  0  0.436045  0  0.868265  0  0  0.403798  0  0.933427  0  0  0.414518  0  0.917982  0  0  0.295148  0.396222  0  0.944196  0
H  H29  1  0.53455685  0.48621858  0.60641322  1  0  0.436678  0  0.868176  0  0  0.404714  0  0.932816  0  0  0.415412  0  0.917403  0  0  0.295438  0.397002  0  0.943863  0
H  H30  1  0.37273037  0.98636225  0.10649197  1  0  0.436041  0  0.868272  0  0  0.403803  0  0.933418  0  0  0.414523  0  0.917974  0  0  0.295171  0.396226  0  0.944189  0
H  H31  1  0.46544472  0.51378218  0.39358652  1  0  0.436688  0  0.868158  0  0  0.404728  0  0.93279  0  0  0.415426  0  0.917378  0  0  0.29544  0.397019  0  0.943833  0
C  C32  1  0.91157844  0.80422400  0.45172682  1  0  0.799325  0  3.742118  0  0  0.752898  0  4.041456  0  0  0.788209  0  4.028785  0  0  0.24383  0.728688  0  4.043216  0
C  C33  1  0.16753271  0.69587098  0.04838758  1  0  0.796345  0  3.747425  0  0  0.751491  0  4.044336  0  0  0.786797  0  4.031712  0  0  0.243738  0.727434  0  4.04589  0
C  C34  1  0.08842087  0.19577555  0.54827215  1  0  0.799378  0  3.742133  0  0  0.752954  0  4.041459  0  0  0.788266  0  4.028787  0  0  0.243832  0.728744  0  4.04322  0
C  C35  1  0.83246676  0.30412856  0.95161246  1  0  0.796366  0  3.747428  0  0  0.75153  0  4.044324  0  0  0.786836  0  4.031702  0  0  0.243766  0.727472  0  4.045878  0
C  C36  1  0.77064115  0.95376977  0.50885363  1  0  -0.346284  0  3.574634  0  0  -0.387798  0  3.813736  0  0  -0.394688  0  3.818337  0  0  -0.145816  -0.383291  0  3.811641  0
C  C37  1  0.23376500  0.54621575  0.99126601  1  0  -0.345061  0  3.574734  0  0  -0.387093  0  3.813113  0  0  -0.394014  0  3.817717  0  0  -0.145888  -0.382572  0  3.811017  0
C  C38  1  0.22936021  0.04622977  0.49114698  1  0  -0.346302  0  3.574578  0  0  -0.38781  0  3.81367  0  0  -0.394704  0  3.818271  0  0  -0.145821  -0.383311  0  3.811576  0
C  C39  1  0.76623541  0.45378379  0.00873431  1  0  -0.345059  0  3.574725  0  0  -0.387099  0  3.813103  0  0  -0.394021  0  3.817709  0  0  -0.145885  -0.382582  0  3.811001  0
C  C40  1  0.67067899  0.91682628  0.62945035  1  0  0.272571  0  3.583142  0  0  0.270746  0  3.828984  0  0  0.274736  0  3.840326  0  0  0.076468  0.267575  0  3.820666  0
C  C41  1  0.21745163  0.58295133  0.87060933  1  0  0.274773  0  3.579811  0  0  0.272201  0  3.827125  0  0  0.276243  0  3.838451  0  0  0.07669  0.268891  0  3.819203  0
C  C42  1  0.32932163  0.08317448  0.37054910  1  0  0.272521  0  3.583172  0  0  0.270679  0  3.829016  0  0  0.274671  0  3.840356  0  0  0.076424  0.267511  0  3.820697  0
C  C43  1  0.78254878  0.41704821  0.12939100  1  0  0.274751  0  3.579859  0  0  0.272158  0  3.827175  0  0  0.276194  0  3.838511  0  0  0.076687  0.268869  0  3.819215  0
C  C44  1  0.50703401  0.07132552  0.67232463  1  0  -0.360682  0  3.595761  0  0  -0.403635  0  3.835257  0  0  -0.410708  0  3.841637  0  0  -0.159575  -0.398988  0  3.832297  0
C  C45  1  0.25100079  0.42842138  0.82788135  1  0  -0.360578  0  3.594852  0  0  -0.40376  0  3.835147  0  0  -0.410878  0  3.84146  0  0  -0.159395  -0.399189  0  3.831931  0
C  C46  1  0.49296719  0.92867402  0.32767491  1  0  -0.360664  0  3.595809  0  0  -0.403634  0  3.835312  0  0  -0.410707  0  3.84169  0  0  -0.159625  -0.398985  0  3.832347  0
C  C47  1  0.74899905  0.57157938  0.17211888  1  0  -0.36054  0  3.594816  0  0  -0.403724  0  3.835126  0  0  -0.410841  0  3.841439  0  0  -0.159391  -0.399156  0  3.831899  0
C  C48  1  0.39993101  0.03840049  0.79125621  1  0  0.750706  0  3.805235  0  0  0.7009  0  4.110408  0  0  0.734683  0  4.101673  0  0  0.230568  0.677813  0  4.11424  0
C  C49  1  0.22978204  0.46134169  0.70893103  1  0  0.751854  0  3.803061  0  0  0.701604  0  4.108784  0  0  0.735301  0  4.100089  0  0  0.230652  0.678442  0  4.113122  0
C  C50  1  0.60006846  0.96159905  0.20874383  1  0  0.750693  0  3.805206  0  0  0.700879  0  4.110393  0  0  0.734661  0  4.101661  0  0  0.230575  0.677793  0  4.114223  0
C  C51  1  0.77021687  0.53865907  0.29106892  1  0  0.75181  0  3.803078  0  0  0.701545  0  4.108829  0  0  0.735244  0  4.100133  0  0  0.230611  0.678392  0  4.113158  0
C  C52  1  0.80245708  0.85314941  0.70424725  1  0  0.651469  0  3.821978  0  0  0.601149  0  4.126046  0  0  0.634539  0  4.116453  0  0  0.230127  0.578406  0  4.128181  0
C  C53  1  0.36027121  0.64647935  0.79574857  1  0  0.651484  0  3.819827  0  0  0.601149  0  4.124022  0  0  0.634561  0  4.114544  0  0  0.22963  0.578094  0  4.126474  0
C  C54  1  0.19754276  0.14685135  0.29575298  1  0  0.651432  0  3.822035  0  0  0.601115  0  4.126111  0  0  0.634505  0  4.116519  0  0  0.230113  0.578373  0  4.128241  0
C  C55  1  0.63972748  0.35352019  0.20425225  1  0  0.651445  0  3.819917  0  0  0.601195  0  4.12399  0  0  0.63461  0  4.114511  0  0  0.22965  0.578133  0  4.126438  0
O  O56  1  0.95507472  0.66079457  0.50406845  1  0  -0.776404  0  2.075629  0  0  -0.730639  0  2.333203  0  0  -0.754491  0  2.320388  0  0  -0.402086  -0.702303  0  2.341721  0
O  O57  1  0.11996664  0.83922365  0.99594287  1  0  -0.776266  0  2.07766  0  0  -0.731322  0  2.334891  0  0  -0.755244  0  2.322269  0  0  -0.402084  -0.703274  0  2.343217  0
O  O58  1  0.04492340  0.33920619  0.49593228  1  0  -0.776438  0  2.075608  0  0  -0.730668  0  2.333175  0  0  -0.754522  0  2.320359  0  0  -0.402093  -0.70233  0  2.341693  0
O  O59  1  0.88003321  0.16077711  0.00405736  1  0  -0.776301  0  2.077718  0  0  -0.731338  0  2.334892  0  0  -0.755247  0  2.32224  0  0  -0.402111  -0.703291  0  2.343218  0
O  O60  1  0.98832011  0.82260431  0.34854333  1  0  -0.787393  0  2.086215  0  0  -0.746619  0  2.354736  0  0  -0.769505  0  2.339392  0  0  -0.406928  -0.718298  0  2.364762  0
O  O61  1  0.15900554  0.67766710  0.15165284  1  0  -0.785928  0  2.088657  0  0  -0.745565  0  2.356476  0  0  -0.768439  0  2.341131  0  0  -0.407158  -0.71715  0  2.366099  0
O  O62  1  0.01168052  0.17739645  0.65145612  1  0  -0.787443  0  2.086271  0  0  -0.746678  0  2.3548  0  0  -0.769562  0  2.339449  0  0  -0.406945  -0.718358  0  2.364834  0
O  O63  1  0.84099337  0.32233366  0.84834710  1  0  -0.785935  0  2.088654  0  0  -0.745581  0  2.356465  0  0  -0.768455  0  2.341119  0  0  -0.407166  -0.717165  0  2.366092  0
O  O64  1  0.84548155  0.70682207  0.75234340  1  0  -0.705987  0  2.096815  0  0  -0.657495  0  2.342995  0  0  -0.681793  0  2.331706  0  0  -0.368197  -0.633772  0  2.350352  0
O  O65  1  0.30493266  0.79285133  0.74772592  1  0  -0.70532  0  2.095639  0  0  -0.656679  0  2.341431  0  0  -0.681042  0  2.330236  0  0  -0.367851  -0.632935  0  2.348727  0
O  O66  1  0.15452059  0.29317747  0.24765643  1  0  -0.705991  0  2.096874  0  0  -0.657473  0  2.342993  0  0  -0.681771  0  2.331701  0  0  -0.368195  -0.633753  0  2.35035  0
O  O67  1  0.69506718  0.20714942  0.25227431  1  0  -0.705293  0  2.095663  0  0  -0.656674  0  2.341409  0  0  -0.681038  0  2.330213  0  0  -0.367841  -0.632928  0  2.348705  0
O  O68  1  0.86465412  0.94852280  0.70935076  1  0  -0.691476  0  2.031438  0  0  -0.64967  0  2.283591  0  0  -0.673204  0  2.273025  0  0  -0.375207  -0.627033  0  2.292142  0
O  O69  1  0.52303767  0.55099218  0.79053753  1  0  -0.691423  0  2.03209  0  0  -0.649466  0  2.284295  0  0  -0.673111  0  2.273788  0  0  -0.374419  -0.626654  0  2.292734  0
O  O70  1  0.13534707  0.05147674  0.29064878  1  0  -0.691439  0  2.031418  0  0  -0.649634  0  2.283572  0  0  -0.673168  0  2.273008  0  0  -0.375188  -0.626996  0  2.292121  0
O  O71  1  0.47696218  0.44900858  0.20946270  1  0  -0.691432  0  2.032113  0  0  -0.649511  0  2.284288  0  0  -0.673159  0  2.273781  0  0  -0.374454  -0.626698  0  2.292728  0
O  O72  1  0.48755082  0.96495089  0.86526441  1  0  -0.633452  0  1.98774  0  0  -0.560455  0  2.190552  0  0  -0.587555  0  2.180835  0  0  -0.294042  -0.542176  0  2.197557  0
O  O73  1  0.31776733  0.53487142  0.63500503  1  0  -0.633437  0  1.986186  0  0  -0.560532  0  2.18908  0  0  -0.587574  0  2.179334  0  0  -0.293945  -0.54221  0  2.196277  0
O  O74  1  0.51244771  0.03504865  0.13473535  1  0  -0.633423  0  1.987721  0  0  -0.560428  0  2.190529  0  0  -0.58753  0  2.180814  0  0  -0.294028  -0.54215  0  2.197532  0
O  O75  1  0.68223309  0.46512812  0.36499529  1  0  -0.633408  0  1.986228  0  0  -0.560504  0  2.189123  0  0  -0.587547  0  2.179377  0  0  -0.293923  -0.542208  0  2.196335  0
O  O76  1  0.23211047  0.08432586  0.81085899  1  0  -0.730994  0  2.058664  0  0  -0.692055  0  2.327579  0  0  -0.716049  0  2.316862  0  0  -0.404075  -0.667594  0  2.335195  0
O  O77  1  0.12759059  0.41540731  0.68922433  1  0  -0.732122  0  2.05812  0  0  -0.692917  0  2.327237  0  0  -0.716942  0  2.316514  0  0  -0.404596  -0.66872  0  2.335579  0
O  O78  1  0.76788994  0.91567367  0.18914133  1  0  -0.73103  0  2.058642  0  0  -0.692085  0  2.327556  0  0  -0.71608  0  2.31684  0  0  -0.404096  -0.667627  0  2.335171  0
O  O79  1  0.87240870  0.58459467  0.31077580  1  0  -0.732122  0  2.058098  0  0  -0.692919  0  2.32725  0  0  -0.716946  0  2.316528  0  0  -0.404587  -0.668707  0  2.335551  0
O  O80  1  0.61552852  0.79396491  0.62877362  1  0  -0.68185  0  2.159391  0  0  -0.63731  0  2.396741  0  0  -0.653536  0  2.383511  0  0  -0.439135  -0.620122  0  2.406409  0
O  O81  1  0.03871400  0.70584956  0.87115744  1  0  -0.682634  0  2.158083  0  0  -0.638036  0  2.395272  0  0  -0.654302  0  2.382069  0  0  -0.438644  -0.620877  0  2.404641  0
O  O82  1  0.38447154  0.20603707  0.37122574  1  0  -0.681845  0  2.159382  0  0  -0.637317  0  2.396754  0  0  -0.653534  0  2.383506  0  0  -0.439101  -0.620133  0  2.406429  0
O  O83  1  0.96128547  0.29414998  0.12884260  1  0  -0.682606  0  2.158125  0  0  -0.638002  0  2.3953  0  0  -0.654268  0  2.382099  0  0  -0.438645  -0.620849  0  2.404661  0
O  O84  1  0.69474596  0.04793423  0.92437051  1  0  -0.951186  0  1.838968  0  0  -0.906539  0  2.037065  0  0  -0.925224  0  2.001624  0  0  -0.67668  -0.885911  0  2.065538  0
O  O85  1  0.66713863  0.45198803  0.57545708  1  0  -0.951872  0  1.838963  0  0  -0.90727  0  2.03568  0  0  -0.925963  0  2.000473  0  0  -0.676917  -0.886492  0  2.065349  0
O  O86  1  0.30525351  0.95206531  0.07562953  1  0  -0.951174  0  1.838995  0  0  -0.906528  0  2.037114  0  0  -0.925215  0  2.001675  0  0  -0.676717  -0.885905  0  2.065597  0
O  O87  1  0.33286065  0.54801395  0.42454306  1  0  -0.951872  0  1.83894  0  0  -0.907266  0  2.03565  0  0  -0.925961  0  2.000448  0  0  -0.676908  -0.886488  0  2.065317  0
