# generated using pymatgen
data_Cd4P6H26C18O19
_symmetry_space_group_name_H-M   'P 1'
_cell_length_a   8.55062791
_cell_length_b   8.74538768
_cell_length_c   21.58540000
_cell_angle_alpha   86.15688639
_cell_angle_beta   86.06921479
_cell_angle_gamma   63.57549671
_symmetry_Int_Tables_number   1
_chemical_formula_structural   Cd4P6H26C18O19
_chemical_formula_sum   'Cd8 P12 H52 C36 O38'
_cell_volume   1440.87816825
_cell_formula_units_Z   2
loop_
 _symmetry_equiv_pos_site_id
 _symmetry_equiv_pos_as_xyz
  1  'x, y, z'
loop_
 _atom_site_type_symbol
 _atom_site_label
 _atom_site_symmetry_multiplicity
 _atom_site_fract_x
 _atom_site_fract_y
 _atom_site_fract_z
 _atom_site_occupancy
 _atom_site_hle17_bader_spin_density
 _atom_site_hle17_ddec_charge
 _atom_site_hle17_ddec_spin_density
 _atom_site_hle17_ddec_sum_bond_order
 _atom_site_hle17_magmom
 _atom_site_hse06_10hf_bader_spin_density
 _atom_site_hse06_10hf_ddec_charge
 _atom_site_hse06_10hf_ddec_spin_density
 _atom_site_hse06_10hf_ddec_sum_bond_order
 _atom_site_hse06_10hf_magmom
 _atom_site_hse06_bader_spin_density
 _atom_site_hse06_ddec_charge
 _atom_site_hse06_ddec_spin_density
 _atom_site_hse06_ddec_sum_bond_order
 _atom_site_hse06_magmom
 _atom_site_pbe_bader_charge
 _atom_site_pbe_bader_spin_density
 _atom_site_pbe_cm5_charge
 _atom_site_pbe_ddec_charge
 _atom_site_pbe_ddec_spin_density
 _atom_site_pbe_ddec_sum_bond_order
 _atom_site_pbe_magmom
Cd  Cd0  1  0.01566500  0.21723707  0.24001468  1  0  1.307656  0  1.761998  0  0  1.13457  0  2.217585  0  0  1.181903  0  2.166719  0  1.264546  0  0.705539  1.100641  0  2.252461  0
Cd  Cd1  1  0.78416629  0.97469721  0.26180010  1  0  1.308331  0  1.716674  0  0  1.128782  0  2.170956  0  0  1.176925  0  2.121999  0  1.249896  0  0.696467  1.09412  0  2.204606  0
Cd  Cd2  1  0.98433825  0.78274532  0.75997950  1  0  1.307671  0  1.761984  0  0  1.134595  0  2.217565  0  0  1.181918  0  2.166693  0  1.264515  0  0.705562  1.100676  0  2.252452  0
Cd  Cd3  1  0.21582944  0.02530179  0.73819291  1  0  1.308196  0  1.716926  0  0  1.128607  0  2.171248  0  0  1.176747  0  2.122285  0  1.249751  0  0.696399  1.093954  0  2.204899  0
Cd  Cd4  1  0.33089206  0.35385831  0.27992017  1  0  1.358216  0  1.552879  0  0  1.19478  0  1.982633  0  0  1.245939  0  1.924178  0  1.341322  0  0.837969  1.157935  0  2.023219  0
Cd  Cd5  1  0.60729508  0.67829476  0.22577587  1  0  1.371491  0  1.514801  0  0  1.206427  0  1.945682  0  0  1.258486  0  1.887135  0  1.354923  0  0.822069  1.168779  0  1.986327  0
Cd  Cd6  1  0.66905414  0.64618798  0.72008912  1  0  1.358182  0  1.553056  0  0  1.194723  0  1.982896  0  0  1.245877  0  1.924433  0  1.340993  0  0.837922  1.157898  0  2.023462  0
Cd  Cd7  1  0.39267123  0.32168635  0.77422259  1  0  1.371469  0  1.514687  0  0  1.206432  0  1.945565  0  0  1.25848  0  1.887021  0  1.35496  0  0.822062  1.168787  0  1.986212  0
P  P8  1  0.01514646  0.59314610  0.17137579  1  0  1.529917  0  4.695131  0  0  1.371062  0  5.188699  0  0  1.421017  0  5.152283  0  3.261606  0  0.350677  1.336219  0  5.21319  0
P  P9  1  0.39113927  0.98691042  0.33227768  1  0  1.516779  0  4.71581  0  0  1.359667  0  5.206835  0  0  1.409226  0  5.170638  0  3.298542  0  0.344908  1.325279  0  5.231065  0
P  P10  1  0.98484683  0.40683756  0.82862187  1  0  1.530273  0  4.695129  0  0  1.371467  0  5.188629  0  0  1.421424  0  5.152209  0  3.262149  0  0.350729  1.336639  0  5.213119  0
P  P11  1  0.60885236  0.01308987  0.66773023  1  0  1.51692  0  4.715591  0  0  1.359796  0  5.206487  0  0  1.409313  0  5.170303  0  3.298322  0  0.345002  1.325394  0  5.230734  0
P  P12  1  0.63630538  0.03322625  0.88083053  1  0  1.529044  0  4.752118  0  0  1.382576  0  5.24641  0  0  1.432547  0  5.207121  0  3.298128  0  0.352054  1.347633  0  5.272958  0
P  P13  1  0.98589248  0.35134589  0.62478890  1  0  1.53367  0  4.706981  0  0  1.380322  0  5.204982  0  0  1.430466  0  5.165427  0  3.263048  0  0.366329  1.345259  0  5.231773  0
P  P14  1  0.36370662  0.96674975  0.11917100  1  0  1.528962  0  4.751946  0  0  1.382462  0  5.246158  0  0  1.432438  0  5.206871  0  3.297875  0  0.351974  1.347522  0  5.272704  0
P  P15  1  0.01407990  0.64866845  0.37522424  1  0  1.533817  0  4.706732  0  0  1.380488  0  5.204763  0  0  1.430629  0  5.165183  0  3.264525  0  0.366424  1.345427  0  5.231562  0
P  P16  1  0.36022296  0.67883405  0.84343072  1  0  1.533205  0  4.705224  0  0  1.375913  0  5.199766  0  0  1.424909  0  5.164505  0  3.255713  0  0.358066  1.341767  0  5.223369  0
P  P17  1  0.33689984  0.61932711  0.65937397  1  0  1.51489  0  4.809584  0  0  1.354511  0  5.306541  0  0  1.404157  0  5.272242  0  3.291926  0  0.328293  1.31991  0  5.329325  0
P  P18  1  0.63980074  0.32113684  0.15655303  1  0  1.532896  0  4.705651  0  0  1.375551  0  5.200319  0  0  1.424568  0  5.165022  0  3.256827  0  0.357971  1.341396  0  5.22395  0
P  P19  1  0.66309344  0.38065400  0.34062237  1  0  1.515068  0  4.809342  0  0  1.354754  0  5.30629  0  0  1.404402  0  5.271993  0  3.291305  0  0.328401  1.32014  0  5.329083  0
H  H20  1  0.28266862  0.46482376  0.02390700  1  0  0.092319  0  0.959415  0  0  0.10463  0  1.023124  0  0  0.107136  0  1.022411  0  0.07105  0  0.096751  0.102837  0  1.02373  0
H  H21  1  0.53193540  0.71300214  0.47624140  1  0  0.090052  0  0.96107  0  0  0.102564  0  1.024296  0  0  0.105095  0  1.023533  0  0.034831  0  0.095858  0.10073  0  1.024971  0
H  H22  1  0.71737533  0.53520080  0.97607891  1  0  0.092154  0  0.959382  0  0  0.104539  0  1.023024  0  0  0.107047  0  1.022306  0  0.072551  0  0.096677  0.102746  0  1.023632  0
H  H23  1  0.46805125  0.28704542  0.52376212  1  0  0.089837  0  0.961324  0  0  0.102412  0  1.0245  0  0  0.104938  0  1.023748  0  0.035027  0  0.095803  0.100581  0  1.025167  0
H  H24  1  0.06393743  0.91801450  0.90420849  1  0  0.110768  0  0.955586  0  0  0.122723  0  1.015433  0  0  0.126036  0  1.01395  0  0.089381  0  0.102157  0.120321  0  1.016658  0
H  H25  1  0.08193464  0.93095357  0.60220976  1  0  0.111738  0  0.948609  0  0  0.122398  0  1.010643  0  0  0.125657  0  1.009323  0  0.078901  0  0.101406  0.120058  0  1.011672  0
H  H26  1  0.93607760  0.08197811  0.09577953  1  0  0.110707  0  0.955402  0  0  0.122665  0  1.015302  0  0  0.125966  0  1.01382  0  0.089301  0  0.102076  0.120265  0  1.016523  0
H  H27  1  0.91806328  0.06901987  0.39780010  1  0  0.111923  0  0.948461  0  0  0.122619  0  1.010456  0  0  0.125903  0  1.009082  0  0.078508  0  0.101494  0.120285  0  1.011474  0
H  H28  1  0.74166878  0.82201875  0.04834812  1  0  0.11119  0  0.955372  0  0  0.121826  0  1.01793  0  0  0.125176  0  1.016324  0  0.054133  0  0.101268  0.119384  0  1.019205  0
H  H29  1  0.17697891  0.24658352  0.45745207  1  0  0.110205  0  0.960834  0  0  0.121362  0  1.021993  0  0  0.124641  0  1.020408  0  0.091275  0  0.09823  0.118967  0  1.023289  0
H  H30  1  0.25836684  0.17798536  0.95165571  1  0  0.111382  0  0.955311  0  0  0.121984  0  1.017908  0  0  0.125351  0  1.016298  0  0.054329  0  0.101237  0.119539  0  1.019177  0
H  H31  1  0.82296131  0.75344488  0.54256296  1  0  0.110286  0  0.960936  0  0  0.121298  0  1.022269  0  0  0.124576  0  1.020685  0  0.09183  0  0.098219  0.118912  0  1.023551  0
H  H32  1  0.09469068  0.39160972  0.09341507  1  0  0.148585  0  0.940152  0  0  0.160205  0  0.999085  0  0  0.162457  0  0.999509  0  0.099405  0  0.111874  0.158553  0  0.998965  0
H  H33  1  0.60910625  0.89041116  0.40558791  1  0  0.156737  0  0.95348  0  0  0.167623  0  1.011463  0  0  0.170351  0  1.011336  0  0.13324  0  0.111459  0.165596  0  1.011716  0
H  H34  1  0.90540598  0.60840718  0.90657610  1  0  0.148687  0  0.939987  0  0  0.160272  0  0.998975  0  0  0.162531  0  0.999393  0  0.09931  0  0.111871  0.158625  0  0.998853  0
H  H35  1  0.39088554  0.10971053  0.59442735  1  0  0.156677  0  0.953525  0  0  0.167291  0  1.011723  0  0  0.170013  0  1.011598  0  0.132593  0  0.111362  0.165269  0  1.011976  0
H  H36  1  0.86664672  0.52181701  0.09874555  1  0  0.147894  0  0.96563  0  0  0.160743  0  1.022668  0  0  0.162703  0  1.023576  0  0.107807  0  0.110016  0.159338  0  1.02211  0
H  H37  1  0.49052122  0.11412067  0.40463253  1  0  0.138388  0  0.977716  0  0  0.151074  0  1.035514  0  0  0.152946  0  1.036559  0  0.096999  0  0.105183  0.149683  0  1.034907  0
H  H38  1  0.13344352  0.47810787  0.90123856  1  0  0.147854  0  0.965425  0  0  0.160656  0  1.022517  0  0  0.162621  0  1.02342  0  0.107528  0  0.109962  0.159255  0  1.02196  0
H  H39  1  0.50932522  0.88600357  0.59537318  1  0  0.138331  0  0.977875  0  0  0.150853  0  1.035779  0  0  0.152716  0  1.036852  0  0.096616  0  0.105269  0.149475  0  1.035154  0
H  H40  1  0.77122030  0.14842295  0.94136753  1  0  0.145067  0  0.948481  0  0  0.15645  0  1.009577  0  0  0.158602  0  1.010207  0  0.086813  0  0.109199  0.154916  0  1.009193  0
H  H41  1  0.84942434  0.22341587  0.56950009  1  0  0.151976  0  0.952597  0  0  0.161298  0  1.015707  0  0  0.16382  0  1.016035  0  0.108077  0  0.109522  0.159503  0  1.01555  0
H  H42  1  0.22879886  0.85157350  0.05862028  1  0  0.145213  0  0.948322  0  0  0.156517  0  1.009424  0  0  0.158673  0  1.010057  0  0.086782  0  0.109259  0.154988  0  1.009041  0
H  H43  1  0.15055531  0.77654096  0.43054037  1  0  0.152066  0  0.952369  0  0  0.161424  0  1.015548  0  0  0.16395  0  1.015859  0  0.107925  0  0.109557  0.159632  0  1.01539  0
H  H44  1  0.62638987  0.08756906  0.98802515  1  0  0.142987  0  0.939338  0  0  0.156675  0  0.995345  0  0  0.159291  0  0.994537  0  0.054603  0  0.108344  0.154766  0  0.996038  0
H  H45  1  0.90846661  0.36133677  0.51939208  1  0  0.143973  0  0.934229  0  0  0.157894  0  0.98871  0  0  0.160464  0  0.987957  0  0.078425  0  0.108867  0.156057  0  0.989318  0
H  H46  1  0.37363972  0.91240694  0.01197035  1  0  0.143173  0  0.939215  0  0  0.156738  0  0.995269  0  0  0.159349  0  0.994471  0  0.054236  0  0.108395  0.154832  0  0.995966  0
H  H47  1  0.09139201  0.63866990  0.48063085  1  0  0.144029  0  0.934366  0  0  0.158025  0  0.988757  0  0  0.160551  0  0.988072  0  0.077559  0  0.108954  0.156199  0  0.989351  0
H  H48  1  0.44379838  0.48508155  0.93082364  1  0  0.155393  0  0.925448  0  0  0.16938  0  0.979147  0  0  0.172086  0  0.978606  0  0.108224  0  0.113731  0.167403  0  0.979659  0
H  H49  1  0.51845049  0.55216663  0.56622580  1  0  0.138145  0  0.92734  0  0  0.154104  0  0.980571  0  0  0.156218  0  0.980429  0  0.083027  0  0.107617  0.152573  0  0.98078  0
H  H50  1  0.55623831  0.51490723  0.06917224  1  0  0.155444  0  0.925412  0  0  0.169421  0  0.979091  0  0  0.172127  0  0.978555  0  0.108375  0  0.113798  0.167444  0  0.979602  0
H  H51  1  0.48152697  0.44781576  0.43376353  1  0  0.138274  0  0.927145  0  0  0.154198  0  0.980432  0  0  0.156313  0  0.980288  0  0.082929  0  0.107658  0.152664  0  0.980648  0
H  H52  1  0.45008581  0.68069217  0.94455125  1  0  0.144675  0  0.944265  0  0  0.15842  0  1.002537  0  0  0.161074  0  1.001357  0  0.080779  0  0.111528  0.156463  0  1.003508  0
H  H53  1  0.31443939  0.55314297  0.55715996  1  0  0.132749  0  0.943417  0  0  0.148011  0  1.00161  0  0  0.150562  0  1.000207  0  0.086786  0  0.107783  0.146104  0  1.002789  0
H  H54  1  0.54993280  0.31931067  0.05542899  1  0  0.144619  0  0.94427  0  0  0.158343  0  1.002548  0  0  0.16099  0  1.001385  0  0.080703  0  0.111497  0.156392  0  1.003502  0
H  H55  1  0.68552198  0.44689309  0.44282696  1  0  0.132807  0  0.943272  0  0  0.14805  0  1.001537  0  0  0.150593  0  1.000149  0  0.08665  0  0.107823  0.146168  0  1.00269  0
H  H56  1  0.34232972  0.51644841  0.16077632  1  0  0.444754  0  0.850924  0  0  0.411728  0  0.920963  0  0  0.423826  0  0.903826  0  0.660874  0  0.321033  0.403276  0  0.932644  0
H  H57  1  0.40269280  0.73170980  0.34012119  1  0  0.444813  0  0.858286  0  0  0.411755  0  0.926379  0  0  0.423265  0  0.909947  0  0.672751  0  0.312439  0.403743  0  0.937778  0
H  H58  1  0.65771759  0.48355059  0.83920973  1  0  0.444769  0  0.850819  0  0  0.411709  0  0.920975  0  0  0.423812  0  0.903831  0  0.660829  0  0.321026  0.403253  0  0.932604  0
H  H59  1  0.59732176  0.26830198  0.65988532  1  0  0.444709  0  0.858367  0  0  0.411721  0  0.926415  0  0  0.423229  0  0.909987  0  0.672698  0  0.312366  0.403702  0  0.937825  0
H  H60  1  0.45095105  0.91878254  0.87333573  1  0  0.429873  0  0.856189  0  0  0.402103  0  0.923655  0  0  0.412983  0  0.907786  0  0.655735  0  0.309282  0.39445  0  0.934805  0
H  H61  1  0.06414750  0.56379071  0.62865639  1  0  0.444115  0  0.843015  0  0  0.412253  0  0.91264  0  0  0.423797  0  0.896044  0  0.665995  0  0.30887  0.404154  0  0.924258  0
H  H62  1  0.54906860  0.08119729  0.12665900  1  0  0.429897  0  0.856221  0  0  0.402113  0  0.923604  0  0  0.412991  0  0.907738  0  0.655974  0  0.309318  0.394466  0  0.934742  0
H  H63  1  0.93580437  0.43622491  0.37135218  1  0  0.444044  0  0.843128  0  0  0.412174  0  0.912755  0  0  0.423719  0  0.896158  0  0.665684  0  0.308784  0.40407  0  0.924378  0
H  H64  1  0.18934251  0.71641422  0.19741419  1  0  0.429358  0  0.891238  0  0  0.393023  0  0.962876  0  0  0.405786  0  0.945156  0  0.642758  0  0.302315  0.384186  0  0.975102  0
H  H65  1  0.22080276  0.69937299  0.28346904  1  0  0.431333  0  0.864378  0  0  0.397843  0  0.940678  0  0  0.409271  0  0.928327  0  0.656208  0  0.299905  0.389826  0  0.949244  0
H  H66  1  0.81061788  0.28355667  0.80256849  1  0  0.429241  0  0.891325  0  0  0.392974  0  0.962896  0  0  0.405726  0  0.945204  0  0.642629  0  0.302248  0.384141  0  0.975109  0
H  H67  1  0.77922937  0.30063624  0.71653938  1  0  0.43138  0  0.864427  0  0  0.39773  0  0.940932  0  0  0.409159  0  0.928596  0  0.656102  0  0.299876  0.38971  0  0.949508  0
H  H68  1  0.97437341  0.02471139  0.25717566  1  0  -0.541397  0  1.055072  0  0  -0.453808  0  1.219568  0  0  -0.474613  0  1.214238  0  -0.36967  0  -0.09575  -0.439315  0  1.222747  0
H  H69  1  0.17397086  0.87838198  0.24663828  1  0  0.412419  0  0.871744  0  0  0.375987  0  0.957458  0  0  0.386323  0  0.946167  0  0.613816  0  0.282063  0.368713  0  0.965411  0
H  H70  1  0.02564274  0.97527100  0.74280011  1  0  -0.541348  0  1.055117  0  0  -0.453751  0  1.219564  0  0  -0.474549  0  1.214231  0  -0.369854  0  -0.095758  -0.439257  0  1.222732  0
H  H71  1  0.82614365  0.12158252  0.75335336  1  0  0.412161  0  0.87223  0  0  0.375712  0  0.957956  0  0  0.386048  0  0.946668  0  0.613808  0  0.281999  0.368434  0  0.965913  0
C  C72  1  0.01165559  0.63437349  0.04290518  1  0  0.169691  0  3.787529  0  0  0.190371  0  4.022883  0  0  0.193661  0  4.046829  0  0.024862  0  -0.005215  0.188169  0  4.006595  0
C  C73  1  0.36527319  0.98052331  0.46030937  1  0  0.170065  0  3.790426  0  0  0.191328  0  4.02414  0  0  0.19429  0  4.048515  0  0.102615  0  -0.005791  0.18933  0  4.00753  0
C  C74  1  0.98838939  0.36562807  0.95708920  1  0  0.170282  0  3.787184  0  0  0.190735  0  4.022852  0  0  0.194039  0  4.046793  0  0.025183  0  -0.005096  0.188534  0  4.006565  0
C  C75  1  0.63467887  0.01952298  0.53970160  1  0  0.169723  0  3.790933  0  0  0.191075  0  4.024349  0  0  0.194046  0  4.048726  0  0.101245  0  -0.005909  0.189068  0  4.007764  0
C  C76  1  0.17306662  0.58561908  0.01061093  1  0  -0.185209  0  3.68268  0  0  -0.217897  0  3.93587  0  0  -0.222582  0  3.956444  0  -0.106012  0  -0.099371  -0.214683  0  3.921918  0
C  C77  1  0.41248902  0.82207115  0.49163897  1  0  -0.189748  0  3.691712  0  0  -0.221826  0  3.943898  0  0  -0.226749  0  3.964881  0  -0.128408  0  -0.10035  -0.218435  0  3.929664  0
C  C78  1  0.82699074  0.41439398  0.98938281  1  0  -0.185222  0  3.682814  0  0  -0.217922  0  3.936015  0  0  -0.22261  0  3.956589  0  -0.107449  0  -0.099187  -0.214709  0  3.922062  0
C  C79  1  0.58747535  0.17797642  0.50837117  1  0  -0.189313  0  3.691352  0  0  -0.221501  0  3.943519  0  0  -0.226432  0  3.964507  0  -0.127585  0  -0.100283  -0.218112  0  3.929302  0
C  C80  1  0.19414407  0.68552914  0.96030527  1  0  0.15008  0  3.781333  0  0  0.172204  0  4.018311  0  0  0.174517  0  4.043  0  -0.013118  0  -0.010046  0.170638  0  4.001521  0
C  C81  1  0.31358345  0.80150921  0.54318477  1  0  0.150781  0  3.764019  0  0  0.173204  0  4.000426  0  0  0.175497  0  4.024952  0  -0.056028  0  -0.009517  0.171664  0  3.983776  0
C  C82  1  0.80587993  0.31449286  0.03968588  1  0  0.149904  0  3.781763  0  0  0.172215  0  4.018494  0  0  0.174531  0  4.043185  0  -0.013621  0  -0.010091  0.170648  0  4.0017  0
C  C83  1  0.68640359  0.19850641  0.45681914  1  0  0.150856  0  3.763881  0  0  0.173308  0  4.000322  0  0  0.175597  0  4.024855  0  -0.056289  0  -0.009467  0.171754  0  3.983696  0
C  C84  1  0.05014111  0.83666769  0.94259364  1  0  -0.187491  0  3.669634  0  0  -0.218566  0  3.916758  0  0  -0.223724  0  3.937765  0  -0.091996  0  -0.096696  -0.215075  0  3.902633  0
C  C85  1  0.16267269  0.94430925  0.56283112  1  0  -0.176281  0  3.644202  0  0  -0.207676  0  3.893043  0  0  -0.21235  0  3.913607  0  -0.040877  0  -0.095057  -0.204517  0  3.879225  0
C  C86  1  0.94990625  0.16333898  0.05739683  1  0  -0.187337  0  3.66958  0  0  -0.218537  0  3.916753  0  0  -0.223679  0  3.937747  0  -0.091469  0  -0.096691  -0.215045  0  3.902622  0
C  C87  1  0.83729500  0.05570509  0.43717891  1  0  -0.176637  0  3.644207  0  0  -0.208149  0  3.892997  0  0  -0.212826  0  3.913578  0  -0.039738  0  -0.095214  -0.204985  0  3.879186  0
C  C88  1  0.88615516  0.88528537  0.97328184  1  0  0.169297  0  3.781174  0  0  0.18956  0  4.018505  0  0  0.192475  0  4.043279  0  0.002866  0  -0.00397  0.18758  0  4.001685  0
C  C89  1  0.11468743  0.10533616  0.53276481  1  0  0.167245  0  3.767839  0  0  0.187085  0  4.006307  0  0  0.189855  0  4.031279  0  -0.022891  0  -0.003782  0.185218  0  3.989353  0
C  C90  1  0.11388807  0.11471747  0.02671812  1  0  0.169292  0  3.781169  0  0  0.189596  0  4.018361  0  0  0.192518  0  4.043139  0  0.00277  0  -0.003948  0.187617  0  4.001541  0
C  C91  1  0.88526617  0.89467562  0.46725262  1  0  0.167453  0  3.767665  0  0  0.187542  0  4.005801  0  0  0.190313  0  4.030768  0  -0.023967  0  -0.00344  0.185668  0  3.988861  0
C  C92  1  0.86825998  0.78405265  0.02365976  1  0  -0.17866  0  3.643541  0  0  -0.209562  0  3.890275  0  0  -0.214371  0  3.910037  0  -0.017931  0  -0.0936  -0.206252  0  3.876931  0
C  C93  1  0.21607762  0.12203747  0.48143752  1  0  -0.181103  0  3.647299  0  0  -0.211719  0  3.895235  0  0  -0.2167  0  3.915655  0  -0.037017  0  -0.095793  -0.20831  0  3.88146  0
C  C94  1  0.13178802  0.21596297  0.97634111  1  0  -0.17901  0  3.643458  0  0  -0.209855  0  3.890264  0  0  -0.214689  0  3.910035  0  -0.017983  0  -0.093599  -0.206532  0  3.876908  0
C  C95  1  0.78386373  0.87798326  0.51857629  1  0  -0.181074  0  3.647647  0  0  -0.211754  0  3.895635  0  0  -0.216718  0  3.91602  0  -0.037079  0  -0.095805  -0.208345  0  3.881861  0
C  C96  1  0.99370043  0.52429492  0.09682686  1  0  -0.502889  0  3.699603  0  0  -0.520038  0  3.923156  0  0  -0.530716  0  3.932157  0  -0.543949  0  -0.165927  -0.512668  0  3.917216  0
C  C97  1  0.47627670  0.99561442  0.40529343  1  0  -0.517668  0  3.719621  0  0  -0.53314  0  3.941314  0  0  -0.543767  0  3.949769  0  -0.612388  0  -0.170107  -0.525633  0  3.935533  0
C  C98  1  0.00634740  0.47569258  0.90316366  1  0  -0.503117  0  3.69898  0  0  -0.520159  0  3.922772  0  0  -0.530856  0  3.931771  0  -0.544259  0  -0.165911  -0.512807  0  3.916851  0
C  C99  1  0.52366671  0.00445615  0.59471481  1  0  -0.517475  0  3.720014  0  0  -0.532403  0  3.941378  0  0  -0.542989  0  3.949766  0  -0.611021  0  -0.170146  -0.524948  0  3.935665  0
C  C100  1  0.73228582  0.04504713  0.95193051  1  0  -0.492338  0  3.688449  0  0  -0.510545  0  3.91677  0  0  -0.521268  0  3.925445  0  -0.478757  0  -0.164351  -0.503003  0  3.910828  0
C  C101  1  0.95536187  0.25915199  0.55582635  1  0  -0.493702  0  3.660364  0  0  -0.511109  0  3.889346  0  0  -0.521726  0  3.897613  0  -0.501302  0  -0.163314  -0.503722  0  3.883816  0
C  C102  1  0.26774845  0.95492887  0.04806254  1  0  -0.492889  0  3.688438  0  0  -0.510837  0  3.916622  0  0  -0.521577  0  3.925318  0  -0.478373  0  -0.164656  -0.503312  0  3.9107  0
C  C103  1  0.04457522  0.74084191  0.44419294  1  0  -0.493954  0  3.660451  0  0  -0.511588  0  3.889452  0  0  -0.522176  0  3.89772  0  -0.501965  0  -0.16355  -0.504209  0  3.883913  0
C  C104  1  0.37065734  0.62519155  0.92599193  1  0  -0.498068  0  3.669039  0  0  -0.51775  0  3.903783  0  0  -0.527717  0  3.911629  0  -0.538228  0  -0.159683  -0.510706  0  3.89838  0
C  C105  1  0.37693428  0.62616661  0.57550916  1  0  -0.478851  0  3.668583  0  0  -0.500177  0  3.907354  0  0  -0.509564  0  3.915195  0  -0.5424  0  -0.162867  -0.493594  0  3.902053  0
C  C106  1  0.62936938  0.37479596  0.07399545  1  0  -0.497856  0  3.669058  0  0  -0.517585  0  3.903861  0  0  -0.527557  0  3.911704  0  -0.538268  0  -0.159668  -0.510537  0  3.898454  0
C  C107  1  0.62304505  0.37383495  0.42448747  1  0  -0.479155  0  3.668438  0  0  -0.500554  0  3.907437  0  0  -0.509929  0  3.915255  0  -0.542028  0  -0.163056  -0.493991  0  3.902134  0
O  O108  1  0.15412115  0.66553205  0.15602882  1  0  -0.78225  0  2.043952  0  0  -0.693485  0  2.268079  0  0  -0.719817  0  2.247535  0  -1.420183  0  -0.375349  -0.675119  0  2.281977  0
O  O109  1  0.31111931  0.85612294  0.34566340  1  0  -0.744172  0  2.05482  0  0  -0.663355  0  2.281523  0  0  -0.686718  0  2.260247  0  -1.429533  0  -0.382213  -0.647293  0  2.296205  0
O  O110  1  0.84586578  0.33446568  0.84397465  1  0  -0.782403  0  2.043308  0  0  -0.693628  0  2.267478  0  0  -0.71998  0  2.24694  0  -1.420271  0  -0.375335  -0.675256  0  2.281359  0
O  O111  1  0.68889333  0.14386200  0.65434806  1  0  -0.744172  0  2.054795  0  0  -0.663504  0  2.281531  0  0  -0.686802  0  2.260216  0  -1.429365  0  -0.382183  -0.647363  0  2.296122  0
O  O112  1  0.09290922  0.43635398  0.21721898  1  0  -0.915869  0  2.031162  0  0  -0.81306  0  2.325814  0  0  -0.843833  0  2.30151  0  -1.425076  0  -0.39498  -0.791144  0  2.341857  0
O  O113  1  0.53505298  0.92742265  0.28002028  1  0  -0.904932  0  2.028646  0  0  -0.803675  0  2.3204  0  0  -0.834041  0  2.296104  0  -1.42783  0  -0.386073  -0.782012  0  2.33636  0
O  O114  1  0.90709931  0.56362969  0.78277965  1  0  -0.916003  0  2.031212  0  0  -0.813188  0  2.325816  0  0  -0.843952  0  2.301497  0  -1.425061  0  -0.394953  -0.79129  0  2.34187  0
O  O115  1  0.46496606  0.07255335  0.71999218  1  0  -0.905071  0  2.028876  0  0  -0.803805  0  2.320622  0  0  -0.83417  0  2.296338  0  -1.427642  0  -0.386144  -0.782144  0  2.336586  0
O  O116  1  0.84251631  0.73393468  0.19655009  1  0  -0.880603  0  1.986388  0  0  -0.780631  0  2.274197  0  0  -0.811302  0  2.251243  0  -1.427809  0  -0.376746  -0.758844  0  2.289372  0
O  O117  1  0.23980807  0.16146681  0.31515654  1  0  -0.872649  0  2.006962  0  0  -0.772204  0  2.29512  0  0  -0.80366  0  2.273173  0  -1.413697  0  -0.378134  -0.750131  0  2.309717  0
O  O118  1  0.15745818  0.26604132  0.80344551  1  0  -0.880754  0  1.986565  0  0  -0.780768  0  2.274311  0  0  -0.811431  0  2.251339  0  -1.427943  0  -0.376864  -0.758993  0  2.289497  0
O  O119  1  0.76018121  0.83853092  0.68484502  1  0  -0.872582  0  2.007016  0  0  -0.772165  0  2.29522  0  0  -0.803612  0  2.273278  0  -1.413831  0  -0.378116  -0.750088  0  2.309813  0
O  O120  1  0.77479068  0.94297253  0.83095153  1  0  -0.902684  0  1.988622  0  0  -0.815097  0  2.272842  0  0  -0.843383  0  2.250529  0  -1.469261  0  -0.401181  -0.794904  0  2.287627  0
O  O121  1  0.13807774  0.22309511  0.66073346  1  0  -0.877789  0  2.032013  0  0  -0.788213  0  2.316616  0  0  -0.817436  0  2.295882  0  -1.451063  0  -0.386491  -0.767361  0  2.33021  0
O  O122  1  0.22524934  0.05698558  0.16905251  1  0  -0.902596  0  1.988867  0  0  -0.814976  0  2.273026  0  0  -0.843256  0  2.250711  0  -1.469349  0  -0.401041  -0.794785  0  2.28781  0
O  O123  1  0.86191302  0.77695373  0.33927825  1  0  -0.877767  0  2.031692  0  0  -0.788294  0  2.316384  0  0  -0.81752  0  2.295652  0  -1.451291  0  -0.386608  -0.767442  0  2.32998  0
O  O124  1  0.50664624  0.21824152  0.86418375  1  0  -0.889532  0  1.934068  0  0  -0.80089  0  2.21142  0  0  -0.830847  0  2.189945  0  -1.434409  0  -0.399383  -0.779508  0  2.225521  0
O  O125  1  0.80818811  0.42074147  0.66238635  1  0  -0.906512  0  2.031518  0  0  -0.808654  0  2.305085  0  0  -0.838067  0  2.282297  0  -1.438078  0  -0.391567  -0.787823  0  2.320241  0
O  O126  1  0.49337154  0.78172170  0.13581148  1  0  -0.889382  0  1.933886  0  0  -0.800751  0  2.211269  0  0  -0.830724  0  2.189829  0  -1.434537  0  -0.399311  -0.779367  0  2.225366  0
O  O127  1  0.19179001  0.57925242  0.33764619  1  0  -0.906529  0  2.031642  0  0  -0.80874  0  2.305125  0  0  -0.838137  0  2.282318  0  -1.438331  0  -0.391632  -0.787904  0  2.320278  0
O  O128  1  0.53220922  0.92358629  0.90365364  1  0  -0.754329  0  1.980159  0  0  -0.687171  0  2.207613  0  0  -0.707336  0  2.182044  0  -1.4215  0  -0.39693  -0.672936  0  2.225135  0
O  O129  1  0.02345296  0.50665561  0.59810952  1  0  -0.751141  0  1.988338  0  0  -0.680999  0  2.217547  0  0  -0.70227  0  2.191677  0  -1.42868  0  -0.385372  -0.665961  0  2.235159  0
O  O130  1  0.46780919  0.07638332  0.09634604  1  0  -0.754409  0  1.980097  0  0  -0.687233  0  2.207671  0  0  -0.707391  0  2.182093  0  -1.421605  0  -0.397027  -0.673002  0  2.225192  0
O  O131  1  0.97648492  0.49337278  0.40189816  1  0  -0.751367  0  1.988443  0  0  -0.681128  0  2.217554  0  0  -0.7024  0  2.191683  0  -1.427727  0  -0.385419  -0.666089  0  2.235178  0
O  O132  1  0.24889337  0.61044292  0.81270368  1  0  -0.903974  0  2.015821  0  0  -0.808215  0  2.304369  0  0  -0.837651  0  2.281458  0  -1.44167  0  -0.372706  -0.787309  0  2.319538  0
O  O133  1  0.39307378  0.74492618  0.68862626  1  0  -0.932115  0  2.010273  0  0  -0.82907  0  2.304329  0  0  -0.860934  0  2.281911  0  -1.42792  0  -0.390865  -0.806295  0  2.318883  0
O  O134  1  0.75111220  0.38953691  0.18728402  1  0  -0.903977  0  2.015933  0  0  -0.80812  0  2.30442  0  0  -0.837581  0  2.281522  0  -1.442208  0  -0.372704  -0.787214  0  2.319592  0
O  O135  1  0.60688802  0.25508305  0.31136600  1  0  -0.932199  0  2.010014  0  0  -0.829119  0  2.304004  0  0  -0.860989  0  2.281594  0  -1.427649  0  -0.390899  -0.806315  0  2.318489  0
O  O136  1  0.55796304  0.57817129  0.81577024  1  0  -0.818618  0  2.160333  0  0  -0.728107  0  2.421719  0  0  -0.752654  0  2.391904  0  -1.413667  0  -0.396727  -0.71079  0  2.441736  0
O  O137  1  0.45015637  0.43348885  0.68367485  1  0  -0.903934  0  2.068324  0  0  -0.803164  0  2.338467  0  0  -0.834056  0  2.317346  0  -1.433482  0  -0.38434  -0.781143  0  2.352148  0
O  O138  1  0.44204826  0.42178554  0.18420635  1  0  -0.81838  0  2.160386  0  0  -0.727833  0  2.421537  0  0  -0.752388  0  2.391731  0  -1.413897  0  -0.396678  -0.710527  0  2.441603  0
O  O139  1  0.54984105  0.56649865  0.31632537  1  0  -0.904034  0  2.068381  0  0  -0.8032  0  2.338481  0  0  -0.834104  0  2.317387  0  -1.433426  0  -0.384351  -0.781175  0  2.352158  0
O  O140  1  0.31347706  0.86766140  0.83156798  1  0  -0.863424  0  1.97473  0  0  -0.773557  0  2.237006  0  0  -0.802769  0  2.217995  0  -1.43698  0  -0.36739  -0.752857  0  2.249519  0
O  O141  1  0.14184757  0.66543621  0.67047055  1  0  -0.874424  0  2.008274  0  0  -0.778898  0  2.272354  0  0  -0.809117  0  2.25356  0  -1.431307  0  -0.377027  -0.757399  0  2.284425  0
O  O142  1  0.68656595  0.13230566  0.16841906  1  0  -0.863387  0  1.97484  0  0  -0.773522  0  2.237102  0  0  -0.802728  0  2.218074  0  -1.43698  0  -0.367336  -0.752819  0  2.249608  0
O  O143  1  0.85815032  0.33453213  0.32952648  1  0  -0.874377  0  2.007971  0  0  -0.778978  0  2.272173  0  0  -0.80918  0  2.253334  0  -1.431221  0  -0.377054  -0.757444  0  2.28421  0
O  O144  1  0.24705556  0.75408768  0.24334981  1  0  -0.787407  0  2.077463  0  0  -0.731997  0  2.296328  0  0  -0.753542  0  2.269271  0  -1.24823  0  -0.564202  -0.71687  0  2.314912  0
O  O145  1  0.75299206  0.24586660  0.75665181  1  0  -0.786954  0  2.078086  0  0  -0.731412  0  2.297207  0  0  -0.752964  0  2.270156  0  -1.248147  0  -0.564053  -0.716293  0  2.315796  0
