# generated using pymatgen
data_CuH8C6N12(ClO2)2
_symmetry_space_group_name_H-M   'P 1'
_cell_length_a   6.48470255
_cell_length_b   9.89050642
_cell_length_c   11.19033983
_cell_angle_alpha   90.58570821
_cell_angle_beta   89.99926255
_cell_angle_gamma   90.00014738
_symmetry_Int_Tables_number   1
_chemical_formula_structural   CuH8C6N12(ClO2)2
_chemical_formula_sum   'Cu2 H16 C12 N24 Cl4 O8'
_cell_volume   717.67723764
_cell_formula_units_Z   2
loop_
 _symmetry_equiv_pos_site_id
 _symmetry_equiv_pos_as_xyz
  1  'x, y, z'
loop_
 _atom_site_type_symbol
 _atom_site_label
 _atom_site_symmetry_multiplicity
 _atom_site_fract_x
 _atom_site_fract_y
 _atom_site_fract_z
 _atom_site_occupancy
 _atom_site_hle17_ddec_charge
 _atom_site_hle17_ddec_spin_density
 _atom_site_hle17_ddec_sum_bond_order
 _atom_site_hle17_magmom
 _atom_site_hse06_10hf_ddec_charge
 _atom_site_hse06_10hf_ddec_spin_density
 _atom_site_hse06_10hf_ddec_sum_bond_order
 _atom_site_hse06_10hf_magmom
 _atom_site_hse06_ddec_charge
 _atom_site_hse06_ddec_spin_density
 _atom_site_hse06_ddec_sum_bond_order
 _atom_site_hse06_magmom
 _atom_site_pbe_cm5_charge
 _atom_site_pbe_ddec_charge
 _atom_site_pbe_ddec_spin_density
 _atom_site_pbe_ddec_sum_bond_order
 _atom_site_pbe_magmom
Cu  Cu0  1  0.50000289  0.00000037  0.99999991  1  0.873665  -0.676347  1.837688  -0.505  0.851766  -0.772312  2.238259  -0.623  0.950626  -0.84244  2.159039  -0.718  0.779029  0.788932  -0.716203  2.294916  -0.555
Cu  Cu1  1  0.00000080  0.50000075  0.99999950  1  0.873648  -0.676385  1.837716  -0.505  0.851748  -0.772328  2.238249  -0.623  0.950598  -0.842447  2.159039  -0.718  0.778986  0.788946  -0.716245  2.294913  -0.555
H  H2  1  0.99664609  0.79652812  0.38179673  1  0.08706  -0.000164  0.953014  0.0  0.094093  -0.000128  1.027384  0.0  0.095162  -9.2e-05  1.026608  0.0  0.103422  0.093298  -0.000144  1.028334  0.0
H  H3  1  0.49664194  0.70347645  0.61820196  1  0.087036  -0.000155  0.953001  0.0  0.094064  -0.000128  1.027379  0.0  0.095133  -9.2e-05  1.026605  0.0  0.103413  0.093266  -0.000144  1.028332  0.0
H  H4  1  0.00335536  0.20347372  0.61820364  1  0.087067  -0.000164  0.95299  0.0  0.0941  -0.000128  1.027335  0.0  0.095168  -9.2e-05  1.02656  0.0  0.103422  0.093305  -0.000144  1.028284  0.0
H  H5  1  0.50335488  0.29652537  0.38180020  1  0.087027  -0.000165  0.95299  0.0  0.094075  -0.000128  1.027333  0.0  0.095144  -9.2e-05  1.026558  0.0  0.103411  0.09328  -0.000144  1.028285  0.0
H  H6  1  0.85764661  0.78970535  0.24488079  1  0.10806  8.3e-05  0.951433  0.0  0.114941  6e-06  1.024015  0.0  0.117844  1.3e-05  1.021032  0.0  0.116812  0.112825  -2e-05  1.026431  0.0
H  H7  1  0.35764872  0.71029498  0.75511800  1  0.108043  9.3e-05  0.951383  0.0  0.114898  6e-06  1.023989  0.0  0.117802  1.2e-05  1.021006  0.0  0.116787  0.11278  -2e-05  1.026406  0.0
H  H8  1  0.14235330  0.21029447  0.75511866  1  0.108057  7.5e-05  0.951434  0.0  0.114945  5e-06  1.023993  0.0  0.117847  1.2e-05  1.021014  0.0  0.116807  0.112829  -2e-05  1.02641  0.0
H  H9  1  0.64234810  0.28970382  0.24488323  1  0.108006  7.7e-05  0.951457  0.0  0.114896  5e-06  1.02402  0.0  0.117797  1.2e-05  1.021041  0.0  0.116788  0.112781  -2e-05  1.026438  0.0
H  H10  1  0.67973953  0.01081942  0.30047374  1  0.10238  -3.5e-05  0.950281  0.0  0.110877  -2.4e-05  1.018454  0.0  0.112585  1e-06  1.017671  0.0  0.099547  0.10952  -5.4e-05  1.019424  0.0
H  H11  1  0.17974403  0.48917284  0.69953405  1  0.10246  -4.3e-05  0.950124  0.0  0.110893  -2.5e-05  1.018331  0.0  0.11259  1e-06  1.017546  0.0  0.099569  0.109535  -5.4e-05  1.019302  0.0
H  H12  1  0.32026038  0.98917937  0.69952838  1  0.102457  -3.7e-05  0.950197  0.0  0.110899  -2.4e-05  1.018413  0.0  0.112607  2e-06  1.017631  0.0  0.099559  0.109541  -5.4e-05  1.019383  0.0
H  H13  1  0.82025280  0.51082697  0.30046719  1  0.102452  -3.4e-05  0.950123  0.0  0.110874  -2.5e-05  1.018338  0.0  0.112569  2e-06  1.017556  0.0  0.099561  0.109519  -5.4e-05  1.019313  0.0
H  H14  1  0.80056074  0.00507758  0.44450993  1  0.089844  -5.4e-05  0.951159  0.0  0.093282  -4.9e-05  1.030027  0.0  0.094973  -2.9e-05  1.028839  0.0  0.093095  0.09202  -6.8e-05  1.031112  0.0
H  H15  1  0.30056998  0.49491792  0.55548985  1  0.089843  -5.6e-05  0.951266  0.0  0.093302  -4.9e-05  1.030034  0.0  0.094994  -2.9e-05  1.028844  0.0  0.09307  0.092038  -6.8e-05  1.031124  0.0
H  H16  1  0.19944071  0.99492122  0.55548951  1  0.089849  -5.5e-05  0.951205  0.0  0.09329  -4.9e-05  1.030042  0.0  0.09498  -2.9e-05  1.028854  0.0  0.093088  0.092027  -6.8e-05  1.03113  0.0
H  H17  1  0.69942838  0.50508290  0.44451141  1  0.089857  -5.5e-05  0.951234  0.0  0.093312  -4.9e-05  1.030015  0.0  0.095004  -2.9e-05  1.028825  0.0  0.093085  0.092049  -6.8e-05  1.031104  0.0
C  C18  1  0.92041680  0.85779569  0.31354019  1  -0.026398  -0.000235  3.625926  0.0  -0.087952  -0.000208  3.879496  0.0  -0.084457  -0.000176  3.889134  0.0  -0.056992  -0.09164  -0.000232  3.874342  0.0
C  C19  1  0.42041706  0.64220068  0.68645899  1  -0.026341  -0.000288  3.625749  0.0  -0.087897  -0.000209  3.879328  0.0  -0.084404  -0.000175  3.888971  0.0  -0.05697  -0.091584  -0.000232  3.874178  0.0
C  C20  1  0.07958157  0.14220514  0.68646017  1  -0.026395  -0.000215  3.625825  0.0  -0.087907  -0.000208  3.879334  0.0  -0.084411  -0.000175  3.888971  0.0  -0.056979  -0.091604  -0.000232  3.874187  0.0
C  C21  1  0.57958439  0.35779913  0.31354226  1  -0.026326  -0.000222  3.625719  0.0  -0.08791  -0.000208  3.879313  0.0  -0.084413  -0.000175  3.888951  0.0  -0.056969  -0.091597  -0.000232  3.874165  0.0
C  C22  1  0.15436364  0.92284989  0.14246734  1  0.432894  0.003659  3.81442  0.001  0.388185  0.001074  4.108892  -0.001  0.412708  0.002126  4.117398  0.0  0.343642  0.37068  -3e-05  4.104371  -0.002
C  C23  1  0.65435637  0.57714711  0.85752936  1  0.432825  0.003644  3.814705  0.001  0.388191  0.001074  4.10904  -0.001  0.412714  0.002129  4.117547  0.0  0.343647  0.370694  -3.1e-05  4.104502  -0.002
C  C24  1  0.84563781  0.07714993  0.85753211  1  0.432849  0.003642  3.814592  0.001  0.388245  0.001075  4.10895  -0.001  0.412769  0.002129  4.117457  0.0  0.3437  0.370734  -3e-05  4.104433  -0.002
C  C25  1  0.34564199  0.42285169  0.14247097  1  0.432759  0.003661  3.814771  0.001  0.388103  0.001075  4.109175  -0.001  0.412624  0.002129  4.117684  0.0  0.343653  0.370609  -3.1e-05  4.10464  -0.002
C  C26  1  0.74962983  0.94493191  0.36731927  1  -0.0451  -0.000173  3.583508  0.0  -0.091724  -0.000144  3.856819  0.0  -0.088635  -7.3e-05  3.86364  0.0  -0.124103  -0.093552  -0.000214  3.852424  0.0
C  C27  1  0.24962475  0.55506217  0.63268205  1  -0.045254  -0.000141  3.58353  0.0  -0.091768  -0.000143  3.856823  0.0  -0.088663  -7.4e-05  3.863627  0.0  -0.124084  -0.093576  -0.000214  3.85236  0.0
C  C28  1  0.25037008  0.05506587  0.63268105  1  -0.045173  -0.000172  3.583434  0.0  -0.091743  -0.000143  3.856733  0.0  -0.088654  -7.3e-05  3.863551  0.0  -0.124097  -0.09356  -0.000214  3.852306  0.0
C  C29  1  0.75037362  0.44493865  0.36731921  1  -0.045246  -0.000173  3.583502  0.0  -0.091763  -0.000143  3.856829  0.0  -0.088659  -7.4e-05  3.863634  0.0  -0.124103  -0.09358  -0.000214  3.852391  0.0
N  N30  1  0.07829264  0.93836626  0.25481157  1  -0.02207  -0.001968  3.444021  -0.002  0.063486  -0.001431  3.666447  -0.002  0.048875  -0.001257  3.68767  -0.002  -0.108065  0.075183  -0.00144  3.652256  -0.002
N  N31  1  0.57829395  0.56163466  0.74518844  1  -0.021963  -0.001934  3.444016  -0.002  0.063559  -0.001433  3.666428  -0.002  0.048949  -0.001261  3.687654  -0.002  -0.108059  0.075248  -0.00144  3.652233  -0.002
N  N32  1  0.92170881  0.06163254  0.74518877  1  -0.02204  -0.001962  3.444019  -0.002  0.063493  -0.001433  3.666411  -0.002  0.048885  -0.001261  3.687631  -0.002  -0.108058  0.075196  -0.00144  3.652218  -0.002
N  N33  1  0.42170441  0.43836515  0.25481191  1  -0.021965  -0.001942  3.443995  -0.002  0.063565  -0.001432  3.66644  -0.002  0.048955  -0.001258  3.687665  -0.002  -0.108068  0.075257  -0.00144  3.652248  -0.002
N  N34  1  0.07631135  0.82826100  0.06738709  1  -0.368562  0.001962  2.921136  0.0  -0.400371  0.001581  3.228621  0.0  -0.416927  0.001963  3.234053  0.001  -0.215068  -0.389169  0.00069  3.225553  -0.001
N  N35  1  0.57630127  0.67173587  0.93261109  1  -0.368537  0.001948  2.921068  0.0  -0.400349  0.001581  3.228482  0.0  -0.416907  0.001963  3.233915  0.001  -0.215096  -0.389145  0.000689  3.225413  -0.001
N  N36  1  0.92369010  0.17173881  0.93261147  1  -0.368471  0.001951  2.921085  0.0  -0.400371  0.001585  3.228567  0.0  -0.416928  0.001967  3.234  0.001  -0.215065  -0.389168  0.00069  3.225496  -0.001
N  N37  1  0.42369555  0.32826292  0.06739013  1  -0.368454  0.001978  2.921069  0.0  -0.400301  0.00158  3.228526  0.0  -0.416858  0.00196  3.23396  0.001  -0.215073  -0.3891  0.00069  3.225458  -0.001
N  N38  1  0.18645237  0.03665932  0.31208006  1  -0.06551  -0.005459  2.853149  -0.008  -0.076124  -0.003166  3.149789  -0.005  -0.072641  -0.001427  3.157189  -0.003  -0.056653  -0.079883  -0.004689  3.145795  -0.006
N  N39  1  0.68645200  0.46334613  0.68791712  1  -0.065532  -0.005458  2.853236  -0.008  -0.076149  -0.003167  3.149891  -0.005  -0.072669  -0.001428  3.157297  -0.003  -0.056676  -0.079906  -0.00469  3.145889  -0.006
N  N40  1  0.81355062  0.96334150  0.68791941  1  -0.065511  -0.005435  2.853128  -0.008  -0.076139  -0.003167  3.149773  -0.005  -0.072658  -0.001427  3.157174  -0.003  -0.056696  -0.079904  -0.004689  3.14578  -0.006
N  N41  1  0.31354791  0.53665369  0.31208234  1  -0.065545  -0.005463  2.853202  -0.008  -0.076169  -0.003168  3.14986  -0.005  -0.07269  -0.001429  3.157266  -0.003  -0.056678  -0.079924  -0.004689  3.145863  -0.006
N  N42  1  0.14093980  0.82449308  0.95684367  1  0.587703  0.006109  4.019185  0.006  0.654659  0.000949  4.278576  0.001  0.683938  0.001018  4.289281  0.001  0.118873  0.634418  0.000472  4.270937  0.001
N  N43  1  0.64093704  0.67550590  0.04315673  1  0.587566  0.006153  4.019458  0.006  0.654555  0.000948  4.278724  0.001  0.683838  0.00102  4.289425  0.001  0.118834  0.634312  0.000469  4.271093  0.001
N  N44  1  0.85906319  0.17550774  0.04315669  1  0.587576  0.006144  4.019004  0.006  0.654607  0.000947  4.278366  0.001  0.683885  0.001013  4.289072  0.001  0.118879  0.634369  0.000472  4.270725  0.001
N  N45  1  0.35906287  0.32449492  0.95684363  1  0.587544  0.006067  4.019421  0.006  0.654585  0.000947  4.278663  0.001  0.683867  0.001022  4.289364  0.001  0.118857  0.634342  0.000469  4.271027  0.001
N  N46  1  0.30917543  0.01288086  0.13266320  1  -0.364899  -0.059753  3.239408  -0.076  -0.340392  -0.043068  3.580773  -0.058  -0.374376  -0.035263  3.595357  -0.051  -0.273643  -0.320306  -0.046501  3.574052  -0.059
N  N47  1  0.80916503  0.48711971  0.86733567  1  -0.364975  -0.059765  3.239355  -0.076  -0.340485  -0.043073  3.58067  -0.058  -0.374465  -0.035262  3.595252  -0.051  -0.273597  -0.320405  -0.04651  3.573952  -0.059
N  N48  1  0.69082757  0.98711795  0.86733624  1  -0.364859  -0.059763  3.239419  -0.076  -0.34039  -0.043069  3.58077  -0.058  -0.374376  -0.035261  3.595356  -0.051  -0.273617  -0.320302  -0.046501  3.574048  -0.059
N  N49  1  0.19083488  0.51288011  0.13266289  1  -0.364835  -0.059784  3.239287  -0.076  -0.340331  -0.043073  3.580593  -0.058  -0.374312  -0.035264  3.595177  -0.051  -0.273553  -0.32025  -0.046507  3.573878  -0.059
N  N50  1  0.32415890  0.08098171  0.23844166  1  0.001156  -1.6e-05  2.927349  -0.001  0.00203  -0.001645  3.244385  -0.003  0.007681  -0.000705  3.25444  -0.002  -0.058151  -0.001146  -0.002561  3.238629  -0.003
N  N51  1  0.82415209  0.41902293  0.76155625  1  0.001178  -2.2e-05  2.927401  -0.001  0.002042  -0.001644  3.244429  -0.003  0.007693  -0.000709  3.254484  -0.002  -0.058179  -0.001137  -0.002562  3.238669  -0.003
N  N52  1  0.67584410  0.91901912  0.76155780  1  0.001104  -2.6e-05  2.927293  -0.001  0.001988  -0.001644  3.244334  -0.003  0.007639  -0.000705  3.254389  -0.002  -0.058166  -0.001191  -0.002562  3.238579  -0.003
N  N53  1  0.17584782  0.58097688  0.23844320  1  0.001114  -2e-06  2.927384  -0.001  0.001992  -0.001646  3.244415  -0.003  0.007643  -0.000709  3.254469  -0.002  -0.058194  -0.001185  -0.002562  3.238659  -0.003
Cl  Cl54  1  0.55310036  0.83307518  0.41899688  1  -0.11534  -0.000283  1.292085  0.0  -0.089587  -9.7e-05  1.551228  0.0  -0.096029  -2.4e-05  1.544027  0.0  -0.027197  -0.084372  -0.000222  1.556385  0.0
Cl  Cl55  1  0.05309533  0.66691759  0.58100769  1  -0.11533  -0.000286  1.292128  0.0  -0.089608  -9.7e-05  1.551233  0.0  -0.096052  -2.3e-05  1.544025  0.0  -0.027231  -0.084401  -0.000222  1.556377  0.0
Cl  Cl56  1  0.44690110  0.16692260  0.58100613  1  -0.115342  -0.000284  1.292078  0.0  -0.08961  -9.7e-05  1.55121  0.0  -0.096053  -2.4e-05  1.544007  0.0  -0.027203  -0.084397  -0.000222  1.556362  0.0
Cl  Cl57  1  0.94689995  0.33308323  0.41899267  1  -0.115311  -0.000285  1.29213  0.0  -0.089592  -9.7e-05  1.551232  0.0  -0.096033  -2.3e-05  1.544022  0.0  -0.027214  -0.084379  -0.000222  1.556384  0.0
O  O58  1  0.07130725  0.73389452  0.88912175  1  -0.39252  -0.020184  1.790315  -0.029  -0.406078  -0.011836  2.019417  -0.019  -0.425009  -0.006012  2.014259  -0.011  -0.14976  -0.39129  -0.020006  2.022625  -0.029
O  O59  1  0.57132033  0.76609831  0.11087374  1  -0.39242  -0.020219  1.790552  -0.029  -0.405999  -0.011829  2.019648  -0.019  -0.424926  -0.006009  2.014486  -0.011  -0.149717  -0.391209  -0.019993  2.022857  -0.029
O  O60  1  0.92869420  0.26610732  0.11087683  1  -0.392506  -0.020179  1.790288  -0.029  -0.406069  -0.011837  2.019366  -0.019  -0.424995  -0.006012  2.014206  -0.011  -0.149788  -0.391283  -0.020003  2.022577  -0.029
O  O61  1  0.42868420  0.23390453  0.88912575  1  -0.392392  -0.020175  1.790558  -0.029  -0.406004  -0.011831  2.019656  -0.019  -0.424931  -0.00601  2.014494  -0.011  -0.149717  -0.391214  -0.019995  2.022863  -0.029
O  O62  1  0.26934577  0.91116480  0.91006045  1  -0.445565  -0.085314  1.892972  -0.118  -0.455218  -0.055652  2.165548  -0.084  -0.491019  -0.038841  2.15866  -0.064  -0.195269  -0.431061  -0.06687  2.170841  -0.094
O  O63  1  0.76934161  0.58882327  0.08993351  1  -0.445457  -0.085288  1.893063  -0.118  -0.455173  -0.055651  2.165675  -0.084  -0.490972  -0.038842  2.158781  -0.064  -0.195249  -0.431035  -0.066866  2.171006  -0.094
O  O64  1  0.73065877  0.08883299  0.08994077  1  -0.445462  -0.085326  1.892858  -0.118  -0.455167  -0.055653  2.16546  -0.084  -0.490965  -0.038841  2.158572  -0.064  -0.195267  -0.43102  -0.066868  2.170776  -0.094
O  O65  1  0.23065675  0.41117654  0.91006595  1  -0.445473  -0.085305  1.893048  -0.118  -0.455201  -0.055652  2.165647  -0.084  -0.491  -0.038843  2.158752  -0.064  -0.19527  -0.431061  -0.06687  2.170974  -0.094
