# generated using pymatgen
data_CdH20C28(NO2)4
_symmetry_space_group_name_H-M   'P 1'
_cell_length_a   7.69889340
_cell_length_b   18.10645432
_cell_length_c   21.59370193
_cell_angle_alpha   92.60061323
_cell_angle_beta   90.00149591
_cell_angle_gamma   89.99895519
_symmetry_Int_Tables_number   1
_chemical_formula_structural   CdH20C28(NO2)4
_chemical_formula_sum   'Cd4 H80 C112 N16 O32'
_cell_volume   3007.05453343
_cell_formula_units_Z   4
loop_
 _symmetry_equiv_pos_site_id
 _symmetry_equiv_pos_as_xyz
  1  'x, y, z'
loop_
 _atom_site_type_symbol
 _atom_site_label
 _atom_site_symmetry_multiplicity
 _atom_site_fract_x
 _atom_site_fract_y
 _atom_site_fract_z
 _atom_site_occupancy
 _atom_site_pbe_bader_charge
 _atom_site_pbe_bader_spin_density
 _atom_site_pbe_cm5_charge
 _atom_site_pbe_ddec_charge
 _atom_site_pbe_ddec_spin_density
 _atom_site_pbe_ddec_sum_bond_order
 _atom_site_pbe_magmom
Cd  Cd0  1  0.72319562  0.58394556  0.85523634  1  1.262519  0  0.766531  0.889  0  2.144322  0
Cd  Cd1  1  0.72315877  0.91605552  0.64475732  1  1.262498  0  0.766534  0.889012  0  2.144393  0
Cd  Cd2  1  0.27682197  0.41605789  0.14476398  1  1.26244  0  0.766532  0.888955  0  2.144381  0
Cd  Cd3  1  0.27680687  0.08395292  0.35524404  1  1.26266  0  0.766548  0.889009  0  2.144391  0
H  H4  1  0.24688482  0.69141790  0.57711803  1  0.124036  0  0.13948  0.121763  0  0.95412  0
H  H5  1  0.24692489  0.80859666  0.92287294  1  0.124225  0  0.139473  0.12191  0  0.953997  0
H  H6  1  0.75310810  0.30860315  0.42287851  1  0.124093  0  0.139465  0.121893  0  0.954001  0
H  H7  1  0.75304725  0.19138943  0.07711679  1  0.123858  0  0.139598  0.122076  0  0.953978  0
H  H8  1  0.97365924  0.68166530  0.63789183  1  0.197958  0  0.119025  0.142606  0  1.017083  0
H  H9  1  0.97368014  0.81835710  0.86210182  1  0.198037  0  0.118889  0.14238  0  1.017108  0
H  H10  1  0.02633238  0.31835736  0.36210290  1  0.198245  0  0.118976  0.142544  0  1.017026  0
H  H11  1  0.02627511  0.18164618  0.13789062  1  0.19844  0  0.118907  0.142526  0  1.017148  0
H  H12  1  0.29203935  0.64789166  0.79960058  1  0.139329  0  0.116408  0.135705  0  1.015414  0
H  H13  1  0.29202229  0.85208926  0.70038403  1  0.139005  0  0.116427  0.135607  0  1.015807  0
H  H14  1  0.70795227  0.35209222  0.20038957  1  0.139157  0  0.116475  0.135707  0  1.01566  0
H  H15  1  0.70794335  0.14790287  0.29960446  1  0.139322  0  0.116364  0.135451  0  1.015583  0
H  H16  1  0.55288183  0.66657140  0.73390661  1  0.244231  0  0.13334  0.132907  0  1.046951  0
H  H17  1  0.55287427  0.83340246  0.76607236  1  0.243823  0  0.133401  0.13279  0  1.047004  0
H  H18  1  0.44711369  0.33340917  0.26608346  1  0.24412  0  0.133388  0.132899  0  1.046942  0
H  H19  1  0.44707838  0.16657360  0.23391391  1  0.243857  0  0.133335  0.132863  0  1.04695  0
H  H20  1  0.54381093  0.66364585  0.56980264  1  0.138842  0  0.12773  0.139839  0  0.9579  0
H  H21  1  0.54385425  0.83634696  0.93018084  1  0.139593  0  0.127733  0.139994  0  0.957556  0
H  H22  1  0.45617029  0.33637177  0.43018919  1  0.138991  0  0.127732  0.139803  0  0.957722  0
H  H23  1  0.45612048  0.16363962  0.06980613  1  0.13983  0  0.127778  0.14013  0  0.957671  0
H  H24  1  0.66513376  0.64880380  0.63731282  1  0.15582  0  0.130501  0.14998  0  0.979787  0
H  H25  1  0.66515721  0.85119078  0.86266719  1  0.156589  0  0.130463  0.150086  0  0.979865  0
H  H26  1  0.33484877  0.35118775  0.36267427  1  0.156857  0  0.130437  0.149988  0  0.979847  0
H  H27  1  0.33480973  0.14879574  0.13731700  1  0.16771  0  0.130606  0.150467  0  0.979622  0
H  H28  1  0.95410632  0.46882216  0.70660670  1  0.211123  0  0.127595  0.12645  0  1.053331  0
H  H29  1  0.95403047  0.03118871  0.79338614  1  0.211417  0  0.127509  0.126023  0  1.053544  0
H  H30  1  0.04598531  0.53120383  0.29338857  1  0.211087  0  0.127482  0.125979  0  1.053603  0
H  H31  1  0.04588971  0.96882342  0.20660696  1  0.211269  0  0.127608  0.126417  0  1.053377  0
H  H32  1  0.21455289  0.48513869  0.77601210  1  0.073656  0  0.110262  0.118311  0  1.023121  0
H  H33  1  0.21448303  0.01485039  0.72399245  1  0.07323  0  0.110249  0.118281  0  1.023274  0
H  H34  1  0.78553615  0.51486198  0.22398769  1  0.073088  0  0.110352  0.118394  0  1.023084  0
H  H35  1  0.78545793  0.98514378  0.27601322  1  0.073519  0  0.110367  0.118448  0  1.023122  0
H  H36  1  0.53474478  0.48663436  0.61127497  1  0.18104  0  0.114788  0.139801  0  1.019014  0
H  H37  1  0.53464940  0.01334490  0.88874435  1  0.181298  0  0.114782  0.139788  0  1.019078  0
H  H38  1  0.46536374  0.51336425  0.38873127  1  0.180807  0  0.114804  0.139719  0  1.019104  0
H  H39  1  0.46523571  0.98662975  0.11127802  1  0.181079  0  0.11477  0.139765  0  1.019  0
H  H40  1  0.26334276  0.47010910  0.54798992  1  0.230562  0  0.130278  0.127082  0  1.037222  0
H  H41  1  0.26324224  0.02988522  0.95201844  1  0.230389  0  0.130322  0.127234  0  1.037261  0
H  H42  1  0.73676186  0.52991263  0.45201313  1  0.231285  0  0.130332  0.127184  0  1.037193  0
H  H43  1  0.73663119  0.97010519  0.04799177  1  0.230306  0  0.130283  0.12707  0  1.037167  0
H  H44  1  0.83928455  0.44249738  0.61847105  1  0.11434  0  0.113446  0.121201  0  1.011484  0
H  H45  1  0.83917638  0.05747889  0.88151718  1  0.117294  0  0.113519  0.121159  0  1.01157  0
H  H46  1  0.16083306  0.55750035  0.38152080  1  0.116737  0  0.113441  0.121014  0  1.011595  0
H  H47  1  0.16069444  0.94248961  0.11847680  1  0.116194  0  0.113427  0.121036  0  1.011614  0
H  H48  1  0.96530442  0.42280938  0.54870306  1  0.136185  0  0.117788  0.138344  0  1.01394  0
H  H49  1  0.96517585  0.07721020  0.95128776  1  0.135662  0  0.117779  0.138306  0  1.014056  0
H  H50  1  0.03482878  0.57722041  0.45128952  1  0.135678  0  0.117786  0.138244  0  1.014143  0
H  H51  1  0.03468069  0.92280416  0.04870631  1  0.136199  0  0.117798  0.138334  0  1.013888  0
H  H52  1  0.93439446  0.33834190  0.06592230  1  0.11362  0  0.113168  0.131606  0  0.998239  0
H  H53  1  0.93437794  0.16165784  0.43408456  1  0.113415  0  0.113172  0.131639  0  0.998191  0
H  H54  1  0.06563483  0.66166998  0.93408469  1  0.113498  0  0.113192  0.131722  0  0.998016  0
H  H55  1  0.06561628  0.83833391  0.56591179  1  0.113334  0  0.113121  0.131597  0  0.997962  0
H  H56  1  0.77944922  0.43207444  0.13129796  1  0.152908  0  0.110613  0.125781  0  1.017944  0
H  H57  1  0.77945007  0.06793016  0.36870017  1  0.152863  0  0.110624  0.125831  0  1.017948  0
H  H58  1  0.22057877  0.56793739  0.86870671  1  0.153195  0  0.110565  0.125829  0  1.017984  0
H  H59  1  0.22055324  0.93206046  0.63129476  1  0.153127  0  0.110573  0.1257  0  1.018046  0
H  H60  1  0.90265019  0.42536655  0.80441776  1  0.090549  0  0.117389  0.089861  0  1.015252  0
H  H61  1  0.90257311  0.07464553  0.69558761  1  0.090303  0  0.117271  0.089738  0  1.015262  0
H  H62  1  0.09738819  0.57464086  0.19558728  1  0.090352  0  0.117317  0.08975  0  1.015214  0
H  H63  1  0.09737304  0.92536895  0.30441203  1  0.090295  0  0.117349  0.089863  0  1.01523  0
H  H64  1  0.03683879  0.30999466  0.84497821  1  0.069078  0  0.111299  0.116679  0  0.981952  0
H  H65  1  0.03680449  0.19000575  0.65502821  1  0.068934  0  0.111354  0.116686  0  0.982035  0
H  H66  1  0.96317231  0.69000839  0.15502905  1  0.068866  0  0.111319  0.116617  0  0.981991  0
H  H67  1  0.96318193  0.80999809  0.34496517  1  0.068863  0  0.111353  0.116647  0  0.982001  0
H  H68  1  0.02670168  0.29116499  0.95988214  1  0.100925  0  0.120005  0.128107  0  0.96333  0
H  H69  1  0.02670233  0.20882992  0.54012175  1  0.100989  0  0.120009  0.128115  0  0.963066  0
H  H70  1  0.97331202  0.70884081  0.04012472  1  0.101226  0  0.119965  0.12818  0  0.963148  0
H  H71  1  0.97330748  0.79116503  0.45986911  1  0.101285  0  0.119973  0.12816  0  0.963028  0
H  H72  1  0.53866775  0.67257331  0.97575645  1  0.125303  0  0.117393  0.086669  0  1.011482  0
H  H73  1  0.53865050  0.82743631  0.52423616  1  0.125547  0  0.117403  0.086688  0  1.011417  0
H  H74  1  0.46135115  0.32743519  0.02424769  1  0.12536  0  0.117376  0.086679  0  1.011428  0
H  H75  1  0.46137749  0.17255671  0.47576763  1  0.125287  0  0.117397  0.086603  0  1.011395  0
H  H76  1  0.49144040  0.66153027  0.08999804  1  0.049096  0  0.111171  0.118596  0  0.976713  0
H  H77  1  0.49145747  0.83847142  0.40999359  1  0.048949  0  0.11117  0.11863  0  0.976809  0
H  H78  1  0.50856680  0.33847709  0.91000468  1  0.049048  0  0.111123  0.118594  0  0.97693  0
H  H79  1  0.50857571  0.16151219  0.59000952  1  0.049173  0  0.111207  0.11866  0  0.976932  0
H  H80  1  0.60652613  0.54878323  0.14072997  1  0.148252  0  0.109193  0.118885  0  1.026883  0
H  H81  1  0.60653469  0.95121600  0.35926451  1  0.148137  0  0.109191  0.118774  0  1.02696  0
H  H82  1  0.39349276  0.45122472  0.85927415  1  0.148322  0  0.109232  0.11897  0  1.026785  0
H  H83  1  0.39347641  0.04876866  0.64073584  1  0.147966  0  0.109144  0.118758  0  1.026892  0
C  C84  1  0.24888579  0.68395913  0.62676131  1  0.370285  0  0.074727  0.058218  0  3.809433  0
C  C85  1  0.24890631  0.81605373  0.87322918  1  0.370466  0  0.074594  0.057798  0  3.810227  0
C  C86  1  0.75111232  0.31605855  0.37323330  1  0.370413  0  0.074729  0.058026  0  3.809778  0
C  C87  1  0.75105414  0.18393842  0.12676023  1  0.369778  0  0.074635  0.057856  0  3.809828  0
C  C88  1  0.09836037  0.67652068  0.66095320  1  0.122752  0  -0.057913  -0.101338  0  3.890937  0
C  C89  1  0.09838327  0.82349059  0.83903819  1  0.121991  0  -0.057751  -0.100973  0  3.891068  0
C  C90  1  0.90162995  0.32349035  0.33904034  1  0.122311  0  -0.057929  -0.101299  0  3.891021  0
C  C91  1  0.90158627  0.17650542  0.16095039  1  0.123211  0  -0.057767  -0.101258  0  3.891438  0
C  C92  1  0.11072323  0.65986295  0.72342064  1  -0.008639  0  0.012287  0.018241  0  3.916257  0
C  C93  1  0.11072915  0.84014266  0.77656889  1  -0.007949  0  0.012309  0.018162  0  3.91631  0
C  C94  1  0.88926579  0.34013864  0.27657037  1  -0.009032  0  0.012404  0.01836  0  3.916218  0
C  C95  1  0.88924948  0.15985949  0.22342260  1  -0.009128  0  0.012186  0.017815  0  3.916703  0
C  C96  1  0.27482708  0.65800426  0.75081360  1  0.043156  0  -0.070174  -0.128443  0  3.962873  0
C  C97  1  0.27482831  0.84198618  0.74917061  1  0.043642  0  -0.070112  -0.128281  0  3.963132  0
C  C98  1  0.72516064  0.34198735  0.24917626  1  0.043849  0  -0.070213  -0.12847  0  3.963247  0
C  C99  1  0.72515291  0.15800316  0.25081643  1  0.043534  0  -0.069913  -0.127752  0  3.962895  0
C  C100  1  0.42126999  0.66844186  0.71545896  1  0.285738  0  0.061118  0.03471  0  3.805144  0
C  C101  1  0.42127945  0.83154251  0.78452553  1  0.285233  0  0.061005  0.034796  0  3.804827  0
C  C102  1  0.57872163  0.33154928  0.28453460  1  0.284819  0  0.060955  0.034571  0  3.805176  0
C  C103  1  0.57870048  0.16843974  0.21546551  1  0.285976  0  0.060958  0.034511  0  3.805012  0
C  C104  1  0.56715065  0.68461705  0.61750476  1  0.178829  0  -0.050582  -0.239243  0  3.82208  0
C  C105  1  0.56718098  0.81537938  0.88247532  1  0.179857  0  -0.050633  -0.239668  0  3.821562  0
C  C106  1  0.43283966  0.31538403  0.38248856  1  0.17791  0  -0.050571  -0.239232  0  3.821757  0
C  C107  1  0.43279506  0.18460716  0.11750980  1  0.167975  0  -0.050911  -0.240614  0  3.822615  0
C  C108  1  0.63894374  0.76380935  0.61835468  1  1.631361  0  0.192858  0.588468  0  4.232153  0
C  C109  1  0.63898385  0.73618411  0.88161580  1  1.631179  0  0.19307  0.588675  0  4.231748  0
C  C110  1  0.36105697  0.23618913  0.38164599  1  1.630637  0  0.192996  0.588587  0  4.231798  0
C  C111  1  0.36098568  0.26380003  0.11836139  1  1.632488  0  0.193321  0.589122  0  4.231713  0
C  C112  1  0.94979360  0.64014146  0.75909805  1  1.611324  0  0.200833  0.561543  0  4.236077  0
C  C113  1  0.94978567  0.85986516  0.74089874  1  1.610588  0  0.200645  0.561168  0  4.236436  0
C  C114  1  0.05019932  0.35986686  0.24089775  1  1.611131  0  0.200792  0.561358  0  4.236176  0
C  C115  1  0.05017348  0.14013548  0.25909967  1  1.610771  0  0.201058  0.562126  0  4.235528  0
C  C116  1  0.08669786  0.47058553  0.68883644  1  0.365828  0  0.05005  0.012068  0  3.844881  0
C  C117  1  0.08663118  0.02940937  0.81116290  1  0.364716  0  0.050247  0.012368  0  3.844664  0
C  C118  1  0.91338598  0.52942679  0.31116547  1  0.364835  0  0.050319  0.012562  0  3.844739  0
C  C119  1  0.91329420  0.97059028  0.18884058  1  0.365759  0  0.050227  0.012288  0  3.845172  0
C  C120  1  0.23131852  0.47915080  0.72603908  1  0.069855  0  -0.082681  -0.149914  0  4.006824  0
C  C121  1  0.23125468  0.02083764  0.77396746  1  0.070294  0  -0.082596  -0.149689  0  4.006425  0
C  C122  1  0.76877571  0.52085158  0.27396306  1  0.070422  0  -0.082837  -0.150046  0  4.006399  0
C  C123  1  0.76867070  0.97915330  0.22604184  1  0.069957  0  -0.082953  -0.150159  0  4.006873  0
C  C124  1  0.39704388  0.48331865  0.69953979  1  -0.084025  0  0.006265  0.017713  0  3.926693  0
C  C125  1  0.39698995  0.01665540  0.80047212  1  -0.083149  0  0.0061  0.017504  0  3.926867  0
C  C126  1  0.60303996  0.51667480  0.30045845  1  -0.083555  0  0.00645  0.017791  0  3.926304  0
C  C127  1  0.60295102  0.98332290  0.19954060  1  -0.084117  0  0.0063  0.017813  0  3.926575  0
C  C128  1  0.40989665  0.48069487  0.63477072  1  0.0648  0  -0.069023  -0.130161  0  3.899021  0
C  C129  1  0.40980190  0.01928349  0.86524048  1  0.064764  0  -0.069118  -0.130246  0  3.899051  0
C  C130  1  0.59020017  0.51929857  0.36522706  1  0.04616  0  -0.069281  -0.130247  0  3.898204  0
C  C131  1  0.59009880  0.98069425  0.13477177  1  0.064802  0  -0.069057  -0.130259  0  3.899102  0
C  C132  1  0.26069483  0.47299275  0.59874773  1  0.335901  0  0.068167  0.050359  0  3.774935  0
C  C133  1  0.26059590  0.02699829  0.90126145  1  0.335736  0  0.068356  0.050287  0  3.774613  0
C  C134  1  0.73940329  0.52702291  0.40125564  1  0.355088  0  0.068396  0.050405  0  3.77415  0
C  C135  1  0.73929571  0.97298942  0.09875194  1  0.336206  0  0.068247  0.050664  0  3.77497  0
C  C136  1  0.94430335  0.46131000  0.58891602  1  0.195369  0  -0.068061  -0.263816  0  3.824536  0
C  C137  1  0.94419815  0.03868943  0.91108064  1  0.193936  0  -0.068064  -0.263565  0  3.824578  0
C  C138  1  0.05580776  0.53870722  0.41108229  1  0.194344  0  -0.067895  -0.263233  0  3.824968  0
C  C139  1  0.05567917  0.96130573  0.08891949  1  0.192994  0  -0.06806  -0.263502  0  3.82434  0
C  C140  1  0.89215037  0.53650366  0.56066521  1  1.656689  0  0.189772  0.598641  0  4.260256  0
C  C141  1  0.89210064  0.96349402  0.93933223  1  1.656032  0  0.189994  0.598882  0  4.259863  0
C  C142  1  0.10791399  0.46351025  0.43933349  1  1.655047  0  0.189871  0.598682  0  4.2606  0
C  C143  1  0.10782993  0.03649793  0.06067292  1  1.655576  0  0.189615  0.598612  0  4.26033  0
C  C144  1  0.55519522  0.49224425  0.74119062  1  1.616434  0  0.200285  0.56586  0  4.249874  0
C  C145  1  0.55515550  0.00774923  0.75882920  1  1.617885  0  0.200365  0.565623  0  4.2499  0
C  C146  1  0.44486914  0.50776049  0.25881853  1  1.6181  0  0.200103  0.565561  0  4.2504  0
C  C147  1  0.44479586  0.99223862  0.24119022  1  1.616675  0  0.200165  0.565635  0  4.250557  0
C  C148  1  0.82272915  0.45807819  0.95232987  1  0.527858  0  0.115555  0.112545  0  3.993023  0
C  C149  1  0.82270366  0.04192664  0.54766951  1  0.528134  0  0.115642  0.112759  0  3.992502  0
C  C150  1  0.17731183  0.54193195  0.04767338  1  0.527526  0  0.115558  0.112556  0  3.992337  0
C  C151  1  0.17729315  0.95807564  0.45232801  1  0.527778  0  0.115522  0.112529  0  3.992666  0
C  C152  1  0.89080104  0.39414610  0.97984428  1  -0.073196  0  -0.001581  0.042762  0  4.010427  0
C  C153  1  0.89078640  0.10585713  0.52015615  1  -0.073424  0  -0.001492  0.042864  0  4.010194  0
C  C154  1  0.10922435  0.60586462  0.02015991  1  -0.074133  0  -0.001653  0.042897  0  4.010119  0
C  C155  1  0.10921561  0.89413850  0.47984029  1  -0.07402  0  -0.00166  0.042586  0  4.010451  0
C  C156  1  0.87516079  0.38621921  0.04531911  1  -0.037549  0  -0.082188  -0.123632  0  3.947913  0
C  C157  1  0.87514652  0.11378198  0.45468261  1  -0.037383  0  -0.082143  -0.123703  0  3.947874  0
C  C158  1  0.12487888  0.61379319  0.95468650  1  -0.037362  0  -0.082145  -0.123859  0  3.947755  0
C  C159  1  0.12486068  0.88621250  0.54531195  1  -0.037417  0  -0.082124  -0.123689  0  3.947819  0
C  C160  1  0.79048781  0.43848183  0.08158292  1  -0.025809  0  -0.077644  -0.099265  0  3.938342  0
C  C161  1  0.79049777  0.06151660  0.41841518  1  -0.025779  0  -0.077693  -0.099319  0  3.938299  0
C  C162  1  0.20954278  0.56152836  0.91842265  1  -0.026191  0  -0.077612  -0.09922  0  3.938544  0
C  C163  1  0.20951333  0.93847293  0.58158019  1  -0.02589  0  -0.077656  -0.099083  0  3.938249  0
C  C164  1  0.71894923  0.50313744  0.05562900  1  -0.079957  0  -0.001391  0.044131  0  3.994057  0
C  C165  1  0.71894131  0.99686655  0.44436894  1  -0.079963  0  -0.001312  0.044311  0  3.994073  0
C  C166  1  0.28108006  0.49687162  0.94437515  1  -0.080195  0  -0.001324  0.044257  0  3.994356  0
C  C167  1  0.28107239  0.00312412  0.55562831  1  -0.080198  0  -0.001229  0.044493  0  3.994345  0
C  C168  1  0.73677417  0.51411644  0.99115985  1  0.507157  0  0.11608  0.116806  0  3.987195  0
C  C169  1  0.73675945  0.98588472  0.50884181  1  0.507307  0  0.115976  0.116593  0  3.987152  0
C  C170  1  0.26326161  0.48589327  0.00884849  1  0.50736  0  0.115977  0.116529  0  3.987417  0
C  C171  1  0.26324385  0.01410772  0.49116011  1  0.507187  0  0.116085  0.116592  0  3.987651  0
C  C172  1  0.90487981  0.41542014  0.85392032  1  0.568215  0  0.054541  0.103945  0  3.947096  0
C  C173  1  0.90482856  0.08458527  0.64608353  1  0.568982  0  0.054634  0.104162  0  3.946848  0
C  C174  1  0.09516117  0.58458563  0.14608515  1  0.568874  0  0.054536  0.104075  0  3.946957  0
C  C175  1  0.09514098  0.91542475  0.35391416  1  0.568766  0  0.054498  0.103832  0  3.947006  0
C  C176  1  0.97693134  0.35071172  0.87696568  1  -0.060594  0  -0.085516  -0.136607  0  4.009889  0
C  C177  1  0.97688734  0.14928987  0.62304013  1  -0.061282  0  -0.085701  -0.136671  0  4.010214  0
C  C178  1  0.02309015  0.64929188  0.12304159  1  -0.060923  0  -0.085484  -0.136287  0  4.010026  0
C  C179  1  0.02309389  0.85071071  0.37695550  1  -0.060743  0  -0.085555  -0.136306  0  4.009814  0
C  C180  1  0.97089405  0.34022763  0.94001008  1  0.004986  0  -0.060945  -0.074811  0  3.923738  0
C  C181  1  0.97088005  0.15976904  0.55999603  1  0.005578  0  -0.060915  -0.074829  0  3.923656  0
C  C182  1  0.02913264  0.65978040  0.05999775  1  0.005842  0  -0.060843  -0.075124  0  3.923729  0
C  C183  1  0.02912586  0.84022708  0.43999764  1  0.005762  0  -0.060832  -0.074954  0  3.923596  0
C  C184  1  0.58928209  0.62554148  0.99973388  1  0.523788  0  0.056908  0.110131  0  3.961231  0
C  C185  1  0.58926758  0.87446225  0.50025907  1  0.523974  0  0.056989  0.110226  0  3.960865  0
C  C186  1  0.41074719  0.37446698  0.00026841  1  0.523791  0  0.056935  0.110108  0  3.960848  0
C  C187  1  0.41075001  0.12552801  0.49974466  1  0.524266  0  0.057062  0.110437  0  3.961046  0
C  C188  1  0.56364292  0.61893759  0.06365065  1  -0.030743  0  -0.086648  -0.133096  0  3.992541  0
C  C189  1  0.56364713  0.88106629  0.43633938  1  -0.03047  0  -0.086666  -0.133234  0  3.992379  0
C  C190  1  0.43637207  0.38106974  0.93635068  1  -0.030268  0  -0.086688  -0.133313  0  3.992727  0
C  C191  1  0.43638216  0.11892161  0.56365735  1  -0.030509  0  -0.086841  -0.133398  0  3.992863  0
C  C192  1  0.62867538  0.55765357  0.09171328  1  0.003548  0  -0.063819  -0.070997  0  3.914978  0
C  C193  1  0.62869181  0.94235048  0.40828199  1  0.003337  0  -0.063895  -0.070925  0  3.91501  0
C  C194  1  0.37134741  0.44235881  0.90829141  1  0.003771  0  -0.06381  -0.070929  0  3.915026  0
C  C195  1  0.37132968  0.05763590  0.59172119  1  0.003611  0  -0.063823  -0.071069  0  3.914968  0
N  N196  1  0.40662775  0.67836727  0.65380301  1  -1.206238  0  -0.205532  0.125773  0  3.761872  0
N  N197  1  0.40664995  0.82162662  0.84618248  1  -1.208829  0  -0.205416  0.126045  0  3.761872  0
N  N198  1  0.59336257  0.32162997  0.34619161  1  -1.206364  0  -0.205398  0.12595  0  3.761826  0
N  N199  1  0.59331959  0.17835679  0.15381136  1  -1.208189  0  -0.205373  0.126296  0  3.761872  0
N  N200  1  0.10285901  0.46635193  0.62614465  1  -1.249553  0  -0.204868  0.141259  0  3.757168  0
N  N201  1  0.10276817  0.03364784  0.87385541  1  -1.250381  0  -0.205203  0.141171  0  3.75694  0
N  N202  1  0.89723782  0.53367032  0.37385655  1  -1.251097  0  -0.20539  0.140867  0  3.757185  0
N  N203  1  0.89713252  0.96635132  0.12615083  1  -1.249283  0  -0.2049  0.140839  0  3.757468  0
N  N204  1  0.83202282  0.46760098  0.89060985  1  -1.246907  0  -0.316729  -0.269662  0  3.502973  0
N  N205  1  0.83196460  0.03240652  0.60938874  1  -1.247406  0  -0.316708  -0.269915  0  3.502658  0
N  N206  1  0.16801296  0.53240643  0.10939472  1  -1.247242  0  -0.316753  -0.269861  0  3.502546  0
N  N207  1  0.16800234  0.96759683  0.39060695  1  -1.247468  0  -0.31668  -0.269621  0  3.502921  0
N  N208  1  0.67248995  0.57467775  0.96461733  1  -1.243366  0  -0.319092  -0.278106  0  3.512193  0
N  N209  1  0.67245637  0.92532769  0.53538152  1  -1.243593  0  -0.319106  -0.278062  0  3.512181  0
N  N210  1  0.32754064  0.42533022  0.03538772  1  -1.243442  0  -0.319009  -0.277812  0  3.511905  0
N  N211  1  0.32755084  0.07466528  0.46461949  1  -1.243196  0  -0.319113  -0.278043  0  3.512177  0
O  O212  1  0.78857857  0.77210103  0.59699533  1  -1.177855  0  -0.328506  -0.556904  0  2.127826  0
O  O213  1  0.78864918  0.72788686  0.90294907  1  -1.178138  0  -0.328629  -0.556939  0  2.127723  0
O  O214  1  0.21144682  0.22789234  0.40302422  1  -1.177576  0  -0.328676  -0.557043  0  2.127903  0
O  O215  1  0.21135153  0.27209743  0.09700960  1  -1.178282  0  -0.32872  -0.557132  0  2.12771  0
O  O216  1  0.53918625  0.81544573  0.64013234  1  -1.16943  0  -0.335517  -0.56579  0  2.241943  0
O  O217  1  0.53917890  0.68454596  0.85987377  1  -1.169068  0  -0.33555  -0.565883  0  2.242054  0
O  O218  1  0.46082096  0.18455538  0.35986190  1  -1.169044  0  -0.335481  -0.565734  0  2.24165  0
O  O219  1  0.46076076  0.31543934  0.14013077  1  -1.170115  0  -0.335758  -0.565959  0  2.241648  0
O  O220  1  0.97823661  0.60612458  0.80926906  1  -1.148869  0  -0.330369  -0.556717  0  2.275111  0
O  O221  1  0.97818979  0.89385502  0.69071487  1  -1.149085  0  -0.330216  -0.556535  0  2.27545  0
O  O222  1  0.02177579  0.39386925  0.19072085  1  -1.149242  0  -0.330346  -0.556628  0  2.275534  0
O  O223  1  0.02176286  0.10614786  0.30928497  1  -1.148841  0  -0.330382  -0.556811  0  2.275124  0
O  O224  1  0.80438717  0.65530445  0.73738984  1  -1.174572  0  -0.309174  -0.52882  0  2.186844  0
O  O225  1  0.80438148  0.84472860  0.76262844  1  -1.173888  0  -0.309183  -0.528633  0  2.186689  0
O  O226  1  0.19560964  0.34470579  0.26261805  1  -1.174293  0  -0.309205  -0.52877  0  2.186537  0
O  O227  1  0.19558157  0.15528049  0.23737756  1  -1.17397  0  -0.309418  -0.529173  0  2.186674  0
O  O228  1  0.01251875  0.58152765  0.55108811  1  -1.188624  0  -0.343924  -0.592326  0  2.148204  0
O  O229  1  0.01251060  0.91848693  0.94892388  1  -1.188086  0  -0.343956  -0.592455  0  2.148165  0
O  O230  1  0.98749884  0.41850244  0.44891791  1  -1.18738  0  -0.343958  -0.59241  0  2.147916  0
O  O231  1  0.98745764  0.08151838  0.05108575  1  -1.187735  0  -0.343898  -0.592377  0  2.148287  0
O  O232  1  0.73246193  0.54044311  0.54789807  1  -1.18603  0  -0.344933  -0.57782  0  2.09497  0
O  O233  1  0.73243019  0.95955082  0.95212516  1  -1.18621  0  -0.345047  -0.57798  0  2.094741  0
O  O234  1  0.26758424  0.45955782  0.45211331  1  -1.185663  0  -0.344945  -0.577854  0  2.095259  0
O  O235  1  0.26751337  0.04043663  0.04790120  1  -1.185486  0  -0.344828  -0.57779  0  2.09494  0
O  O236  1  0.52211511  0.52427450  0.79431774  1  -1.172411  0  -0.334236  -0.568749  0  2.30707  0
O  O237  1  0.52209838  0.97569444  0.70570346  1  -1.172542  0  -0.334257  -0.568593  0  2.306357  0
O  O238  1  0.47792457  0.47570492  0.20569547  1  -1.172606  0  -0.334118  -0.568595  0  2.306728  0
O  O239  1  0.47786986  0.02428897  0.29431540  1  -1.172364  0  -0.334246  -0.568744  0  2.306903  0
O  O240  1  0.69830910  0.46801773  0.72183246  1  -1.178659  0  -0.325845  -0.556169  0  2.159674  0
O  O241  1  0.69822301  0.03200421  0.77819904  1  -1.179627  0  -0.32581  -0.555888  0  2.160032  0
O  O242  1  0.30180332  0.53202072  0.27817698  1  -1.179642  0  -0.325688  -0.555824  0  2.160023  0
O  O243  1  0.30171016  0.96800450  0.22183938  1  -1.178915  0  -0.325738  -0.555986  0  2.160659  0
