# generated using pymatgen
data_SnH21C13NF2
_symmetry_space_group_name_H-M   'P 1'
_cell_length_a   5.16545203
_cell_length_b   8.42225443
_cell_length_c   9.13275263
_cell_angle_alpha   87.01285017
_cell_angle_beta   76.96294297
_cell_angle_gamma   74.91430809
_symmetry_Int_Tables_number   1
_chemical_formula_structural   SnH21C13NF2
_chemical_formula_sum   'Sn1 H21 C13 N1 F2'
_cell_volume   373.72822900
_cell_formula_units_Z   1
loop_
 _symmetry_equiv_pos_site_id
 _symmetry_equiv_pos_as_xyz
  1  'x, y, z'
loop_
 _atom_site_type_symbol
 _atom_site_label
 _atom_site_symmetry_multiplicity
 _atom_site_fract_x
 _atom_site_fract_y
 _atom_site_fract_z
 _atom_site_occupancy
 _atom_site_hle17_bader_spin_density
 _atom_site_hle17_ddec_charge
 _atom_site_hle17_ddec_spin_density
 _atom_site_hle17_ddec_sum_bond_order
 _atom_site_hle17_magmom
 _atom_site_hse06_10hf_bader_spin_density
 _atom_site_hse06_10hf_ddec_charge
 _atom_site_hse06_10hf_ddec_spin_density
 _atom_site_hse06_10hf_ddec_sum_bond_order
 _atom_site_hse06_10hf_magmom
 _atom_site_hse06_bader_spin_density
 _atom_site_hse06_ddec_charge
 _atom_site_hse06_ddec_spin_density
 _atom_site_hse06_ddec_sum_bond_order
 _atom_site_hse06_magmom
 _atom_site_pbe_bader_spin_density
 _atom_site_pbe_cm5_charge
 _atom_site_pbe_ddec_charge
 _atom_site_pbe_ddec_spin_density
 _atom_site_pbe_ddec_sum_bond_order
 _atom_site_pbe_magmom
Sn  Sn0  1  0.00899659  0.06101974  0.41027856  1  0  1.467878  0  2.853738  0  0  1.272238  0  3.381127  0  0  1.332827  0  3.335422  0  0  0.619171  1.230034  0  3.412789  0
H  H1  1  0.74736469  0.01599223  0.75210237  1  0  0.092212  0  0.961679  0  0  0.103973  0  1.021771  0  0  0.106279  0  1.020638  0  0  0.105243  0.10217  0  1.022813  0
H  H2  1  0.55485937  0.19468665  0.97971419  1  0  0.072821  0  0.971797  0  0  0.08487  0  1.036851  0  0  0.087294  0  1.03584  0  0  0.093222  0.082831  0  1.038643  0
H  H3  1  0.72197342  0.59047756  0.43954894  1  0  0.082675  0  0.901593  0  0  0.098856  0  0.961579  0  0  0.100472  0  0.959714  0  0  0.109409  0.097384  0  0.963221  0
H  H4  1  0.06892863  0.48494205  0.42359282  1  0  0.083961  0  0.948733  0  0  0.104355  0  1.005237  0  0  0.104768  0  1.005483  0  0  0.112557  0.104004  0  1.004963  0
H  H5  1  0.20061719  0.73776094  0.17137342  1  0  0.051372  0  0.937941  0  0  0.070817  0  1.001004  0  0  0.07143  0  1.001003  0  0  0.082766  0.070388  0  1.001142  0
H  H6  1  0.83867537  0.80149595  0.22304139  1  0  0.062156  0  0.938971  0  0  0.07921  0  1.003192  0  0  0.080294  0  1.002516  0  0  0.087525  0.078002  0  1.004496  0
H  H7  1  0.66517065  0.61690063  0.70754470  1  0  0.100217  0  0.956184  0  0  0.112361  0  1.014522  0  0  0.115265  0  1.013112  0  0  0.106127  0.110116  0  1.015873  0
H  H8  1  0.86946273  0.09409371  0.14486334  1  0  0.107176  0  1.003893  0  0  0.120227  0  1.06898  0  0  0.122405  0  1.070949  0  0  0.08869  0.118104  0  1.068677  0
H  H9  1  0.23085358  0.02582468  0.12357211  1  0  0.113651  0  0.973029  0  0  0.130368  0  1.029842  0  0  0.13282  0  1.03109  0  0  0.092647  0.1283  0  1.029466  0
H  H10  1  0.00302713  0.68642938  0.96028562  1  0  0.051087  0  0.949788  0  0  0.070787  0  1.009759  0  0  0.071192  0  1.010625  0  0  0.083034  0.070043  0  1.009752  0
H  H11  1  0.80385536  0.89091013  0.96773866  1  0  0.049594  0  0.949201  0  0  0.071438  0  1.008571  0  0  0.071495  0  1.009679  0  0  0.083358  0.071296  0  1.008058  0
H  H12  1  0.52195258  0.49668445  0.95783571  1  0  0.076928  0  0.963838  0  0  0.090731  0  1.023417  0  0  0.092572  0  1.023318  0  0  0.09767  0.089814  0  1.022349  0
H  H13  1  0.23156737  0.83246772  0.75350162  1  0  0.108889  0  0.954829  0  0  0.128024  0  1.017514  0  0  0.130179  0  1.016246  0  0  0.088732  0.125666  0  1.01993  0
H  H14  1  0.43708509  0.79534447  0.89046608  1  0  0.081901  0  0.967569  0  0  0.103811  0  1.032866  0  0  0.104631  0  1.033379  0  0  0.08066  0.10328  0  1.032333  0
H  H15  1  0.22117442  0.99355122  0.87304529  1  0  0.08956  0  0.965642  0  0  0.110871  0  1.028895  0  0  0.111484  0  1.030757  0  0  0.080835  0.110344  0  1.027721  0
H  H16  1  0.45897731  0.50540453  0.29499066  1  0  0.079483  0  0.945467  0  0  0.097609  0  1.015947  0  0  0.099383  0  1.013788  0  0  0.09538  0.09627  0  1.017268  0
H  H17  1  0.46213077  0.33582558  0.42309936  1  0  0.105379  0  0.96083  0  0  0.122861  0  1.023051  0  0  0.123858  0  1.023625  0  0  0.106044  0.122056  0  1.022443  0
H  H18  1  0.55448773  0.29662927  0.22757620  1  0  0.086973  0  0.971178  0  0  0.107051  0  1.03672  0  0  0.1079  0  1.036387  0  0  0.099336  0.106243  0  1.037061  0
H  H19  1  0.19638749  0.41868259  0.16647278  1  0  0.086726  0  0.984329  0  0  0.107211  0  1.050824  0  0  0.107391  0  1.051793  0  0  0.100254  0.106903  0  1.050172  0
H  H20  1  0.87261702  0.54145138  0.14091290  1  0  0.080458  0  0.961541  0  0  0.09998  0  1.029751  0  0  0.100806  0  1.029546  0  0  0.095017  0.099593  0  1.029396  0
H  H21  1  0.98656445  0.33232206  0.08079815  1  0  0.093657  0  0.951958  0  0  0.112865  0  1.018211  0  0  0.113275  0  1.019486  0  0  0.101417  0.112693  0  1.016858  0
C  C22  1  0.78627124  0.38577402  0.58990680  1  0  0.108255  0  3.772966  0  0  0.123464  0  4.003214  0  0  0.126145  0  4.030119  0  0  -0.005489  0.121382  0  3.984693  0
C  C23  1  0.72917656  0.14773798  0.74340213  1  0  -0.027658  0  3.821979  0  0  -0.047101  0  4.065371  0  0  -0.045841  0  4.09064  0  0  -0.083689  -0.047294  0  4.047834  0
C  C24  1  0.62284041  0.24829482  0.87101933  1  0  -0.087209  0  3.777376  0  0  -0.101523  0  4.027854  0  0  -0.104934  0  4.049847  0  0  -0.098726  -0.099201  0  4.013046  0
C  C25  1  0.81304511  0.21584563  0.60338103  1  0  -0.358031  0  3.683897  0  0  -0.315923  0  3.943739  0  0  -0.333034  0  3.975558  0  0  -0.090422  -0.304433  0  3.922022  0
C  C26  1  0.86213572  0.46622148  0.43990404  1  0  -0.061117  0  3.657289  0  0  -0.119764  0  3.901401  0  0  -0.117162  0  3.914209  0  0  -0.05897  -0.121099  0  3.892213  0
C  C27  1  0.01961271  0.82937637  0.14756019  1  0  -0.05488  0  3.745072  0  0  -0.096834  0  4.00922  0  0  -0.095644  0  4.026502  0  0  -0.168533  -0.097781  0  3.997711  0
C  C28  1  0.68373756  0.48507598  0.71884244  1  0  -0.110052  0  3.713175  0  0  -0.127612  0  3.94972  0  0  -0.131589  0  3.971015  0  0  -0.0869  -0.124831  0  3.935485  0
C  C29  1  0.03425450  0.00127957  0.18142129  1  0  -0.470269  0  3.607073  0  0  -0.483078  0  3.870737  0  0  -0.498336  0  3.888912  0  0  -0.228494  -0.471742  0  3.858411  0
C  C30  1  0.00376795  0.81345445  0.98305932  1  0  -0.06593  0  3.690218  0  0  -0.098389  0  3.949594  0  0  -0.09923  0  3.965113  0  0  -0.168386  -0.097581  0  3.939064  0
C  C31  1  0.60339767  0.41689498  0.85878298  1  0  -0.061518  0  3.788927  0  0  -0.072555  0  4.033351  0  0  -0.072938  0  4.055467  0  0  -0.092477  -0.072276  0  4.017483  0
C  C32  1  0.23573092  0.86138333  0.86862646  1  0  -0.295201  0  3.71213  0  0  -0.369896  0  3.958379  0  0  -0.372801  0  3.970233  0  0  -0.252787  -0.367329  0  3.950682  0
C  C33  1  0.56564180  0.37688196  0.31527727  1  0  -0.206527  0  3.714023  0  0  -0.302891  0  3.970186  0  0  -0.301007  0  3.980479  0  0  -0.148971  -0.303541  0  3.96204  0
C  C34  1  0.98501151  0.41719522  0.16827362  1  0  -0.175194  0  3.6725  0  0  -0.274173  0  3.926509  0  0  -0.272068  0  3.93859  0  0  -0.144526  -0.274921  0  3.917055  0
N  N35  1  0.85316898  0.36516695  0.31547017  1  0  -0.17186  0  3.327605  0  0  -0.065908  0  3.558022  0  0  -0.083929  0  3.583937  0  0  -0.331265  -0.053088  0  3.539458  0
F  F36  1  0.40683422  0.05859496  0.39332738  1  0  -0.598253  0  0.769849  0  0  -0.525135  0  0.946089  0  0  -0.544421  0  0.925864  0  0  -0.31369  -0.51179  0  0.96022  0
F  F37  1  0.03157255  0.84073573  0.50997095  1  0  -0.589312  0  0.717576  0  0  -0.523195  0  0.877236  0  0  -0.54123  0  0.857308  0  0  -0.335768  -0.51001  0  0.891906  0
