# generated using pymatgen
data_Cu3H12C12(N7O4)2
_symmetry_space_group_name_H-M   'P 1'
_cell_length_a   6.43478582
_cell_length_b   8.80029996
_cell_length_c   10.65782894
_cell_angle_alpha   108.67875349
_cell_angle_beta   93.92266132
_cell_angle_gamma   109.03893545
_symmetry_Int_Tables_number   1
_chemical_formula_structural   Cu3H12C12(N7O4)2
_chemical_formula_sum   'Cu3 H12 C12 N14 O8'
_cell_volume   530.30007108
_cell_formula_units_Z   1
loop_
 _symmetry_equiv_pos_site_id
 _symmetry_equiv_pos_as_xyz
  1  'x, y, z'
loop_
 _atom_site_type_symbol
 _atom_site_label
 _atom_site_symmetry_multiplicity
 _atom_site_fract_x
 _atom_site_fract_y
 _atom_site_fract_z
 _atom_site_occupancy
 _atom_site_hle17_ddec_charge
 _atom_site_hle17_ddec_spin_density
 _atom_site_hle17_ddec_sum_bond_order
 _atom_site_hle17_magmom
 _atom_site_hse06_10hf_ddec_charge
 _atom_site_hse06_10hf_ddec_spin_density
 _atom_site_hse06_10hf_ddec_sum_bond_order
 _atom_site_hse06_10hf_magmom
 _atom_site_hse06_ddec_charge
 _atom_site_hse06_ddec_spin_density
 _atom_site_hse06_ddec_sum_bond_order
 _atom_site_hse06_magmom
 _atom_site_pbe_cm5_charge
 _atom_site_pbe_ddec_charge
 _atom_site_pbe_ddec_spin_density
 _atom_site_pbe_ddec_sum_bond_order
 _atom_site_pbe_magmom
Cu  Cu0  1  0.50049006  0.50078939  0.49990304  1  0.948575  -0.645707  1.750222  -0.455  0.968824  -0.763938  2.137329  -0.598  1.05748  -0.852696  2.072757  -0.695  0.733374  0.915609  -0.69548  2.184936  -0.53
Cu  Cu1  1  0.42749379  0.80298171  0.45505860  1  0.857314  0.584102  1.89349  0.392  0.872798  0.738478  2.314559  0.559  0.972149  0.853371  2.231094  0.664  0.747156  0.816818  0.642231  2.368287  0.48
Cu  Cu2  1  0.57216720  0.19658640  0.54512043  1  0.858769  -0.562065  1.892709  -0.395  0.874463  -0.71751  2.314006  -0.56  0.973472  -0.813586  2.230679  -0.66  0.748492  0.819099  -0.641254  2.367632  -0.488
H  H3  1  0.25571275  0.60033967  0.03010819  1  0.122197  -6.8e-05  0.946097  0.0  0.129074  -6.6e-05  1.008549  0.0  0.132506  -5.3e-05  1.007232  0.0  0.114822  0.12661  -6.1e-05  1.009508  0.0
H  H4  1  0.74450010  0.39974084  0.96946135  1  0.122243  8e-06  0.946956  0.0  0.12927  -2.1e-05  1.009316  0.0  0.132776  -1.3e-05  1.007862  0.0  0.114902  0.126783  -5.3e-05  1.010311  0.0
H  H5  1  0.10089000  0.41947620  0.78385126  1  0.120387  0.000148  0.940062  0.0  0.126758  0.000111  1.005095  0.0  0.130019  0.000118  1.002303  0.0  0.130642  0.124047  2.7e-05  1.007818  0.0
H  H6  1  0.89929926  0.58040945  0.21587292  1  0.12034  -0.000849  0.939885  0.0  0.126556  -0.000781  1.00526  0.0  0.129906  -0.000625  1.002454  0.0  0.130693  0.123816  -0.000945  1.007914  0.0
H  H7  1  0.12550828  0.98016460  0.84097258  1  0.11698  0.000454  0.9391  0.0  0.122989  0.000441  1.005558  0.0  0.126647  0.000346  1.002042  0.0  0.130909  0.120361  0.000472  1.008148  0.0
H  H8  1  0.87460682  0.01985379  0.15915515  1  0.116633  -0.000802  0.938931  0.0  0.122797  -0.000836  1.005388  0.0  0.126483  -0.000663  1.001891  0.0  0.130984  0.120103  -0.000953  1.007983  0.0
H  H9  1  0.28031464  0.14334680  0.08982376  1  0.121865  -0.000737  0.97222  0.0  0.125827  -0.000595  1.040259  0.0  0.129865  -0.000447  1.037498  0.0  0.112738  0.12308  -0.000653  1.042041  0.0
H  H10  1  0.72002721  0.85701746  0.91023574  1  0.122479  0.000437  0.972128  0.0  0.126378  0.000327  1.040261  0.0  0.130376  0.00028  1.037598  0.0  0.113  0.123703  0.000294  1.041903  0.0
H  H11  1  0.86285832  0.88031225  0.58439235  1  0.420486  -4.6e-05  0.876462  0.0  0.397144  -3.9e-05  0.92925  0.0  0.409336  -3.6e-05  0.911667  0.0  0.289457  0.389103  -3.9e-05  0.940823  0.0
H  H12  1  0.13718741  0.11925163  0.41571878  1  0.420137  -4e-05  0.876403  0.0  0.396483  -1.4e-05  0.930236  0.0  0.408714  -1e-05  0.912595  0.0  0.289018  0.388391  -2.5e-05  0.941882  0.0
H  H13  1  0.85173735  0.81069067  0.42897067  1  0.413111  -2.2e-05  0.895013  0.0  0.385212  -5.4e-05  0.956024  0.0  0.39725  -5.1e-05  0.938728  0.0  0.282857  0.377443  -5.3e-05  0.967235  0.0
H  H14  1  0.14805391  0.18886143  0.57103338  1  0.411437  1.8e-05  0.897498  0.0  0.383793  7.2e-05  0.958068  0.0  0.395749  5.9e-05  0.940892  0.0  0.282319  0.376077  7.8e-05  0.969191  0.0
C  C15  1  0.34878746  0.48506220  0.22898169  1  0.649219  0.000328  3.884539  0.0  0.609372  -0.000339  4.175898  -0.001  0.649881  -0.000249  4.167488  -0.001  0.218195  0.58274  -0.000426  4.179751  0.0
C  C16  1  0.65169843  0.51543661  0.77082983  1  0.649538  0.005148  3.8832  0.009  0.610425  -0.000505  4.174436  0.003  0.650952  0.000285  4.166025  0.003  0.218929  0.583909  -0.001282  4.178225  0.003
C  C17  1  0.27087307  0.38407204  0.08097189  1  -0.037888  -0.001402  3.737786  -0.002  -0.023328  -9e-05  3.967019  0.0  -0.027246  0.000104  3.984738  0.0  -0.007111  -0.020494  -0.000371  3.954666  0.0
C  C18  1  0.72941493  0.61619616  0.91887870  1  -0.035337  -0.014248  3.735934  -0.015  -0.022391  -0.009657  3.96697  -0.011  -0.026431  -0.007499  3.984931  -0.009  -0.006722  -0.01973  -0.010955  3.95462  -0.012
C  C19  1  0.22668400  0.46329451  0.99289109  1  -0.089981  -0.000711  3.743634  -0.001  -0.109001  -0.000749  3.990314  -0.001  -0.111371  -0.000549  4.009487  -0.001  -0.07027  -0.107486  -0.000957  3.977386  -0.001
C  C20  1  0.77346235  0.53677948  0.00684272  1  -0.091493  0.002151  3.743128  0.002  -0.110533  0.000168  3.990081  0.0  -0.1129  0.000492  4.009312  0.001  -0.070767  -0.109003  -8.9e-05  3.977141  0.0
C  C21  1  0.14470771  0.36783848  0.85731674  1  0.006481  -0.000915  3.575172  -0.001  -0.035736  -0.000542  3.839924  0.0  -0.031058  -0.000338  3.852728  0.0  0.037793  -0.038789  -0.000608  3.831723  -0.001
C  C22  1  0.85535960  0.63208172  0.14245447  1  0.007153  -0.002776  3.575477  -0.003  -0.034688  -0.001147  3.840181  -0.001  -0.030041  -0.001125  3.852843  -0.001  0.037873  -0.037846  -0.001109  3.83217  -0.001
C  C23  1  0.15606151  0.11666281  0.89031375  1  0.003497  0.000449  3.587279  0.0  -0.03766  0.000552  3.85003  0.001  -0.032505  0.00043  3.86254  0.0  0.040786  -0.040637  0.000737  3.841486  0.001
C  C24  1  0.84402176  0.88338471  0.10971618  1  0.003839  -0.002545  3.587553  -0.003  -0.037236  -0.001042  3.850446  -0.001  -0.032021  -0.001062  3.862855  -0.001  0.040598  -0.040328  -0.001201  3.842181  -0.001
C  C25  1  0.23926328  0.20910877  0.02653031  1  -0.079857  0.00084  3.713016  0.001  -0.097258  0.000432  3.95599  0.001  -0.099249  0.000319  3.973576  0.0  -0.065002  -0.096453  0.000639  3.944316  0.001
C  C26  1  0.76101042  0.79114478  0.97346402  1  -0.080637  0.002465  3.712736  0.002  -0.09824  0.000264  3.956776  0.0  -0.100281  0.000564  3.974436  0.001  -0.065244  -0.09728  7.7e-05  3.944813  0.0
N  N27  1  0.27588855  0.62010770  0.52562375  1  -0.545952  -0.001127  2.885278  -0.003  -0.603318  0.001571  3.280755  0.002  -0.662482  0.001515  3.294941  0.001  -0.362737  -0.569463  9.6e-05  3.275041  0.0
N  N28  1  0.72083289  0.37868422  0.47358737  1  -0.537138  -0.119152  2.883221  -0.145  -0.600134  -0.071328  3.28382  -0.093  -0.660325  -0.048934  3.298641  -0.07  -0.362367  -0.565685  -0.082507  3.277524  -0.102
N  N29  1  0.21285220  0.65511754  0.63259368  1  0.410672  0.003754  4.116718  0.005  0.460849  0.001293  4.424178  0.002  0.484816  0.001333  4.457536  0.001  0.09876  0.445828  0.000955  4.402801  0.001
N  N30  1  0.78633322  0.34470685  0.36736525  1  0.411723  0.043248  4.103465  0.063  0.46243  0.006215  4.416907  0.017  0.486474  0.011395  4.450997  0.023  0.101266  0.447511  0.000237  4.394627  0.011
N  N31  1  0.14647859  0.68430664  0.73269526  1  -0.270297  -0.007661  2.339184  -0.01  -0.285877  0.000172  2.560669  -0.001  -0.295679  0.001623  2.571906  0.001  -0.130896  -0.281001  -0.002348  2.553803  -0.003
N  N32  1  0.85444807  0.31618193  0.26787863  1  -0.260691  -0.17307  2.3307  -0.192  -0.281812  -0.093747  2.556391  -0.109  -0.292745  -0.079779  2.568351  -0.098  -0.126856  -0.275707  -0.102064  2.548763  -0.114
N  N33  1  0.46488584  0.00336442  0.61989809  1  -0.54229  0.0196  2.889343  0.022  -0.594931  0.005742  3.294103  0.006  -0.653367  0.003575  3.306797  0.003  -0.363747  -0.562196  0.006924  3.288845  0.008
N  N34  1  0.53524887  0.99618191  0.38056879  1  -0.543817  -0.015096  2.892777  -0.02  -0.594557  -0.00385  3.295958  -0.006  -0.65298  -0.001189  3.308493  -0.003  -0.364109  -0.561789  -0.006192  3.290878  -0.008
N  N35  1  0.54603375  0.02559961  0.73378492  1  0.406878  -0.003913  4.108096  -0.007  0.450137  0.001148  4.422466  0.001  0.472314  0.001123  4.46007  0.001  0.099424  0.436409  0.001186  4.397277  0.001
N  N36  1  0.45407259  0.97428252  0.26675948  1  0.407222  0.003957  4.110858  0.006  0.450408  -0.000935  4.423695  -0.001  0.472656  -0.000807  4.461188  -0.001  0.099851  0.436586  -0.001048  4.398641  -0.001
N  N37  1  0.61853828  0.05100799  0.84438374  1  -0.274094  0.021268  2.352084  0.021  -0.289018  0.004393  2.582131  0.004  -0.300116  0.003422  2.595209  0.003  -0.126377  -0.281246  0.004856  2.572451  0.005
N  N38  1  0.38167268  0.94941098  0.15627852  1  -0.274208  -0.015886  2.353799  -0.019  -0.288187  -0.002754  2.583075  -0.004  -0.299259  -0.001493  2.596002  -0.003  -0.125798  -0.280259  -0.004326  2.573455  -0.005
N  N39  1  0.10578025  0.19546312  0.80758880  1  0.288124  2.3e-05  3.720539  0.0  0.336078  -0.000138  3.986741  0.0  0.337859  -0.000135  4.009359  0.0  -0.105495  0.334344  -5.1e-05  3.971832  0.0
N  N40  1  0.89409494  0.80440751  0.19235045  1  0.287707  0.002263  3.721657  0.003  0.335335  0.000728  3.987961  0.001  0.337133  0.000875  4.010566  0.001  -0.106038  0.333563  0.000761  3.97316  0.001
O  O41  1  0.77527344  0.78112187  0.50130811  1  -0.865798  -0.000138  1.913221  0.0  -0.834271  0.000169  2.108898  0.0  -0.859855  0.000114  2.067956  0.0  -0.599527  -0.817499  0.000219  2.13603  0.0
O  O42  1  0.22481038  0.21840540  0.49879965  1  -0.864578  0.002956  1.91229  0.001  -0.833037  0.002294  2.107633  0.001  -0.858611  0.002548  2.066879  0.002  -0.59926  -0.816109  0.001795  2.134595  0.001
O  O43  1  0.34913753  0.63813402  0.26842045  1  -0.594124  0.056384  2.133429  0.069  -0.556341  0.047877  2.416621  0.067  -0.596784  0.040388  2.406641  0.059  -0.317098  -0.529955  0.050365  2.423087  0.068
O  O44  1  0.65078842  0.36218010  0.73139281  1  -0.594987  -0.052249  2.132058  -0.069  -0.557055  -0.045715  2.414767  -0.067  -0.597441  -0.036994  2.404731  -0.058  -0.31774  -0.531  -0.049664  2.421485  -0.07
O  O45  1  0.40827835  0.41084205  0.30150126  1  -0.588834  -0.065508  2.114882  -0.085  -0.552314  -0.048667  2.387553  -0.069  -0.592447  -0.039048  2.380571  -0.059  -0.309491  -0.52552  -0.053896  2.39115  -0.074
O  O46  1  0.59283103  0.58993290  0.69833367  1  -0.588254  -0.064895  2.112888  -0.085  -0.55299  -0.047957  2.385539  -0.069  -0.593299  -0.037515  2.378634  -0.057  -0.310391  -0.526265  -0.054074  2.389056  -0.075
O  O47  1  0.01766626  0.10614637  0.67953228  1  -0.532074  0.000528  1.819505  0.0  -0.486809  0.000321  2.039999  0.0  -0.513187  0.000282  2.039531  0.0  -0.215946  -0.470144  0.000467  2.041063  0.0
O  O48  1  0.98185087  0.89351688  0.32048276  1  -0.532677  0.001101  1.820267  0.001  -0.486678  0.00025  2.040522  0.001  -0.513133  0.000334  2.040087  0.001  -0.21585  -0.47005  0.000269  2.041608  0.001
