# generated using pymatgen
data_NdH9C10NO7
_symmetry_space_group_name_H-M   'P 1'
_cell_length_a   8.80993397
_cell_length_b   9.20933527
_cell_length_c   15.66748445
_cell_angle_alpha   89.99996566
_cell_angle_beta   90.00008670
_cell_angle_gamma   98.99156524
_symmetry_Int_Tables_number   1
_chemical_formula_structural   NdH9C10NO7
_chemical_formula_sum   'Nd4 H36 C40 N4 O28'
_cell_volume   1255.53914555
_cell_formula_units_Z   4
loop_
 _symmetry_equiv_pos_site_id
 _symmetry_equiv_pos_as_xyz
  1  'x, y, z'
loop_
 _atom_site_type_symbol
 _atom_site_label
 _atom_site_symmetry_multiplicity
 _atom_site_fract_x
 _atom_site_fract_y
 _atom_site_fract_z
 _atom_site_occupancy
 _atom_site_hle17_bader_spin_density
 _atom_site_hle17_ddec_charge
 _atom_site_hle17_ddec_spin_density
 _atom_site_hle17_ddec_sum_bond_order
 _atom_site_hle17_magmom
 _atom_site_hse06_10hf_bader_spin_density
 _atom_site_hse06_10hf_ddec_charge
 _atom_site_hse06_10hf_ddec_spin_density
 _atom_site_hse06_10hf_ddec_sum_bond_order
 _atom_site_hse06_10hf_magmom
 _atom_site_hse06_bader_spin_density
 _atom_site_hse06_ddec_charge
 _atom_site_hse06_ddec_spin_density
 _atom_site_hse06_ddec_sum_bond_order
 _atom_site_hse06_magmom
 _atom_site_pbe_bader_spin_density
 _atom_site_pbe_cm5_charge
 _atom_site_pbe_ddec_charge
 _atom_site_pbe_ddec_spin_density
 _atom_site_pbe_ddec_sum_bond_order
 _atom_site_pbe_magmom
Nd  Nd0  1  0.96870824  0.39519238  0.11466648  1  0  2.276829  0  1.630796  0  0  2.098499  0  2.106894  0  0  2.201392  0  1.953562  0  0  1.48035  2.064042  0  2.142992  0
Nd  Nd1  1  0.53129130  0.60480657  0.61466676  1  0  2.276799  0  1.630834  0  0  2.098488  0  2.106951  0  0  2.201392  0  1.953597  0  0  1.480364  2.064032  0  2.143051  0
Nd  Nd2  1  0.03129197  0.60480664  0.88533348  1  0  2.276844  0  1.630816  0  0  2.098479  0  2.106967  0  0  2.201404  0  1.953582  0  0  1.480344  2.064022  0  2.14306  0
Nd  Nd3  1  0.46870777  0.39519245  0.38533257  1  0  2.276817  0  1.630841  0  0  2.09848  0  2.106963  0  0  2.201386  0  1.953609  0  0  1.480367  2.064034  0  2.143057  0
H  H4  1  0.49131958  0.69908213  0.09902811  1  0  0.098944  0  0.957623  0  0  0.113658  0  1.018877  0  0  0.114911  0  1.019501  0  0  0.097986  0.112854  0  1.018206  0
H  H5  1  0.00868055  0.30091715  0.59902783  1  0  0.098886  0  0.957654  0  0  0.113595  0  1.018927  0  0  0.114851  0  1.01955  0  0  0.09795  0.112794  0  1.01825  0
H  H6  1  0.50867983  0.30091908  0.90097186  1  0  0.098915  0  0.957621  0  0  0.113626  0  1.018886  0  0  0.114883  0  1.01951  0  0  0.097978  0.112826  0  1.018213  0
H  H7  1  0.99131852  0.69908187  0.40097150  1  0  0.098927  0  0.957631  0  0  0.113635  0  1.018891  0  0  0.114891  0  1.019513  0  0  0.097971  0.112833  0  1.018221  0
H  H8  1  0.39788901  0.77370620  0.01155326  1  0  0.10909  0  0.922533  0  0  0.123054  0  0.979623  0  0  0.125328  0  0.978835  0  0  0.104213  0.121725  0  0.979538  0
H  H9  1  0.10211124  0.22629533  0.51155309  1  0  0.10908  0  0.922541  0  0  0.123042  0  0.979636  0  0  0.125316  0  0.97885  0  0  0.104214  0.121713  0  0.979549  0
H  H10  1  0.60211057  0.22629611  0.98844671  1  0  0.109093  0  0.922516  0  0  0.123054  0  0.97961  0  0  0.12533  0  0.978824  0  0  0.104215  0.121728  0  0.979523  0
H  H11  1  0.89788800  0.77370478  0.48844688  1  0  0.109096  0  0.922527  0  0  0.123053  0  0.97962  0  0  0.125326  0  0.978833  0  0  0.104208  0.121724  0  0.979534  0
H  H12  1  0.41161065  0.55349261  0.92491435  1  0  0.072018  0  0.973308  0  0  0.088342  0  1.038345  0  0  0.089335  0  1.039538  0  0  0.096466  0.086997  0  1.038536  0
H  H13  1  0.08838954  0.44650865  0.42491437  1  0  0.072039  0  0.9733  0  0  0.088337  0  1.038367  0  0  0.08933  0  1.03956  0  0  0.096464  0.087002  0  1.03855  0
H  H14  1  0.58838894  0.44650970  0.07508561  1  0  0.072029  0  0.973297  0  0  0.088332  0  1.038365  0  0  0.089325  0  1.039558  0  0  0.096465  0.086999  0  1.038541  0
H  H15  1  0.91161084  0.55349147  0.57508559  1  0  0.072043  0  0.973295  0  0  0.088351  0  1.038347  0  0  0.089344  0  1.03954  0  0  0.096467  0.087002  0  1.03854  0
H  H16  1  0.59633281  0.63571467  0.95813098  1  0  0.07728  0  0.942423  0  0  0.097244  0  0.997545  0  0  0.098343  0  0.998045  0  0  0.097063  0.096364  0  0.997225  0
H  H17  1  0.90366569  0.36428625  0.45813066  1  0  0.077229  0  0.942422  0  0  0.097172  0  0.997573  0  0  0.098272  0  0.998073  0  0  0.097034  0.096297  0  0.997252  0
H  H18  1  0.40366678  0.36428765  0.04186899  1  0  0.077232  0  0.94245  0  0  0.097178  0  0.997601  0  0  0.098276  0  0.998102  0  0  0.097053  0.096303  0  0.997279  0
H  H19  1  0.09633372  0.63571497  0.54186930  1  0  0.077228  0  0.942424  0  0  0.09717  0  0.997582  0  0  0.098269  0  0.998083  0  0  0.097033  0.096292  0  0.997259  0
H  H20  1  0.70508637  0.73151556  0.21587784  1  0  0.126177  0  0.940634  0  0  0.134315  0  1.000432  0  0  0.13855  0  0.996344  0  0  0.119759  0.131  0  1.003808  0
H  H21  1  0.79491246  0.26848441  0.71587654  1  0  0.126197  0  0.94063  0  0  0.134336  0  1.000424  0  0  0.138571  0  0.996336  0  0  0.119773  0.131023  0  1.0038  0
H  H22  1  0.29491401  0.26848456  0.78412340  1  0  0.126208  0  0.940611  0  0  0.134346  0  1.000406  0  0  0.138582  0  0.996316  0  0  0.119777  0.131031  0  1.003781  0
H  H23  1  0.20508678  0.73151570  0.28412215  1  0  0.126182  0  0.94062  0  0  0.134323  0  1.000413  0  0  0.138557  0  0.996325  0  0  0.119769  0.13101  0  1.003789  0
H  H24  1  0.89536829  0.02466145  0.01502895  1  0  0.087154  0  0.947818  0  0  0.092905  0  1.015162  0  0  0.096529  0  1.011052  0  0  0.123371  0.090215  0  1.018061  0
H  H25  1  0.60463099  0.97533756  0.51502788  1  0  0.087114  0  0.947824  0  0  0.092873  0  1.015167  0  0  0.096497  0  1.011056  0  0  0.123346  0.090181  0  1.018067  0
H  H26  1  0.10463305  0.97533758  0.98497165  1  0  0.087143  0  0.947801  0  0  0.092907  0  1.015136  0  0  0.096531  0  1.011025  0  0  0.123368  0.090216  0  1.018035  0
H  H27  1  0.39536922  0.02466146  0.48497144  1  0  0.08716  0  0.947809  0  0  0.092913  0  1.015152  0  0  0.096537  0  1.011042  0  0  0.123376  0.090222  0  1.018048  0
H  H28  1  0.61371998  0.95036498  0.28619473  1  0  0.122283  0  0.931696  0  0  0.131096  0  0.988594  0  0  0.134799  0  0.98747  0  0  0.11572  0.12847  0  0.989333  0
H  H29  1  0.88628000  0.04963385  0.78619359  1  0  0.122299  0  0.931678  0  0  0.131108  0  0.988583  0  0  0.13481  0  0.987458  0  0  0.115721  0.128483  0  0.98932  0
H  H30  1  0.38628136  0.04963404  0.71380651  1  0  0.122318  0  0.931723  0  0  0.131132  0  0.988618  0  0  0.134834  0  0.987494  0  0  0.115725  0.128509  0  0.989358  0
H  H31  1  0.11372021  0.95036517  0.21380574  1  0  0.122266  0  0.931733  0  0  0.131085  0  0.988628  0  0  0.134787  0  0.987505  0  0  0.115719  0.128464  0  0.989364  0
H  H32  1  0.91603247  0.51532242  0.29402197  1  0  0.440052  0  0.854988  0  0  0.40966  0  0.917442  0  0  0.420835  0  0.90135  0  0  0.299129  0.401804  0  0.928853  0
H  H33  1  0.58396674  0.48467860  0.79402169  1  0  0.440045  0  0.854999  0  0  0.409656  0  0.917445  0  0  0.420831  0  0.901354  0  0  0.299131  0.401798  0  0.928861  0
H  H34  1  0.08396694  0.48467879  0.70597799  1  0  0.440057  0  0.85498  0  0  0.409665  0  0.917433  0  0  0.420841  0  0.901341  0  0  0.299135  0.401809  0  0.928844  0
H  H35  1  0.41603398  0.51532372  0.20597827  1  0  0.440044  0  0.855005  0  0  0.409657  0  0.917448  0  0  0.420833  0  0.901357  0  0  0.299124  0.401801  0  0.92886  0
H  H36  1  0.08860522  0.47715344  0.28413363  1  0  0.429146  0  0.873883  0  0  0.399198  0  0.936794  0  0  0.41012  0  0.920855  0  0  0.299933  0.390926  0  0.949174  0
H  H37  1  0.41139460  0.52284791  0.78413426  1  0  0.429141  0  0.873889  0  0  0.399184  0  0.936817  0  0  0.410107  0  0.920875  0  0  0.29993  0.390918  0  0.949184  0
H  H38  1  0.91139533  0.52284778  0.71586633  1  0  0.429124  0  0.873915  0  0  0.399188  0  0.936813  0  0  0.410111  0  0.920872  0  0  0.299933  0.390919  0  0.949186  0
H  H39  1  0.58860481  0.47715330  0.21586571  1  0  0.429143  0  0.873886  0  0  0.399188  0  0.936812  0  0  0.41011  0  0.92087  0  0  0.299929  0.390919  0  0.949183  0
C  C40  1  0.26347523  0.59161930  0.07386317  1  0  0.744263  0  3.806372  0  0  0.703069  0  4.093301  0  0  0.73642  0  4.089988  0  0  0.22391  0.680108  0  4.099121  0
C  C41  1  0.23652615  0.40838110  0.57386241  1  0  0.744224  0  3.806386  0  0  0.703027  0  4.093327  0  0  0.736376  0  4.090022  0  0  0.223906  0.680059  0  4.099156  0
C  C42  1  0.73652515  0.40838082  0.92613615  1  0  0.744273  0  3.806378  0  0  0.703064  0  4.093329  0  0  0.73642  0  4.090018  0  0  0.223922  0.680097  0  4.099161  0
C  C43  1  0.76347406  0.59161792  0.42613627  1  0  0.744219  0  3.806357  0  0  0.703024  0  4.093283  0  0  0.736379  0  4.089965  0  0  0.223909  0.680061  0  4.099105  0
C  C44  1  0.41556234  0.67183682  0.04386351  1  0  -0.266404  0  3.661897  0  0  -0.30413  0  3.910944  0  0  -0.30968  0  3.918441  0  0  -0.160366  -0.300317  0  3.905356  0
C  C45  1  0.08443896  0.32816360  0.54386393  1  0  -0.266308  0  3.661865  0  0  -0.304044  0  3.910919  0  0  -0.309601  0  3.918426  0  0  -0.160346  -0.300231  0  3.905329  0
C  C46  1  0.58443839  0.32816550  0.95613645  1  0  -0.266354  0  3.661842  0  0  -0.304085  0  3.910917  0  0  -0.309651  0  3.918428  0  0  -0.160353  -0.300286  0  3.905341  0
C  C47  1  0.91555897  0.67183540  0.45613540  1  0  -0.266389  0  3.661928  0  0  -0.304105  0  3.910954  0  0  -0.309661  0  3.918455  0  0  -0.160345  -0.300295  0  3.905367  0
C  C48  1  0.48720120  0.57337530  0.98077083  1  0  -0.08969  0  3.642223  0  0  -0.129311  0  3.900806  0  0  -0.13053  0  3.914482  0  0  -0.162218  -0.12822  0  3.891172  0
C  C49  1  0.01280009  0.42662484  0.48077143  1  0  -0.089639  0  3.642173  0  0  -0.129213  0  3.900721  0  0  -0.130431  0  3.914406  0  0  -0.162155  -0.12813  0  3.891083  0
C  C50  1  0.51279935  0.42662592  0.01922914  1  0  -0.089619  0  3.642162  0  0  -0.12922  0  3.900767  0  0  -0.130437  0  3.914454  0  0  -0.162195  -0.128135  0  3.891126  0
C  C51  1  0.98720029  0.57337528  0.51922854  1  0  -0.08963  0  3.642183  0  0  -0.129219  0  3.900723  0  0  -0.130437  0  3.914404  0  0  -0.162157  -0.128126  0  3.891085  0
C  C52  1  0.85389862  0.73253732  0.06287504  1  0  0.703386  0  3.884574  0  0  0.655467  0  4.179857  0  0  0.69058  0  4.173814  0  0  0.233003  0.631862  0  4.185358  0
C  C53  1  0.64609982  0.26746275  0.56287425  1  0  0.703391  0  3.88437  0  0  0.655415  0  4.179733  0  0  0.690528  0  4.17369  0  0  0.232941  0.631821  0  4.18522  0
C  C54  1  0.14610045  0.26746170  0.93712557  1  0  0.703447  0  3.884531  0  0  0.655523  0  4.179812  0  0  0.690638  0  4.173767  0  0  0.233004  0.631927  0  4.185301  0
C  C55  1  0.35390056  0.73253737  0.43712508  1  0  0.70349  0  3.884408  0  0  0.655529  0  4.179747  0  0  0.690642  0  4.173703  0  0  0.233046  0.631937  0  4.18523  0
C  C56  1  0.80365769  0.86108334  0.10870813  1  0  -0.104611  0  3.687218  0  0  -0.080396  0  3.922781  0  0  -0.090955  0  3.943036  0  0  -0.002608  -0.073387  0  3.907885  0
C  C57  1  0.69634201  0.13891670  0.60870680  1  0  -0.104633  0  3.687202  0  0  -0.080401  0  3.922781  0  0  -0.09096  0  3.943039  0  0  -0.002619  -0.073388  0  3.907883  0
C  C58  1  0.19634139  0.13891567  0.89129311  1  0  -0.104604  0  3.687227  0  0  -0.08039  0  3.922804  0  0  -0.09095  0  3.943061  0  0  -0.002609  -0.073379  0  3.907902  0
C  C59  1  0.30365837  0.86108342  0.39129253  1  0  -0.104666  0  3.687191  0  0  -0.080441  0  3.922773  0  0  -0.090999  0  3.943028  0  0  -0.002629  -0.073424  0  3.907863  0
C  C60  1  0.72779853  0.84076730  0.18740293  1  0  -0.001967  0  3.656912  0  0  -0.029428  0  3.90479  0  0  -0.024016  0  3.918966  0  0  -0.052714  -0.032718  0  3.894996  0
C  C61  1  0.77220024  0.15923269  0.68740165  1  0  -0.001917  0  3.65691  0  0  -0.029381  0  3.904781  0  0  -0.023969  0  3.918959  0  0  -0.052676  -0.032677  0  3.894993  0
C  C62  1  0.27220054  0.15923171  0.81259767  1  0  -0.001983  0  3.656901  0  0  -0.029443  0  3.904781  0  0  -0.024031  0  3.918957  0  0  -0.052723  -0.032729  0  3.894984  0
C  C63  1  0.22779901  0.84076742  0.31259704  1  0  -0.001966  0  3.656912  0  0  -0.029424  0  3.904787  0  0  -0.024012  0  3.918961  0  0  -0.052722  -0.032718  0  3.894996  0
C  C64  1  0.66388466  0.23352427  0.22642332  1  0  0.662898  0  3.8853  0  0  0.615938  0  4.174839  0  0  0.650031  0  4.168198  0  0  0.237205  0.592621  0  4.181646  0
C  C65  1  0.83611614  0.76647351  0.72642252  1  0  0.662778  0  3.885417  0  0  0.615964  0  4.174774  0  0  0.650055  0  4.16814  0  0  0.237155  0.592635  0  4.181599  0
C  C66  1  0.33611652  0.76647366  0.77357665  1  0  0.662952  0  3.885204  0  0  0.615966  0  4.174774  0  0  0.65006  0  4.168136  0  0  0.237246  0.592632  0  4.18161  0
C  C67  1  0.16388390  0.23352441  0.27357681  1  0  0.662894  0  3.885271  0  0  0.615956  0  4.174779  0  0  0.650048  0  4.16814  0  0  0.237193  0.592627  0  4.181607  0
C  C68  1  0.83439025  0.00364894  0.07527153  1  0  0.148453  0  3.676652  0  0  0.109016  0  3.937001  0  0  0.117205  0  3.95293  0  0  0.066833  0.10435  0  3.926759  0
C  C69  1  0.66560919  0.99635003  0.57527050  1  0  0.148507  0  3.676612  0  0  0.109056  0  3.93696  0  0  0.117244  0  3.952892  0  0  0.066868  0.104386  0  3.926725  0
C  C70  1  0.16560882  0.99635008  0.92472907  1  0  0.14847  0  3.676602  0  0  0.109019  0  3.936952  0  0  0.117209  0  3.952882  0  0  0.066854  0.104347  0  3.926716  0
C  C71  1  0.33439119  0.00365009  0.42472755  1  0  0.148495  0  3.67668  0  0  0.109059  0  3.937021  0  0  0.117248  0  3.952952  0  0  0.066854  0.104394  0  3.926774  0
C  C72  1  0.71398330  0.09852512  0.18840449  1  0  0.106302  0  3.757362  0  0  0.108812  0  4.00126  0  0  0.110722  0  4.021224  0  0  0.119061  0.107151  0  3.989453  0
C  C73  1  0.78601660  0.90147488  0.68840360  1  0  0.106309  0  3.757347  0  0  0.10879  0  4.001217  0  0  0.1107  0  4.021182  0  0  0.119058  0.107132  0  3.989409  0
C  C74  1  0.28601708  0.90147500  0.81159611  1  0  0.106299  0  3.757281  0  0  0.108816  0  4.001188  0  0  0.110726  0  4.021154  0  0  0.119049  0.107159  0  3.989384  0
C  C75  1  0.21398264  0.09852523  0.31159509  1  0  0.106316  0  3.757391  0  0  0.108822  0  4.00128  0  0  0.110735  0  4.021244  0  0  0.119077  0.107171  0  3.989475  0
C  C76  1  0.67827656  0.96067685  0.22664084  1  0  -0.103412  0  3.682892  0  0  -0.12214  0  3.927853  0  0  -0.127637  0  3.946769  0  0  -0.068336  -0.118099  0  3.914597  0
C  C77  1  0.82172345  0.03932312  0.72663901  1  0  -0.103458  0  3.682894  0  0  -0.122177  0  3.927855  0  0  -0.127674  0  3.946772  0  0  -0.06835  -0.118136  0  3.914598  0
C  C78  1  0.32172479  0.03932218  0.77335976  1  0  -0.103464  0  3.682972  0  0  -0.122195  0  3.927935  0  0  -0.127691  0  3.946851  0  0  -0.068332  -0.118162  0  3.914688  0
C  C79  1  0.17827693  0.96067700  0.27335904  1  0  -0.103385  0  3.682963  0  0  -0.122122  0  3.927935  0  0  -0.127618  0  3.946849  0  0  -0.068325  -0.118085  0  3.914681  0
N  N80  1  0.79525878  0.12081718  0.11521281  1  0  -0.408511  0  3.225682  0  0  -0.362881  0  3.497812  0  0  -0.381058  0  3.515122  0  0  -0.356488  -0.354161  0  3.486999  0
N  N81  1  0.70474093  0.87918287  0.61521186  1  0  -0.408581  0  3.225732  0  0  -0.362941  0  3.497868  0  0  -0.38112  0  3.515178  0  0  -0.35654  -0.354223  0  3.487056  0
N  N82  1  0.20474273  0.87918295  0.88478779  1  0  -0.408553  0  3.225702  0  0  -0.362915  0  3.497836  0  0  -0.381097  0  3.515146  0  0  -0.356533  -0.354192  0  3.487018  0
N  N83  1  0.29525945  0.12081725  0.38478747  1  0  -0.408577  0  3.225768  0  0  -0.362947  0  3.497901  0  0  -0.381127  0  3.515211  0  0  -0.356516  -0.354233  0  3.48709  0
O  O84  1  0.71929608  0.35609186  0.19156067  1  0  -0.711083  0  2.104513  0  0  -0.650617  0  2.346221  0  0  -0.681569  0  2.334632  0  0  -0.364574  -0.63225  0  2.353627  0
O  O85  1  0.78070531  0.64391034  0.69155986  1  0  -0.710914  0  2.104499  0  0  -0.650619  0  2.346246  0  0  -0.681575  0  2.334659  0  0  -0.364537  -0.63225  0  2.353653  0
O  O86  1  0.28070447  0.64390936  0.80843930  1  0  -0.711104  0  2.104559  0  0  -0.650622  0  2.346272  0  0  -0.681582  0  2.334684  0  0  -0.364567  -0.632247  0  2.353677  0
O  O87  1  0.21929525  0.35609088  0.30844010  1  0  -0.711073  0  2.104474  0  0  -0.650627  0  2.346184  0  0  -0.681581  0  2.334596  0  0  -0.364567  -0.632262  0  2.353609  0
O  O88  1  0.00699532  0.52267515  0.25551381  1  0  -0.907704  0  1.864571  0  0  -0.862531  0  2.056751  0  0  -0.887455  0  2.020545  0  0  -0.644246  -0.849204  0  2.080537  0
O  O89  1  0.49300522  0.47732403  0.75551388  1  0  -0.907689  0  1.864593  0  0  -0.862507  0  2.056764  0  0  -0.887425  0  2.020539  0  0  -0.644239  -0.849184  0  2.080543  0
O  O90  1  0.99300488  0.47732387  0.74448616  1  0  -0.907689  0  1.864586  0  0  -0.862508  0  2.056748  0  0  -0.887428  0  2.020519  0  0  -0.64424  -0.849184  0  2.080527  0
O  O91  1  0.50699516  0.52267609  0.24448609  1  0  -0.907698  0  1.864609  0  0  -0.862521  0  2.056789  0  0  -0.887441  0  2.020566  0  0  -0.64424  -0.849198  0  2.080568  0
O  O92  1  0.84813633  0.61586663  0.10642385  1  0  -0.696676  0  2.038115  0  0  -0.64313  0  2.289704  0  0  -0.674973  0  2.279037  0  0  -0.381964  -0.625778  0  2.296319  0
O  O93  1  0.65186092  0.38413231  0.60642430  1  0  -0.696755  0  2.038153  0  0  -0.64318  0  2.289753  0  0  -0.675026  0  2.279087  0  0  -0.381994  -0.625835  0  2.296369  0
O  O94  1  0.15186161  0.38413238  0.89357548  1  0  -0.69678  0  2.038147  0  0  -0.643225  0  2.289735  0  0  -0.675075  0  2.279067  0  0  -0.382006  -0.625879  0  2.296348  0
O  O95  1  0.34813798  0.61586561  0.39357567  1  0  -0.696714  0  2.038057  0  0  -0.643165  0  2.28968  0  0  -0.675012  0  2.279013  0  0  -0.382007  -0.625824  0  2.296298  0
O  O96  1  0.25375008  0.51280215  0.14089054  1  0  -0.672988  0  1.984196  0  0  -0.610396  0  2.205658  0  0  -0.640336  0  2.196007  0  0  -0.333834  -0.592953  0  2.211707  0
O  O97  1  0.24625068  0.48720040  0.64088976  1  0  -0.673009  0  1.984206  0  0  -0.610395  0  2.205651  0  0  -0.640347  0  2.196017  0  0  -0.333858  -0.59294  0  2.211696  0
O  O98  1  0.74624951  0.48720016  0.85910943  1  0  -0.673047  0  1.984226  0  0  -0.610423  0  2.20567  0  0  -0.640373  0  2.196023  0  0  -0.333876  -0.592972  0  2.211716  0
O  O99  1  0.75375101  0.51280083  0.35910893  1  0  -0.673023  0  1.984232  0  0  -0.610413  0  2.205674  0  0  -0.640365  0  2.19604  0  0  -0.333864  -0.592967  0  2.211721  0
O  O100  1  0.14276059  0.59554419  0.02829550  1  0  -0.833277  0  2.142756  0  0  -0.771384  0  2.40403  0  0  -0.810186  0  2.392404  0  0  -0.439506  -0.752938  0  2.410978  0
O  O101  1  0.35723840  0.40445622  0.52829548  1  0  -0.833252  0  2.142756  0  0  -0.77136  0  2.40403  0  0  -0.810152  0  2.392393  0  0  -0.439499  -0.752912  0  2.410984  0
O  O102  1  0.85723866  0.40445592  0.97170510  1  0  -0.833272  0  2.142753  0  0  -0.771359  0  2.403999  0  0  -0.810159  0  2.392366  0  0  -0.439493  -0.752909  0  2.410949  0
O  O103  1  0.64276033  0.59554059  0.47170512  1  0  -0.833231  0  2.142687  0  0  -0.771342  0  2.40395  0  0  -0.810144  0  2.392327  0  0  -0.43952  -0.752895  0  2.410896  0
O  O104  1  0.89676436  0.75062436  0.98542264  1  0  -0.722263  0  1.99373  0  0  -0.676215  0  2.248457  0  0  -0.707927  0  2.235615  0  0  -0.3797  -0.659554  0  2.255887  0
O  O105  1  0.60323404  0.24937543  0.48542211  1  0  -0.722218  0  1.993585  0  0  -0.676125  0  2.248297  0  0  -0.707835  0  2.235457  0  0  -0.379639  -0.65947  0  2.255722  0
O  O106  1  0.10323488  0.24937575  0.01457732  1  0  -0.722253  0  1.99375  0  0  -0.676192  0  2.248452  0  0  -0.7079  0  2.235612  0  0  -0.379679  -0.659539  0  2.255883  0
O  O107  1  0.39676503  0.75062358  0.51457722  1  0  -0.722296  0  1.993682  0  0  -0.67622  0  2.248403  0  0  -0.707929  0  2.235561  0  0  -0.379705  -0.659564  0  2.255828  0
O  O108  1  0.56992545  0.21812466  0.28781029  1  0  -0.685693  0  2.013368  0  0  -0.637722  0  2.256553  0  0  -0.668789  0  2.245274  0  0  -0.367445  -0.620925  0  2.262626  0
O  O109  1  0.93007505  0.78187747  0.78780956  1  0  -0.685646  0  2.013453  0  0  -0.637692  0  2.256552  0  0  -0.668763  0  2.245276  0  0  -0.367409  -0.62089  0  2.262628  0
O  O110  1  0.43007624  0.78187656  0.71219096  1  0  -0.685685  0  2.013351  0  0  -0.637708  0  2.25655  0  0  -0.66877  0  2.24526  0  0  -0.367467  -0.620905  0  2.262631  0
O  O111  1  0.06992567  0.21812485  0.21219040  1  0  -0.685684  0  2.013381  0  0  -0.637711  0  2.256541  0  0  -0.668782  0  2.245273  0  0  -0.367438  -0.620905  0  2.26262  0
