# generated using pymatgen
data_ZnH34C38(NO3)2
_symmetry_space_group_name_H-M   'P 1'
_cell_length_a   5.58597996
_cell_length_b   11.70318057
_cell_length_c   12.09651295
_cell_angle_alpha   99.90068598
_cell_angle_beta   101.49621402
_cell_angle_gamma   103.57164712
_symmetry_Int_Tables_number   1
_chemical_formula_structural   ZnH34C38(NO3)2
_chemical_formula_sum   'Zn1 H34 C38 N2 O6'
_cell_volume   733.16723022
_cell_formula_units_Z   1
loop_
 _symmetry_equiv_pos_site_id
 _symmetry_equiv_pos_as_xyz
  1  'x, y, z'
loop_
 _atom_site_type_symbol
 _atom_site_label
 _atom_site_symmetry_multiplicity
 _atom_site_fract_x
 _atom_site_fract_y
 _atom_site_fract_z
 _atom_site_occupancy
 _atom_site_hle17_bader_spin_density
 _atom_site_hle17_ddec_charge
 _atom_site_hle17_ddec_spin_density
 _atom_site_hle17_ddec_sum_bond_order
 _atom_site_hle17_magmom
 _atom_site_hse06_10hf_bader_spin_density
 _atom_site_hse06_10hf_ddec_charge
 _atom_site_hse06_10hf_ddec_spin_density
 _atom_site_hse06_10hf_ddec_sum_bond_order
 _atom_site_hse06_10hf_magmom
 _atom_site_hse06_bader_spin_density
 _atom_site_hse06_ddec_charge
 _atom_site_hse06_ddec_spin_density
 _atom_site_hse06_ddec_sum_bond_order
 _atom_site_hse06_magmom
 _atom_site_pbe_bader_spin_density
 _atom_site_pbe_cm5_charge
 _atom_site_pbe_ddec_charge
 _atom_site_pbe_ddec_spin_density
 _atom_site_pbe_ddec_sum_bond_order
 _atom_site_pbe_magmom
Zn  Zn0  1  0.00000253  0.00000138  0.49999816  1  0  1.06875  0  1.732146  0  0  0.885371  0  2.169757  0  0  0.935662  0  2.115954  0  0  0.6576  0.850208  0  2.206369  0
H  H1  1  0.32851449  0.26282316  0.98203220  1  0  0.090013  0  0.972539  0  0  0.099095  0  1.040556  0  0  0.102155  0  1.038531  0  0  0.097104  0.096885  0  1.042071  0
H  H2  1  0.67151252  0.73718549  0.01796505  1  0  0.090068  0  0.972422  0  0  0.099086  0  1.040509  0  0  0.102186  0  1.038452  0  0  0.097103  0.096884  0  1.042011  0
H  H3  1  0.37493401  0.23833908  0.18365595  1  0  0.073431  0  0.982155  0  0  0.087819  0  1.040598  0  0  0.090162  0  1.039765  0  0  0.094184  0.086155  0  1.041234  0
H  H4  1  0.62508511  0.76166869  0.81634203  1  0  0.073364  0  0.982179  0  0  0.087755  0  1.040634  0  0  0.090096  0  1.039802  0  0  0.094155  0.086091  0  1.041263  0
H  H5  1  0.69301008  0.14055095  0.26922137  1  0  0.083741  0  0.972621  0  0  0.093561  0  1.034977  0  0  0.096069  0  1.034794  0  0  0.091113  0.091773  0  1.035178  0
H  H6  1  0.30697780  0.85944421  0.73077235  1  0  0.083736  0  0.972613  0  0  0.09354  0  1.034996  0  0  0.096045  0  1.034821  0  0  0.091075  0.091753  0  1.035193  0
H  H7  1  0.96391564  0.06515835  0.14977546  1  0  0.084724  0  0.971757  0  0  0.094902  0  1.035057  0  0  0.097653  0  1.033684  0  0  0.096143  0.092953  0  1.036065  0
H  H8  1  0.03606248  0.93482693  0.85022237  1  0  0.084829  0  0.971712  0  0  0.094988  0  1.035009  0  0  0.097738  0  1.033641  0  0  0.096161  0.093039  0  1.036027  0
H  H9  1  0.91268789  0.08647277  0.94667011  1  0  0.095881  0  0.967974  0  0  0.105978  0  1.03324  0  0  0.10857  0  1.032473  0  0  0.100086  0.104085  0  1.033917  0
H  H10  1  0.08730860  0.91351247  0.05332624  1  0  0.096002  0  0.967934  0  0  0.106098  0  1.033158  0  0  0.108685  0  1.032421  0  0  0.10013  0.104213  0  1.033836  0
H  H11  1  0.73252471  0.14596413  0.79428026  1  0  0.09513  0  0.956343  0  0  0.106341  0  1.019097  0  0  0.108929  0  1.017083  0  0  0.109136  0.104487  0  1.020608  0
H  H12  1  0.26747204  0.85403374  0.20571559  1  0  0.095118  0  0.956336  0  0  0.106299  0  1.019128  0  0  0.108887  0  1.017112  0  0  0.109095  0.104435  0  1.02065  0
H  H13  1  0.05947718  0.33632083  0.89201051  1  0  0.093484  0  0.963014  0  0  0.104577  0  1.027293  0  0  0.107498  0  1.025557  0  0  0.100504  0.102488  0  1.028598  0
H  H14  1  0.94052054  0.66368521  0.10799166  1  0  0.09353  0  0.963053  0  0  0.104585  0  1.027384  0  0  0.107506  0  1.025651  0  0  0.100507  0.102495  0  1.028683  0
H  H15  1  0.20239318  0.55428066  0.89346965  1  0  0.086472  0  0.971062  0  0  0.097092  0  1.031601  0  0  0.098949  0  1.032389  0  0  0.097455  0.095765  0  1.031118  0
H  H16  1  0.79758927  0.44572718  0.10652879  1  0  0.086451  0  0.970895  0  0  0.097103  0  1.031396  0  0  0.098955  0  1.032203  0  0  0.097429  0.095771  0  1.030924  0
H  H17  1  0.89173674  0.65976350  0.82013234  1  0  0.077936  0  0.996609  0  0  0.088171  0  1.061645  0  0  0.089795  0  1.06281  0  0  0.092366  0.086972  0  1.060946  0
H  H18  1  0.10823015  0.34023986  0.17986715  1  0  0.077984  0  0.996522  0  0  0.088135  0  1.061667  0  0  0.089759  0  1.062832  0  0  0.09238  0.086961  0  1.06095  0
H  H19  1  0.42923124  0.54539357  0.74417187  1  0  0.07728  0  0.971843  0  0  0.087495  0  1.035656  0  0  0.089869  0  1.035209  0  0  0.092761  0.085841  0  1.035973  0
H  H20  1  0.57073834  0.45460264  0.25583588  1  0  0.077428  0  0.971655  0  0  0.087587  0  1.035543  0  0  0.089963  0  1.035091  0  0  0.092765  0.085929  0  1.035866  0
H  H21  1  0.28768984  0.32894904  0.74367623  1  0  0.091203  0  0.98881  0  0  0.098694  0  1.057865  0  0  0.100907  0  1.058385  0  0  0.094815  0.097116  0  1.057581  0
H  H22  1  0.71230174  0.67104713  0.25633125  1  0  0.091175  0  0.988797  0  0  0.098686  0  1.057834  0  0  0.100901  0  1.058352  0  0  0.094805  0.097105  0  1.05755  0
H  H23  1  0.29548922  0.81092363  0.41415168  1  0  0.080329  0  0.963674  0  0  0.087122  0  1.031097  0  0  0.089755  0  1.029111  0  0  0.115669  0.085127  0  1.032663  0
H  H24  1  0.70450658  0.18907875  0.58584395  1  0  0.080344  0  0.963686  0  0  0.087207  0  1.031021  0  0  0.08984  0  1.029037  0  0  0.115712  0.085204  0  1.032602  0
H  H25  1  0.29801875  0.60158976  0.40692847  1  0  0.09861  0  1.002063  0  0  0.105776  0  1.069012  0  0  0.108028  0  1.07047  0  0  0.102684  0.10416  0  1.068167  0
H  H26  1  0.70196813  0.39841259  0.59306047  1  0  0.098582  0  1.00206  0  0  0.105681  0  1.069095  0  0  0.107933  0  1.070552  0  0  0.10265  0.104061  0  1.068251  0
H  H27  1  0.70091494  0.56979936  0.58953026  1  0  0.097752  0  0.986367  0  0  0.107787  0  1.049606  0  0  0.110626  0  1.049307  0  0  0.103463  0.105779  0  1.049928  0
H  H28  1  0.29912349  0.43020856  0.41049036  1  0  0.097708  0  0.986418  0  0  0.107784  0  1.049593  0  0  0.110617  0  1.049315  0  0  0.10343  0.105772  0  1.049914  0
H  H29  1  0.71923159  0.78245170  0.58477216  1  0  0.087098  0  0.955197  0  0  0.097085  0  1.014451  0  0  0.099717  0  1.012277  0  0  0.115046  0.095071  0  1.016176  0
H  H30  1  0.28079846  0.21755710  0.41524196  1  0  0.087059  0  0.955218  0  0  0.097087  0  1.014436  0  0  0.099721  0  1.012258  0  0  0.115045  0.095022  0  1.01622  0
H  H31  1  0.88771910  0.03647263  0.68577895  1  0  0.403029  0  0.920512  0  0  0.368795  0  0.991284  0  0  0.38108  0  0.973527  0  0  0.281031  0.360193  0  1.003684  0
H  H32  1  0.11229472  0.96352344  0.31422165  1  0  0.402988  0  0.920584  0  0  0.368757  0  0.991353  0  0  0.381045  0  0.973589  0  0  0.28099  0.360155  0  1.003755  0
H  H33  1  0.59621863  0.00892184  0.61433790  1  0  0.421806  0  0.874753  0  0  0.391158  0  0.941556  0  0  0.402403  0  0.925199  0  0  0.288751  0.383185  0  0.953136  0
H  H34  1  0.40380131  0.99108145  0.38566361  1  0  0.421811  0  0.874722  0  0  0.391191  0  0.941502  0  0  0.402438  0  0.925144  0  0  0.288743  0.383223  0  0.953077  0
C  C35  1  0.46704918  0.21887065  0.01817795  1  0  -0.113151  0  3.732704  0  0  -0.135574  0  3.982711  0  0  -0.137323  0  4.002854  0  0  -0.093176  -0.134283  0  3.96907  0
C  C36  1  0.53296204  0.78112990  0.98181729  1  0  -0.113319  0  3.732878  0  0  -0.135709  0  3.98291  0  0  -0.137498  0  4.003028  0  0  -0.093233  -0.134426  0  3.969273  0
C  C37  1  0.49504000  0.20600605  0.13216636  1  0  -0.077133  0  3.80082  0  0  -0.087411  0  4.047105  0  0  -0.089448  0  4.06872  0  0  -0.097995  -0.085938  0  4.032301  0
C  C38  1  0.50496661  0.79399000  0.86783103  1  0  -0.076808  0  3.800683  0  0  -0.087094  0  4.046934  0  0  -0.089129  0  4.068561  0  0  -0.097877  -0.085627  0  4.032138  0
C  C39  1  0.67339010  0.15090630  0.18037596  1  0  -0.0858  0  3.784074  0  0  -0.099092  0  4.032552  0  0  -0.101335  0  4.054242  0  0  -0.103753  -0.097521  0  4.017826  0
C  C40  1  0.32659199  0.84908525  0.81961662  1  0  -0.085895  0  3.784013  0  0  -0.099174  0  4.032503  0  0  -0.101418  0  4.054189  0  0  -0.103741  -0.097598  0  4.017772  0
C  C41  1  0.82429245  0.10840758  0.11326823  1  0  -0.06884  0  3.789954  0  0  -0.08153  0  4.040223  0  0  -0.083269  0  4.061859  0  0  -0.096121  -0.080319  0  4.025531  0
C  C42  1  0.17569029  0.89157584  0.88672399  1  0  -0.06896  0  3.790119  0  0  -0.081621  0  4.040334  0  0  -0.083358  0  4.061971  0  0  -0.096113  -0.080418  0  4.025646  0
C  C43  1  0.79401285  0.11960552  0.99869916  1  0  -0.117199  0  3.717471  0  0  -0.137399  0  3.963785  0  0  -0.140553  0  3.986575  0  0  -0.091123  -0.135138  0  3.948291  0
C  C44  1  0.20598242  0.88038061  0.00129556  1  0  -0.117289  0  3.717469  0  0  -0.137461  0  3.963738  0  0  -0.140627  0  3.986525  0  0  -0.091161  -0.135215  0  3.948259  0
C  C45  1  0.61446129  0.17423127  0.94965803  1  0  0.093003  0  3.717971  0  0  0.112779  0  3.948392  0  0  0.112582  0  3.97335  0  0  -0.006551  0.112858  0  3.931475  0
C  C46  1  0.38554381  0.82576206  0.05033631  1  0  0.092966  0  3.718262  0  0  0.112763  0  3.948641  0  0  0.112568  0  3.973605  0  0  -0.006592  0.112843  0  3.931722  0
C  C47  1  0.59158590  0.18556490  0.82497011  1  0  -0.206642  0  3.686104  0  0  -0.218278  0  3.905926  0  0  -0.223105  0  3.916539  0  0  -0.081349  -0.214935  0  3.898639  0
C  C48  1  0.40841928  0.81443475  0.17502522  1  0  -0.206596  0  3.686175  0  0  -0.218179  0  3.905938  0  0  -0.223004  0  3.916542  0  0  -0.081281  -0.214832  0  3.898639  0
C  C49  1  0.66466495  0.31771903  0.81810527  1  0  0.089709  0  3.719434  0  0  0.108634  0  3.952687  0  0  0.108497  0  3.977381  0  0  -0.006151  0.108693  0  3.93596  0
C  C50  1  0.33532658  0.68228247  0.18189227  1  0  0.08967  0  3.71946  0  0  0.108515  0  3.952834  0  0  0.108368  0  3.977543  0  0  -0.00615  0.108583  0  3.936083  0
C  C51  1  0.92210386  0.38254593  0.85902691  1  0  -0.113522  0  3.7302  0  0  -0.13402  0  3.977221  0  0  -0.136761  0  3.998467  0  0  -0.089955  -0.13207  0  3.962779  0
C  C52  1  0.07789076  0.61746367  0.14096889  1  0  -0.113422  0  3.729887  0  0  -0.133886  0  3.976937  0  0  -0.136623  0  3.998179  0  0  -0.089886  -0.131941  0  3.962491  0
C  C53  1  0.00252877  0.50453934  0.85943999  1  0  -0.058559  0  3.773251  0  0  -0.06749  0  4.015042  0  0  -0.068997  0  4.036967  0  0  -0.090935  -0.066379  0  4.000052  0
C  C54  1  0.99745781  0.49546307  0.14055720  1  0  -0.058585  0  3.772818  0  0  -0.067512  0  4.014572  0  0  -0.069024  0  4.036495  0  0  -0.090929  -0.066403  0  3.999602  0
C  C55  1  0.82604838  0.56402024  0.81834282  1  0  -0.089931  0  3.788597  0  0  -0.104244  0  4.033921  0  0  -0.106545  0  4.055714  0  0  -0.101091  -0.102568  0  4.019038  0
C  C56  1  0.17392924  0.43597948  0.18165470  1  0  -0.089902  0  3.788549  0  0  -0.104146  0  4.033888  0  0  -0.106447  0  4.055682  0  0  -0.101108  -0.102495  0  4.018996  0
C  C57  1  0.56948168  0.50004340  0.77616178  1  0  -0.089728  0  3.816492  0  0  -0.097649  0  4.061163  0  0  -0.099104  0  4.081475  0  0  -0.102789  -0.096555  0  4.047238  0
C  C58  1  0.43050143  0.49995365  0.22384167  1  0  -0.089892  0  3.816442  0  0  -0.097786  0  4.06108  0  0  -0.099239  0  4.08139  0  0  -0.102764  -0.096695  0  4.047171  0
C  C59  1  0.48878466  0.37741593  0.77584092  1  0  -0.134458  0  3.745318  0  0  -0.152723  0  3.988577  0  0  -0.155832  0  4.010568  0  0  -0.101636  -0.150562  0  3.97365  0
C  C60  1  0.51119754  0.62257928  0.22415802  1  0  -0.134546  0  3.745445  0  0  -0.152794  0  3.988748  0  0  -0.155903  0  4.010744  0  0  -0.101721  -0.150628  0  3.973806  0
C  C61  1  0.33141953  0.11798532  0.74264630  1  0  0.692762  0  3.797477  0  0  0.637213  0  4.104538  0  0  0.671338  0  4.096459  0  0  0.222805  0.614085  0  4.109203  0
C  C62  1  0.66858284  0.88200986  0.25735219  1  0  0.69275  0  3.797634  0  0  0.637254  0  4.104598  0  0  0.671391  0  4.096501  0  0  0.222847  0.614128  0  4.109264  0
C  C63  1  0.16411402  0.75492584  0.45188464  1  0  0.134591  0  3.688925  0  0  0.104936  0  3.944152  0  0  0.111504  0  3.961346  0  0  0.048165  0.100673  0  3.932565  0
C  C64  1  0.83588773  0.24507745  0.54811338  1  0  0.134506  0  3.688884  0  0  0.104792  0  3.944095  0  0  0.11136  0  3.961292  0  0  0.048093  0.100535  0  3.93251  0
C  C65  1  0.16638400  0.63580927  0.44941332  1  0  -0.152646  0  3.693663  0  0  -0.169645  0  3.938209  0  0  -0.177157  0  3.960768  0  0  -0.079511  -0.164793  0  3.923064  0
C  C66  1  0.83362007  0.36419493  0.55058590  1  0  -0.152522  0  3.69353  0  0  -0.169478  0  3.938106  0  0  -0.176992  0  3.960667  0  0  -0.079423  -0.164617  0  3.922953  0
C  C67  1  0.00044272  0.56345947  0.49941256  1  0  0.093012  0  3.730624  0  0  0.1057  0  3.957502  0  0  0.109654  0  3.97799  0  0  0.013486  0.103206  0  3.943476  0
C  C68  1  0.99957814  0.43654566  0.50059345  1  0  0.092822  0  3.730823  0  0  0.105567  0  3.957642  0  0  0.109527  0  3.978129  0  0  0.013399  0.103067  0  3.943614  0
C  C69  1  0.83510200  0.61830156  0.54809174  1  0  -0.154071  0  3.699277  0  0  -0.172681  0  3.94813  0  0  -0.179626  0  3.969029  0  0  -0.080406  -0.168174  0  3.934029  0
C  C70  1  0.16492912  0.38170903  0.45192276  1  0  -0.154068  0  3.699361  0  0  -0.172713  0  3.948214  0  0  -0.179665  0  3.96911  0  0  -0.080466  -0.168192  0  3.934089  0
C  C71  1  0.84368745  0.73776799  0.54638606  1  0  0.130559  0  3.694748  0  0  0.100975  0  3.948562  0  0  0.107044  0  3.966659  0  0  0.046241  0.09711  0  3.936235  0
C  C72  1  0.15633301  0.26223989  0.45362530  1  0  0.130656  0  3.694658  0  0  0.101002  0  3.948501  0  0  0.107072  0  3.966602  0  0  0.046321  0.097176  0  3.936183  0
N  N73  1  0.00609598  0.80677380  0.49946086  1  0  -0.322311  0  3.211184  0  0  -0.251531  0  3.477314  0  0  -0.268783  0  3.49389  0  0  -0.310513  -0.239883  0  3.465914  0
N  N74  1  0.99391468  0.19322953  0.50054386  1  0  -0.322311  0  3.21115  0  0  -0.251483  0  3.47728  0  0  -0.268736  0  3.493862  0  0  -0.310516  -0.239836  0  3.46587  0
O  O75  1  0.33218365  0.06327679  0.64037240  1  0  -0.679353  0  2.063689  0  0  -0.602425  0  2.322114  0  0  -0.633216  0  2.310566  0  0  -0.317903  -0.580821  0  2.329088  0
O  O76  1  0.66781141  0.93671839  0.35962535  1  0  -0.679287  0  2.063586  0  0  -0.602425  0  2.322043  0  0  -0.633208  0  2.310454  0  0  -0.317884  -0.580832  0  2.329028  0
O  O77  1  0.13329615  0.12213407  0.77592677  1  0  -0.607675  0  2.011794  0  0  -0.549406  0  2.242139  0  0  -0.574488  0  2.233485  0  0  -0.299201  -0.53198  0  2.24753  0
O  O78  1  0.86669558  0.87786207  0.22407658  1  0  -0.607703  0  2.012039  0  0  -0.549436  0  2.24234  0  0  -0.574535  0  2.233695  0  0  -0.299281  -0.532008  0  2.247717  0
O  O79  1  0.75238659  0.98194213  0.61511913  1  0  -0.834879  0  1.909605  0  0  -0.773264  0  2.119437  0  0  -0.795055  0  2.083255  0  0  -0.581607  -0.757815  0  2.144361  0
O  O80  1  0.24762213  0.01805755  0.38487986  1  0  -0.834848  0  1.909629  0  0  -0.773262  0  2.119488  0  0  -0.795042  0  2.083269  0  0  -0.581549  -0.757813  0  2.144403  0
