# generated using pymatgen
data_CuH12C14(N3Cl)2
_symmetry_space_group_name_H-M   'P 1'
_cell_length_a   7.60694269
_cell_length_b   9.50976654
_cell_length_c   10.93030530
_cell_angle_alpha   79.03460267
_cell_angle_beta   86.75339501
_cell_angle_gamma   79.92116986
_symmetry_Int_Tables_number   1
_chemical_formula_structural   CuH12C14(N3Cl)2
_chemical_formula_sum   'Cu2 H24 C28 N12 Cl4'
_cell_volume   764.06224612
_cell_formula_units_Z   2
loop_
 _symmetry_equiv_pos_site_id
 _symmetry_equiv_pos_as_xyz
  1  'x, y, z'
loop_
 _atom_site_type_symbol
 _atom_site_label
 _atom_site_symmetry_multiplicity
 _atom_site_fract_x
 _atom_site_fract_y
 _atom_site_fract_z
 _atom_site_occupancy
 _atom_site_hle17_ddec_charge
 _atom_site_hle17_ddec_spin_density
 _atom_site_hle17_ddec_sum_bond_order
 _atom_site_hle17_magmom
 _atom_site_hse06_10hf_ddec_charge
 _atom_site_hse06_10hf_ddec_spin_density
 _atom_site_hse06_10hf_ddec_sum_bond_order
 _atom_site_hse06_10hf_magmom
 _atom_site_hse06_ddec_charge
 _atom_site_hse06_ddec_spin_density
 _atom_site_hse06_ddec_sum_bond_order
 _atom_site_hse06_magmom
 _atom_site_pbe_cm5_charge
 _atom_site_pbe_ddec_charge
 _atom_site_pbe_ddec_spin_density
 _atom_site_pbe_ddec_sum_bond_order
 _atom_site_pbe_magmom
Cu  Cu0  1  0.19621955  0.25732647  0.22387947  1  0.712404  0.632094  1.959477  0.434  0.678143  0.726052  2.394817  0.546  0.764005  0.811099  2.32049  0.63  0.624059  0.629398  0.665374  2.444046  0.493
Cu  Cu1  1  0.80376116  0.74267332  0.77613020  1  0.712854  -0.632081  1.959254  -0.434  0.678445  -0.725983  2.394634  -0.546  0.764268  -0.81098  2.320317  -0.63  0.624349  0.629787  -0.665321  2.44383  -0.493
H  H2  1  0.87293867  0.08011254  0.34424889  1  0.114146  6.3e-05  0.943415  0.0  0.1233  0.000101  1.004726  0.0  0.126147  5e-05  1.003102  0.0  0.109204  0.121201  0.000115  1.006217  0.0
H  H3  1  0.12709525  0.91991025  0.65570645  1  0.113991  -6.2e-05  0.943353  0.0  0.123156  -0.000101  1.004683  0.0  0.126004  -5e-05  1.003078  0.0  0.109121  0.121056  -0.000115  1.006177  0.0
H  H4  1  0.71267455  0.86867213  0.38725449  1  0.097832  0.000106  0.976683  0.0  0.107426  6.5e-05  1.040697  0.0  0.111114  8.6e-05  1.038594  0.0  0.093566  0.104935  3.3e-05  1.042078  0.0
H  H5  1  0.28733660  0.13135270  0.61273254  1  0.097804  -0.000104  0.976678  0.0  0.107435  -6.5e-05  1.040677  0.0  0.111121  -8.6e-05  1.038582  0.0  0.0935  0.10495  -3.3e-05  1.042048  0.0
H  H6  1  0.78487992  0.66864715  0.26519722  1  0.090797  8.4e-05  0.958977  0.0  0.102497  0.000178  1.01897  0.0  0.105109  0.000132  1.018125  0.0  0.098485  0.100346  0.000218  1.02008  0.0
H  H7  1  0.21510827  0.33135476  0.73482004  1  0.090919  -8.2e-05  0.958913  0.0  0.102573  -0.000178  1.018947  0.0  0.105184  -0.000132  1.018133  0.0  0.098509  0.100432  -0.000219  1.020047  0.0
H  H8  1  0.01680016  0.67179655  0.09734037  1  0.123311  0.000283  0.96277  0.0  0.125717  0.000235  1.036542  0.0  0.129063  0.000174  1.035067  0.0  0.101158  0.123718  0.000255  1.037022  0.0
H  H9  1  0.98316763  0.32818261  0.90267681  1  0.123353  -0.000279  0.962322  0.0  0.125663  -0.000235  1.036226  0.0  0.129044  -0.000175  1.034732  0.0  0.101144  0.123671  -0.000255  1.036695  0.0
H  H10  1  0.39892119  0.89203344  0.90385122  1  0.102599  0.000258  0.928924  0.0  0.110496  0.000309  1.003835  0.0  0.111412  0.000264  1.004031  0.0  0.11817  0.109875  0.000201  1.003918  0.0
H  H11  1  0.60106055  0.10793513  0.09611679  1  0.102702  -0.00026  0.928498  0.0  0.110673  -0.000308  1.003426  0.0  0.111827  -0.000264  1.002755  0.0  0.11826  0.110046  -0.0002  1.003514  0.0
H  H12  1  0.25721957  0.75791514  0.93890972  1  0.106727  0.000137  0.95018  0.0  0.118704  -2e-05  1.016504  0.0  0.121039  -2e-05  1.014963  0.0  0.107593  0.117132  -7.4e-05  1.017593  0.0
H  H13  1  0.74281161  0.24203699  0.06106995  1  0.106837  -0.000138  0.950414  0.0  0.118853  1.9e-05  1.016754  0.0  0.121424  2e-05  1.014365  0.0  0.107781  0.117282  7.3e-05  1.017839  0.0
H  H14  1  0.57621001  0.65658424  0.99997321  1  0.096709  0.000546  0.963787  0.0  0.099148  0.000649  1.048955  0.0  0.10079  0.000574  1.044961  0.0  0.118907  0.097737  0.000541  1.05194  0.0
H  H15  1  0.42384288  0.34345560  0.00003077  1  0.096752  -0.00055  0.963681  0.0  0.099185  -0.000649  1.048769  0.0  0.100826  -0.000575  1.044865  0.0  0.118938  0.09778  -0.000541  1.051709  0.0
H  H16  1  0.56574226  0.78509980  0.10087581  1  0.090562  0.000401  0.942462  0.0  0.099153  0.000302  1.0186  0.0  0.100246  0.000224  1.017489  0.0  0.116801  0.098434  0.000258  1.019003  0.0
H  H17  1  0.43425107  0.21496089  0.89910706  1  0.09054  -0.000396  0.942908  0.0  0.099113  -0.000301  1.019  0.0  0.100272  -0.000223  1.017713  0.0  0.116743  0.098379  -0.000257  1.019399  0.0
H  H18  1  0.44838240  0.83444554  0.31333275  1  0.113832  0.000217  0.97022  0.0  0.119392  0.000198  1.040034  0.0  0.123024  0.000133  1.037987  0.0  0.098928  0.117669  0.000207  1.040107  0.0
H  H19  1  0.55162337  0.16556712  0.68669580  1  0.113896  -0.000218  0.969986  0.0  0.11946  -0.000199  1.039809  0.0  0.123104  -0.000134  1.03776  0.0  0.098919  0.117737  -0.000207  1.039889  0.0
H  H20  1  0.34447354  0.78774460  0.53270874  1  0.096956  -0.000292  0.966832  0.0  0.108076  -0.000273  1.027166  0.0  0.111897  -0.000209  1.024183  0.0  0.093099  0.105362  -0.00029  1.029381  0.0
H  H21  1  0.65552079  0.21225948  0.46730610  1  0.097019  0.00029  0.966796  0.0  0.108062  0.000271  1.027204  0.0  0.111887  0.000208  1.024196  0.0  0.09309  0.105352  0.000288  1.029412  0.0
H  H22  1  0.20082345  0.57571692  0.61970112  1  0.089124  -3.7e-05  0.998545  0.0  0.095676  -0.000196  1.069834  0.0  0.098982  -0.000131  1.068113  0.0  0.085503  0.093391  -0.000243  1.071014  0.0
H  H23  1  0.79917631  0.42427973  0.38028360  1  0.08916  4.2e-05  0.998412  0.0  0.095637  0.000199  1.069811  0.0  0.098992  0.000133  1.068053  0.0  0.08543  0.093355  0.000246  1.07098  0.0
H  H24  1  0.16828629  0.39070962  0.48952444  1  0.108796  7.9e-05  0.952906  0.0  0.117355  9.2e-05  1.017485  0.0  0.119484  4.6e-05  1.017333  0.0  0.106658  0.11596  0.000121  1.017362  0.0
H  H25  1  0.83174550  0.60928486  0.51044928  1  0.108747  -7.2e-05  0.952829  0.0  0.117335  -9.1e-05  1.017426  0.0  0.119462  -4.5e-05  1.017277  0.0  0.106634  0.115942  -0.00012  1.017306  0.0
C  C26  1  0.03956449  0.99166152  0.19911709  1  0.115372  -0.001192  3.820847  -0.001  0.111517  0.000206  4.076122  0.0  0.113654  -0.000602  4.100471  -0.001  0.094721  0.11033  0.000787  4.060384  0.001
C  C27  1  0.96043656  0.00832870  0.80085398  1  0.116047  0.001218  3.821085  0.001  0.112021  -0.000205  4.076495  0.0  0.11489  0.000601  4.098494  0.001  0.094809  0.110821  -0.000789  4.060754  -0.001
C  C28  1  0.90452633  0.99191803  0.29197598  1  -0.109056  0.00268  3.70898  0.002  -0.12661  0.000813  3.952967  0.001  -0.12872  0.000964  3.973026  0.001  -0.077869  -0.125361  0.0006  3.939867  0.001
C  C29  1  0.09546989  0.00809601  0.70800515  1  -0.109054  -0.002723  3.709264  -0.003  -0.126552  -0.000815  3.953311  -0.001  -0.128685  -0.000968  3.973378  -0.001  -0.077842  -0.125302  -0.000602  3.940209  -0.001
C  C30  1  0.81577508  0.87376838  0.31389159  1  -0.071785  -0.002315  3.748464  -0.002  -0.086653  -0.000644  3.995239  -0.001  -0.089073  -0.000802  4.016283  -0.001  -0.09066  -0.084964  -0.00053  3.980925  -0.001
C  C31  1  0.18421723  0.12622607  0.68610110  1  -0.07161  0.002348  3.748585  0.002  -0.086528  0.000644  3.995341  0.001  -0.088946  0.000804  4.016512  0.001  -0.090538  -0.084839  0.00053  3.981024  0.001
C  C32  1  0.85680417  0.76029930  0.24413125  1  -0.050045  0.002113  3.733319  0.002  -0.063663  0.000648  3.983837  0.001  -0.06485  0.00082  4.005604  0.001  -0.087096  -0.062909  0.000454  3.96943  0.001
C  C33  1  0.14318817  0.23970158  0.75587412  1  -0.050357  -0.002155  3.733176  -0.002  -0.063894  -0.000649  3.983599  -0.001  -0.065091  -0.000825  4.005543  -0.001  -0.08714  -0.063148  -0.000456  3.969196  -0.001
C  C34  1  0.98768619  0.75966397  0.15043813  1  -0.132796  -0.001777  3.722556  -0.002  -0.158513  -0.000355  3.99062  -0.001  -0.162289  -0.000585  4.011291  -0.001  -0.093587  -0.155645  -0.000153  3.97622  0.0
C  C35  1  0.01229452  0.24030983  0.84956385  1  -0.132949  0.001804  3.722588  0.002  -0.158667  0.000356  3.990759  0.001  -0.16221  0.000587  4.010223  0.001  -0.093722  -0.155811  0.000152  3.976373  0.0
C  C36  1  0.08040973  0.87736198  0.13079827  1  0.090784  0.00396  3.777076  0.004  0.065585  0.002002  4.029226  0.002  0.06972  0.001809  4.049486  0.002  0.1027  0.06163  0.001991  4.015159  0.002
C  C37  1  0.91959835  0.12262606  0.86917103  1  0.090821  -0.003984  3.777342  -0.004  0.065589  -0.002006  4.029328  -0.002  0.07603  -0.001812  4.053089  -0.002  0.102801  0.061676  -0.001993  4.015246  -0.002
C  C38  1  0.33937946  0.82084175  0.97965189  1  -0.043854  0.000426  3.601382  0.001  -0.115836  0.000395  3.85824  0.0  -0.113603  0.000347  3.866901  0.0  -0.047649  -0.118237  0.000446  3.851576  0.0
C  C39  1  0.66065081  0.17914729  0.02032460  1  -0.043935  -0.000424  3.601071  -0.001  -0.116338  -0.000396  3.858207  0.0  -0.107834  -0.000348  3.870133  0.0  -0.047763  -0.118719  -0.000447  3.851519  0.0
C  C40  1  0.48751355  0.72126782  0.05867269  1  -0.039889  0.000844  3.624233  0.001  -0.11754  0.000955  3.892434  0.001  -0.106845  0.000787  3.905324  0.001  -0.047655  -0.121395  0.001025  3.885868  0.001
C  C41  1  0.51249496  0.27875054  0.94130726  1  -0.039887  -0.000848  3.624419  -0.001  -0.117478  -0.000958  3.892525  -0.001  -0.10612  -0.000788  3.903595  -0.001  -0.047628  -0.121255  -0.001027  3.8859  -0.001
C  C42  1  0.37555547  0.63197121  0.27989208  1  0.088425  0.004155  3.790772  0.004  0.067229  0.002144  4.032245  0.002  0.07906  0.001979  4.055331  0.002  0.105189  0.062703  0.002199  4.017873  0.002
C  C43  1  0.62449304  0.36804480  0.72010495  1  0.08823  -0.004177  3.79146  -0.004  0.066922  -0.002146  4.032954  -0.002  0.07889  -0.001983  4.056093  -0.002  0.105008  0.062423  -0.0022  4.018578  -0.002
C  C44  1  0.39294936  0.73649428  0.35088961  1  -0.141581  -0.00222  3.732945  -0.002  -0.161738  -0.000562  3.992565  -0.001  -0.166156  -0.00075  4.011433  -0.001  -0.093838  -0.158226  -0.000235  3.977775  0.0
C  C45  1  0.60707681  0.26352163  0.64913211  1  -0.141609  0.002257  3.732972  0.002  -0.161757  0.00056  3.992602  0.001  -0.16614  0.000757  4.011445  0.001  -0.093784  -0.15826  0.000235  3.977832  0.0
C  C46  1  0.32974343  0.71087581  0.47319000  1  -0.032842  0.001959  3.716116  0.002  -0.048159  0.000328  3.962916  0.0  -0.048106  0.000647  3.983415  0.001  -0.081413  -0.048338  2.3e-05  3.948906  0.0
C  C47  1  0.67027000  0.28911849  0.52682108  1  -0.032881  -0.001995  3.716099  -0.002  -0.048149  -0.00033  3.962901  0.0  -0.048089  -0.000656  3.983424  -0.001  -0.081344  -0.048324  -2.6e-05  3.948883  0.0
C  C48  1  0.25011357  0.58755934  0.52319734  1  -0.071129  -0.002526  3.744447  -0.002  -0.08648  -0.000861  3.993864  -0.001  -0.090367  -0.000948  4.017041  -0.001  -0.093298  -0.083913  -0.000803  3.978457  -0.001
C  C49  1  0.74990118  0.41244146  0.47681539  1  -0.071031  0.002549  3.744195  0.002  -0.086279  0.000866  3.993579  0.001  -0.090208  0.000953  4.016735  0.001  -0.093199  -0.083709  0.000806  3.97815  0.001
C  C50  1  0.23109800  0.48491401  0.45246271  1  -0.114038  0.002305  3.71782  0.002  -0.132585  0.000638  3.966504  0.001  -0.134831  0.000867  3.988404  0.001  -0.080418  -0.131  0.000443  3.951323  0.0
C  C51  1  0.76893078  0.51508247  0.54754100  1  -0.114274  -0.002341  3.718129  -0.002  -0.132883  -0.000641  3.966872  -0.001  -0.135139  -0.000871  3.988791  -0.001  -0.080518  -0.131295  -0.000443  3.951692  0.0
C  C52  1  0.29533982  0.50909510  0.32881969  1  0.12322  -0.000782  3.821462  -0.001  0.121389  0.000464  4.070019  0.001  0.123773  -0.0004  4.091671  0.0  0.097635  0.120395  0.001039  4.053832  0.001
C  C53  1  0.70471684  0.49090027  0.67117942  1  0.123705  0.00079  3.821436  0.001  0.121776  -0.000467  4.070013  -0.001  0.124199  0.0004  4.091652  0.0  0.097738  0.120774  -0.001043  4.05383  -0.001
N  N54  1  0.15905716  0.08479043  0.15877284  1  -0.226711  0.067081  3.327897  0.081  -0.192731  0.050091  3.654686  0.064  -0.215737  0.044075  3.6718  0.059  -0.236137  -0.18013  0.052145  3.646436  0.065
N  N55  1  0.84095435  0.91519996  0.84116393  1  -0.22735  -0.067098  3.327287  -0.081  -0.193294  -0.050094  3.654183  -0.064  -0.215483  -0.044086  3.668398  -0.059  -0.236288  -0.180704  -0.052144  3.645944  -0.065
N  N56  1  0.26965823  0.03535555  0.07442352  1  -0.062274  -0.003281  2.874855  -0.005  -0.068887  0.001361  3.153185  0.001  -0.061738  -0.000142  3.165478  -0.001  -0.070629  -0.07475  0.002607  3.145458  0.002
N  N57  1  0.73031205  0.96465646  0.92554160  1  -0.062253  0.003304  2.873738  0.005  -0.069057  -0.001351  3.151971  -0.001  -0.05546  0.000148  3.16966  0.001  -0.070751  -0.074883  -0.002595  3.144246  -0.002
N  N58  1  0.22299435  0.91143681  0.05486468  1  0.011544  0.000223  3.505972  0.001  0.116893  0.002095  3.704884  0.003  0.106998  0.001055  3.726783  0.002  -0.124903  0.126824  0.002834  3.686461  0.004
N  N59  1  0.77699306  0.08854268  0.94508945  1  0.011616  -0.000189  3.506165  -0.001  0.117475  -0.002077  3.704653  -0.003  0.085171  -0.001039  3.75828  -0.002  -0.124784  0.127326  -0.002816  3.686285  -0.004
N  N60  1  0.29285616  0.43462878  0.23287542  1  -0.226344  0.068236  3.327284  0.083  -0.19108  0.050969  3.650011  0.065  -0.213182  0.044944  3.663582  0.06  -0.235542  -0.178161  0.053536  3.641293  0.067
N  N61  1  0.70720634  0.56539601  0.76710042  1  -0.226512  -0.068272  3.326322  -0.083  -0.190915  -0.050977  3.648776  -0.065  -0.213036  -0.044968  3.66233  -0.06  -0.235466  -0.178009  -0.053542  3.640072  -0.067
N  N62  1  0.36450243  0.50130850  0.13145841  1  -0.048255  -0.004302  2.881192  -0.006  -0.056845  0.000765  3.156784  0.0  -0.042537  -0.000819  3.172436  -0.002  -0.067706  -0.062559  0.002142  3.149402  0.001
N  N63  1  0.63552567  0.49869778  0.86854008  1  -0.048475  0.004332  2.88054  0.006  -0.057354  -0.000754  3.156126  0.0  -0.042908  0.000828  3.171892  0.002  -0.067977  -0.063047  -0.002131  3.148756  -0.001
N  N64  1  0.41668853  0.61987919  0.15802432  1  0.01429  0.00014  3.505025  0.001  0.1215  0.002172  3.699169  0.003  0.087209  0.001074  3.752441  0.002  -0.12253  0.133041  0.003102  3.679487  0.004
N  N65  1  0.58336501  0.38014445  0.84196670  1  0.01433  -0.000108  3.505886  -0.001  0.121867  -0.002159  3.699585  -0.003  0.087275  -0.001058  3.753152  -0.002  -0.122358  0.133339  -0.003087  3.679928  -0.004
Cl  Cl66  1  0.92418872  0.38340255  0.16373809  1  -0.51811  0.12598  0.886553  0.139  -0.509164  0.085673  1.158015  0.1  -0.538308  0.069255  1.134406  0.084  -0.313476  -0.491736  0.093793  1.174462  0.106
Cl  Cl67  1  0.07572277  0.61653691  0.83640851  1  -0.518154  -0.126033  0.886178  -0.139  -0.509288  -0.085736  1.157757  -0.1  -0.538439  -0.069323  1.134176  -0.084  -0.313545  -0.491839  -0.093861  1.174185  -0.107
Cl  Cl68  1  0.39850660  0.11768991  0.35764402  1  -0.498747  0.145436  0.879273  0.164  -0.492664  0.097137  1.14899  0.118  -0.526145  0.078959  1.12781  0.099  -0.308029  -0.472784  0.104969  1.163958  0.124
Cl  Cl69  1  0.60118296  0.88229213  0.64253476  1  -0.498967  -0.145423  0.879063  -0.164  -0.492856  -0.097166  1.148767  -0.118  -0.526323  -0.079005  1.127575  -0.099  -0.308069  -0.472955  -0.104991  1.16373  -0.124
