# generated using pymatgen
data_CuH5C4S3N2
_symmetry_space_group_name_H-M   'P 1'
_cell_length_a   5.80280620
_cell_length_b   6.75794684
_cell_length_c   19.66314140
_cell_angle_alpha   89.99956934
_cell_angle_beta   89.99983424
_cell_angle_gamma   106.70934744
_symmetry_Int_Tables_number   1
_chemical_formula_structural   CuH5C4S3N2
_chemical_formula_sum   'Cu4 H20 C16 S12 N8'
_cell_volume   738.53232465
_cell_formula_units_Z   4
loop_
 _symmetry_equiv_pos_site_id
 _symmetry_equiv_pos_as_xyz
  1  'x, y, z'
loop_
 _atom_site_type_symbol
 _atom_site_label
 _atom_site_symmetry_multiplicity
 _atom_site_fract_x
 _atom_site_fract_y
 _atom_site_fract_z
 _atom_site_occupancy
 _atom_site_pbe_bader_spin_density
 _atom_site_pbe_cm5_charge
 _atom_site_pbe_ddec_charge
 _atom_site_pbe_ddec_spin_density
 _atom_site_pbe_ddec_sum_bond_order
 _atom_site_pbe_magmom
Cu  Cu0  1  0.81588946  0.79923091  0.69820206  1  0  0.41548  0.334301  0  2.809253  0
Cu  Cu1  1  0.18410089  0.70076971  0.19819966  1  0  0.415475  0.334345  0  2.809271  0
Cu  Cu2  1  0.18409859  0.20076448  0.30179679  1  0  0.415501  0.334376  0  2.809207  0
Cu  Cu3  1  0.81589266  0.29923187  0.80179919  1  0  0.415479  0.334363  0  2.809179  0
H  H4  1  0.51919067  0.30576592  0.70124927  1  0  0.309876  0.277167  0  0.949062  0
H  H5  1  0.48081172  0.19423504  0.20124812  1  0  0.309866  0.277178  0  0.948965  0
H  H6  1  0.48080740  0.69422332  0.29875263  1  0  0.309894  0.277136  0  0.949026  0
H  H7  1  0.51918943  0.80576347  0.79875073  1  0  0.30986  0.27718  0  0.948955  0
H  H8  1  0.35237974  0.41659569  0.59649695  1  0  0.103066  0.092361  0  1.016631  0
H  H9  1  0.64762788  0.08341379  0.09649526  1  0  0.103046  0.092372  0  1.016638  0
H  H10  1  0.64761848  0.58340436  0.40350698  1  0  0.103088  0.092431  0  1.016567  0
H  H11  1  0.35237500  0.91658473  0.90350410  1  0  0.103054  0.092408  0  1.016623  0
H  H12  1  0.27877009  0.14172385  0.59166170  1  0  0.083533  0.062706  0  1.068465  0
H  H13  1  0.72123931  0.35828172  0.09165963  1  0  0.083543  0.062726  0  1.068413  0
H  H14  1  0.72123502  0.85827622  0.40833715  1  0  0.083552  0.062738  0  1.068486  0
H  H15  1  0.27876306  0.64171525  0.90833821  1  0  0.083544  0.062723  0  1.068448  0
H  H16  1  0.69738712  0.46172846  0.52085098  1  0  0.090703  0.111385  0  1.00857  0
H  H17  1  0.30262667  0.03828057  0.02084852  1  0  0.090703  0.111361  0  1.00854  0
H  H18  1  0.30261934  0.53828087  0.47915550  1  0  0.090706  0.111381  0  1.008543  0
H  H19  1  0.69737466  0.96171331  0.97915186  1  0  0.090698  0.111374  0  1.008603  0
H  H20  1  0.49987875  0.22602403  0.48729304  1  0  0.094259  0.112194  0  1.025405  0
H  H21  1  0.50012792  0.27398679  0.98729198  1  0  0.094308  0.112212  0  1.025425  0
H  H22  1  0.50012733  0.77399456  0.51270734  1  0  0.09426  0.112203  0  1.025383  0
H  H23  1  0.49987412  0.72600400  0.01270687  1  0  0.094282  0.112249  0  1.025438  0
C  C24  1  0.76622618  0.21514430  0.64463365  1  0  0.132554  0.198985  0  4.10084  0
C  C25  1  0.23376714  0.28485785  0.14463209  1  0  0.132471  0.19896  0  4.100667  0
C  C26  1  0.23377240  0.78484648  0.35536876  1  0  0.132501  0.198983  0  4.100739  0
C  C27  1  0.76623279  0.71514220  0.85536880  1  0  0.13248  0.198947  0  4.100838  0
C  C28  1  0.42787380  0.28579834  0.59342477  1  0  -0.066626  -0.013516  0  3.886085  0
C  C29  1  0.57213219  0.21421215  0.09342243  1  0  -0.066664  -0.013569  0  3.885976  0
C  C30  1  0.57212767  0.71420634  0.40657814  1  0  -0.06667  -0.013602  0  3.886051  0
C  C31  1  0.42787017  0.78578482  0.90657641  1  0  -0.066674  -0.013584  0  3.886059  0
C  C32  1  0.59536970  0.30177399  0.53263200  1  0  -0.146845  -0.200601  0  3.854178  0
C  C33  1  0.40463824  0.19823547  0.03262833  1  0  -0.146857  -0.200541  0  3.854175  0
C  C34  1  0.40463038  0.69823687  0.46736990  1  0  -0.146838  -0.200659  0  3.854375  0
C  C35  1  0.59536412  0.80176150  0.96737001  1  0  -0.146878  -0.200739  0  3.854481  0
C  C36  1  0.29828127  0.74483486  0.64891815  1  0  0.13781  0.271514  0  4.228242  0
C  C37  1  0.70169287  0.75516972  0.14891641  1  0  0.137849  0.271667  0  4.228529  0
C  C38  1  0.70169727  0.25516822  0.35107968  1  0  0.137863  0.271701  0  4.228417  0
C  C39  1  0.29831378  0.24483498  0.85108295  1  0  0.137939  0.271767  0  4.228674  0
S  S40  1  0.94669394  0.17516124  0.70764462  1  0  -0.19714  -0.309102  0  3.099683  0
S  S41  1  0.05329862  0.32483460  0.20763963  1  0  -0.197121  -0.309041  0  3.099674  0
S  S42  1  0.05330376  0.82483726  0.29235524  1  0  -0.19713  -0.309087  0  3.099544  0
S  S43  1  0.94669563  0.67516389  0.79235769  1  0  -0.197115  -0.309004  0  3.099578  0
S  S44  1  0.81303231  0.16838207  0.55918321  1  0  0.048406  0.047429  0  2.755453  0
S  S45  1  0.18697229  0.33161644  0.05918002  1  0  0.048466  0.047472  0  2.755488  0
S  S46  1  0.18697140  0.83162416  0.44081614  1  0  0.048455  0.04748  0  2.755586  0
S  S47  1  0.81303059  0.66838207  0.94081679  1  0  0.048471  0.047541  0  2.755703  0
S  S48  1  0.04912299  0.74041685  0.60932230  1  0  -0.165964  -0.289441  0  2.849647  0
S  S49  1  0.95087608  0.75958880  0.10931993  1  0  -0.166009  -0.289552  0  2.849318  0
S  S50  1  0.95086436  0.25958162  0.39067655  1  0  -0.165981  -0.289526  0  2.849403  0
S  S51  1  0.04912419  0.24041743  0.89067841  1  0  -0.166046  -0.289634  0  2.849278  0
N  N52  1  0.57467280  0.28247259  0.65329612  1  0  -0.398962  -0.241739  0  3.605746  0
N  N53  1  0.42533841  0.21752953  0.15329187  1  0  -0.399004  -0.241922  0  3.605608  0
N  N54  1  0.42532905  0.71752284  0.34670527  1  0  -0.398974  -0.24173  0  3.605664  0
N  N55  1  0.57466791  0.78246899  0.84670647  1  0  -0.398912  -0.241825  0  3.605585  0
N  N56  1  0.48198918  0.74644626  0.67567251  1  0  -0.440159  -0.453661  0  3.432556  0
N  N57  1  0.51800355  0.75354592  0.17566774  1  0  -0.440122  -0.453703  0  3.433315  0
N  N58  1  0.51799267  0.25354603  0.32432990  1  0  -0.440178  -0.4538  0  3.433105  0
N  N59  1  0.48199051  0.24645720  0.82433365  1  0  -0.440176  -0.453737  0  3.433523  0
