# generated using pymatgen
data_HgH8C9(NCl)2
_symmetry_space_group_name_H-M   'P 1'
_cell_length_a   3.89917875
_cell_length_b   10.60475340
_cell_length_c   25.93636286
_cell_angle_alpha   90.00040744
_cell_angle_beta   90.00004418
_cell_angle_gamma   98.48678036
_symmetry_Int_Tables_number   1
_chemical_formula_structural   HgH8C9(NCl)2
_chemical_formula_sum   'Hg4 H32 C36 N8 Cl8'
_cell_volume   1060.72062652
_cell_formula_units_Z   4
loop_
 _symmetry_equiv_pos_site_id
 _symmetry_equiv_pos_as_xyz
  1  'x, y, z'
loop_
 _atom_site_type_symbol
 _atom_site_label
 _atom_site_symmetry_multiplicity
 _atom_site_fract_x
 _atom_site_fract_y
 _atom_site_fract_z
 _atom_site_occupancy
 _atom_site_hle17_bader_spin_density
 _atom_site_hle17_ddec_charge
 _atom_site_hle17_ddec_spin_density
 _atom_site_hle17_ddec_sum_bond_order
 _atom_site_hle17_magmom
 _atom_site_hse06_10hf_bader_spin_density
 _atom_site_hse06_10hf_ddec_charge
 _atom_site_hse06_10hf_ddec_spin_density
 _atom_site_hse06_10hf_ddec_sum_bond_order
 _atom_site_hse06_10hf_magmom
 _atom_site_hse06_bader_spin_density
 _atom_site_hse06_ddec_charge
 _atom_site_hse06_ddec_spin_density
 _atom_site_hse06_ddec_sum_bond_order
 _atom_site_hse06_magmom
 _atom_site_pbe_bader_spin_density
 _atom_site_pbe_cm5_charge
 _atom_site_pbe_ddec_charge
 _atom_site_pbe_ddec_spin_density
 _atom_site_pbe_ddec_sum_bond_order
 _atom_site_pbe_magmom
Hg  Hg0  1  0.36995648  0.57882972  0.42702874  1  0  0.746387  0  2.122644  0  0  0.602685  0  2.619917  0  0  0.651654  0  2.58539  0  0  0.482119  0.569186  0  2.642499  0
Hg  Hg1  1  0.13003948  0.92117123  0.92702687  1  0  0.746416  0  2.122565  0  0  0.602724  0  2.619809  0  0  0.651702  0  2.585265  0  0  0.482141  0.569227  0  2.642389  0
Hg  Hg2  1  0.63007557  0.42116958  0.57297304  1  0  0.746396  0  2.122618  0  0  0.602705  0  2.619864  0  0  0.651677  0  2.585331  0  0  0.482166  0.569205  0  2.642442  0
Hg  Hg3  1  0.86995228  0.07882995  0.07297029  1  0  0.746368  0  2.122627  0  0  0.602664  0  2.619888  0  0  0.651627  0  2.585379  0  0  0.482115  0.569165  0  2.642468  0
H  H4  1  0.96007759  0.71059065  0.23423400  1  0  0.123004  0  0.948095  0  0  0.142218  0  1.010924  0  0  0.14406  0  1.010032  0  0  0.094642  0.140771  0  1.011776  0
H  H5  1  0.53988621  0.78940393  0.73423867  1  0  0.122946  0  0.948116  0  0  0.142171  0  1.010942  0  0  0.144004  0  1.010062  0  0  0.094648  0.140748  0  1.011767  0
H  H6  1  0.03989908  0.28940479  0.76576354  1  0  0.12298  0  0.948167  0  0  0.142232  0  1.010948  0  0  0.144072  0  1.01006  0  0  0.094672  0.140785  0  1.011798  0
H  H7  1  0.46007620  0.21059436  0.26576658  1  0  0.123028  0  0.948141  0  0  0.142245  0  1.01095  0  0  0.144079  0  1.01007  0  0  0.09467  0.140801  0  1.011797  0
H  H8  1  0.18647896  0.87042353  0.23018853  1  0  0.124179  0  0.958078  0  0  0.144729  0  1.018909  0  0  0.145983  0  1.019219  0  0  0.091625  0.143786  0  1.018832  0
H  H9  1  0.31347385  0.62956242  0.73019121  1  0  0.124125  0  0.957901  0  0  0.144748  0  1.018685  0  0  0.145984  0  1.019013  0  0  0.091662  0.1438  0  1.018617  0
H  H10  1  0.81350133  0.12956811  0.76981017  1  0  0.12419  0  0.957957  0  0  0.144756  0  1.018787  0  0  0.14601  0  1.019099  0  0  0.091641  0.143813  0  1.018713  0
H  H11  1  0.68648373  0.37043016  0.26981134  1  0  0.124208  0  0.957939  0  0  0.144749  0  1.018783  0  0  0.146004  0  1.019093  0  0  0.091643  0.143807  0  1.018709  0
H  H12  1  0.76474063  0.83419071  0.20500841  1  0  0.123213  0  0.958427  0  0  0.142379  0  1.025595  0  0  0.143846  0  1.025093  0  0  0.088612  0.141313  0  1.026019  0
H  H13  1  0.73524178  0.66579956  0.70500849  1  0  0.123183  0  0.958412  0  0  0.142363  0  1.025593  0  0  0.14383  0  1.02509  0  0  0.088626  0.141299  0  1.026017  0
H  H14  1  0.23525875  0.16580380  0.79498875  1  0  0.123198  0  0.958435  0  0  0.142379  0  1.025608  0  0  0.143846  0  1.025107  0  0  0.088641  0.141316  0  1.026031  0
H  H15  1  0.26473164  0.33420065  0.29499098  1  0  0.123158  0  0.958445  0  0  0.142298  0  1.025656  0  0  0.143765  0  1.025155  0  0  0.088591  0.141237  0  1.026078  0
H  H16  1  0.63228804  0.64481664  0.31013968  1  0  0.090723  0  0.942042  0  0  0.097016  0  1.010153  0  0  0.100008  0  1.007236  0  0  0.109559  0.094895  0  1.012142  0
H  H17  1  0.86770133  0.85517647  0.81014033  1  0  0.090791  0  0.941947  0  0  0.097057  0  1.010093  0  0  0.100049  0  1.007176  0  0  0.109583  0.094934  0  1.012083  0
H  H18  1  0.36772492  0.35517979  0.68985979  1  0  0.090735  0  0.941996  0  0  0.097022  0  1.010119  0  0  0.100013  0  1.007203  0  0  0.109562  0.0949  0  1.012109  0
H  H19  1  0.13226802  0.14481992  0.18985992  1  0  0.090736  0  0.942  0  0  0.097025  0  1.010108  0  0  0.100018  0  1.00719  0  0  0.109572  0.094905  0  1.012098  0
H  H20  1  0.22178198  0.84602570  0.45137179  1  0  0.098544  0  0.986209  0  0  0.105425  0  1.058696  0  0  0.108425  0  1.056561  0  0  0.086769  0.103083  0  1.060591  0
H  H21  1  0.27819794  0.65398616  0.95137492  1  0  0.098514  0  0.986199  0  0  0.105392  0  1.058694  0  0  0.108389  0  1.056559  0  0  0.086743  0.103045  0  1.060598  0
H  H22  1  0.77825188  0.15397170  0.54862884  1  0  0.098555  0  0.986283  0  0  0.105397  0  1.058794  0  0  0.108396  0  1.056657  0  0  0.086742  0.103055  0  1.060689  0
H  H23  1  0.72178733  0.34602454  0.04862648  1  0  0.09855  0  0.986163  0  0  0.105416  0  1.058649  0  0  0.108413  0  1.056518  0  0  0.086769  0.103075  0  1.060546  0
H  H24  1  0.23578592  0.07403073  0.47625425  1  0  0.090364  0  0.957581  0  0  0.102167  0  1.017351  0  0  0.104363  0  1.017285  0  0  0.096133  0.100578  0  1.017473  0
H  H25  1  0.26421474  0.42598367  0.97625780  1  0  0.090418  0  0.957513  0  0  0.102265  0  1.017203  0  0  0.104473  0  1.017123  0  0  0.09617  0.100677  0  1.017325  0
H  H26  1  0.76424870  0.92596858  0.52374560  1  0  0.090512  0  0.957474  0  0  0.102289  0  1.01726  0  0  0.10448  0  1.017226  0  0  0.096176  0.100699  0  1.017383  0
H  H27  1  0.73577936  0.57402990  0.02374591  1  0  0.090367  0  0.957522  0  0  0.102194  0  1.017267  0  0  0.10439  0  1.017205  0  0  0.096124  0.100605  0  1.017388  0
H  H28  1  0.53463677  0.24661575  0.42092987  1  0  0.09006  0  0.977807  0  0  0.095449  0  1.049188  0  0  0.097868  0  1.048203  0  0  0.083907  0.093876  0  1.049549  0
H  H29  1  0.96539557  0.25339575  0.92093409  1  0  0.090006  0  0.977995  0  0  0.095394  0  1.049359  0  0  0.097808  0  1.048384  0  0  0.083882  0.093824  0  1.049719  0
H  H30  1  0.46537152  0.75338830  0.57906728  1  0  0.090065  0  0.977864  0  0  0.095451  0  1.049245  0  0  0.097867  0  1.048263  0  0  0.083901  0.093881  0  1.049605  0
H  H31  1  0.03464796  0.74661309  0.07906924  1  0  0.090164  0  0.977817  0  0  0.095542  0  1.049198  0  0  0.09796  0  1.048214  0  0  0.083935  0.093968  0  1.049557  0
H  H32  1  0.81313403  0.19498259  0.33888515  1  0  0.103894  0  0.962987  0  0  0.114129  0  1.026027  0  0  0.116726  0  1.025233  0  0  0.101456  0.112404  0  1.026215  0
H  H33  1  0.68688420  0.30501408  0.83888988  1  0  0.103856  0  0.963125  0  0  0.114146  0  1.026085  0  0  0.116747  0  1.025283  0  0  0.101491  0.112422  0  1.026274  0
H  H34  1  0.18685260  0.80501858  0.66110930  1  0  0.103859  0  0.96313  0  0  0.114132  0  1.026098  0  0  0.116731  0  1.025301  0  0  0.101481  0.112407  0  1.026287  0
H  H35  1  0.31314559  0.69497950  0.16111267  1  0  0.103853  0  0.963102  0  0  0.114091  0  1.026114  0  0  0.116688  0  1.025319  0  0  0.101453  0.112367  0  1.026301  0
C  C36  1  0.78928174  0.84392054  0.28763644  1  0  0.268159  0  3.73532  0  0  0.28081  0  3.988098  0  0  0.285408  0  4.006855  0  0  0.12714  0.27757  0  3.975389  0
C  C37  1  0.71070777  0.65607979  0.78764150  1  0  0.268231  0  3.735388  0  0  0.280858  0  3.98818  0  0  0.285455  0  4.006934  0  0  0.127168  0.27762  0  3.975467  0
C  C38  1  0.21070013  0.15608158  0.71235995  1  0  0.268235  0  3.735326  0  0  0.28089  0  3.988116  0  0  0.285485  0  4.006875  0  0  0.127186  0.277652  0  3.975406  0
C  C39  1  0.28928105  0.34392043  0.21236106  1  0  0.268409  0  3.735347  0  0  0.281071  0  3.988074  0  0  0.285669  0  4.006827  0  0  0.127261  0.277831  0  3.975366  0
C  C40  1  0.93399282  0.81193274  0.23668939  1  0  -0.379603  0  3.707556  0  0  -0.462276  0  3.93929  0  0  -0.465594  0  3.948376  0  0  -0.242854  -0.459735  0  3.933252  0
C  C41  1  0.56599991  0.68805715  0.73669801  1  0  -0.379565  0  3.707646  0  0  -0.4623  0  3.939338  0  0  -0.465588  0  3.948439  0  0  -0.242958  -0.459776  0  3.93328  0
C  C42  1  0.06599373  0.18806176  0.76330584  1  0  -0.379629  0  3.707738  0  0  -0.462336  0  3.939423  0  0  -0.465649  0  3.948504  0  0  -0.242947  -0.459797  0  3.93339  0
C  C43  1  0.43398407  0.31193735  0.26330841  1  0  -0.379702  0  3.707541  0  0  -0.462343  0  3.939279  0  0  -0.465648  0  3.94836  0  0  -0.242934  -0.459812  0  3.933237  0
C  C44  1  0.63640920  0.74451190  0.32104498  1  0  0.041682  0  3.649251  0  0  0.007247  0  3.901403  0  0  0.012363  0  3.917396  0  0  0.053443  0.004015  0  3.889783  0
C  C45  1  0.86357262  0.75548140  0.82104610  1  0  0.041519  0  3.649745  0  0  0.0071  0  3.901874  0  0  0.012213  0  3.917877  0  0  0.053422  0.003864  0  3.890268  0
C  C46  1  0.36359093  0.25548451  0.67895334  1  0  0.041653  0  3.649569  0  0  0.007204  0  3.90173  0  0  0.01232  0  3.917728  0  0  0.053437  0.003974  0  3.890099  0
C  C47  1  0.13640443  0.24451500  0.17895375  1  0  0.041626  0  3.649535  0  0  0.007193  0  3.901677  0  0  0.01231  0  3.917672  0  0  0.053456  0.003967  0  3.890044  0
C  C48  1  0.50399621  0.89198490  0.38032952  1  0  0.150492  0  3.783219  0  0  0.149001  0  4.02105  0  0  0.15188  0  4.046018  0  0  0.103777  0.146948  0  4.004257  0
C  C49  1  0.99599646  0.60802186  0.88033293  1  0  0.150551  0  3.782563  0  0  0.149061  0  4.02048  0  0  0.151989  0  4.045382  0  0  0.103734  0.146954  0  4.003759  0
C  C50  1  0.49600400  0.10801819  0.61966802  1  0  0.150503  0  3.782904  0  0  0.148959  0  4.020868  0  0  0.151853  0  4.045816  0  0  0.103691  0.146851  0  4.004147  0
C  C51  1  0.00400118  0.39198123  0.11966809  1  0  0.150578  0  3.782792  0  0  0.149033  0  4.020773  0  0  0.151944  0  4.045697  0  0  0.103715  0.146925  0  4.004055  0
C  C52  1  0.34960717  0.92287398  0.42708130  1  0  -0.146132  0  3.731728  0  0  -0.164949  0  3.983383  0  0  -0.1696  0  4.005506  0  0  -0.096417  -0.162078  0  3.968925  0
C  C53  1  0.15039717  0.57712221  0.92708921  1  0  -0.146117  0  3.731636  0  0  -0.164933  0  3.983325  0  0  -0.169597  0  4.005438  0  0  -0.096304  -0.162039  0  3.968878  0
C  C54  1  0.65041454  0.07711864  0.57291509  1  0  -0.146062  0  3.731836  0  0  -0.164777  0  3.983438  0  0  -0.169428  0  4.005559  0  0  -0.096262  -0.16189  0  3.96899  0
C  C55  1  0.84961180  0.42287707  0.07291566  1  0  -0.146198  0  3.731685  0  0  -0.164959  0  3.983375  0  0  -0.169619  0  4.005492  0  0  -0.096418  -0.162073  0  3.968936  0
C  C56  1  0.35791734  0.04901229  0.44066018  1  0  -0.041538  0  3.745478  0  0  -0.055804  0  3.991699  0  0  -0.057372  0  4.01469  0  0  -0.083761  -0.05459  0  3.976249  0
C  C57  1  0.14208985  0.45100624  0.94066263  1  0  -0.041609  0  3.746  0  0  -0.05592  0  3.992177  0  0  -0.057494  0  4.015171  0  0  -0.083821  -0.054705  0  3.976723  0
C  C58  1  0.64209683  0.95099367  0.55933968  1  0  -0.041897  0  3.745775  0  0  -0.05618  0  3.992013  0  0  -0.057757  0  4.014994  0  0  -0.08393  -0.054963  0  3.976559  0
C  C59  1  0.85792659  0.54900544  0.05933992  1  0  -0.04149  0  3.745507  0  0  -0.055793  0  3.991714  0  0  -0.057365  0  4.01471  0  0  -0.08373  -0.054578  0  3.976258  0
C  C60  1  0.52623203  0.14780648  0.40895041  1  0  -0.044195  0  3.739748  0  0  -0.058113  0  3.988168  0  0  -0.060566  0  4.011423  0  0  -0.084502  -0.056416  0  3.971909  0
C  C61  1  0.97380263  0.35219813  0.90895993  1  0  -0.044157  0  3.739213  0  0  -0.058059  0  3.987641  0  0  -0.060516  0  4.010913  0  0  -0.084546  -0.056366  0  3.971391  0
C  C62  1  0.47377912  0.85219185  0.59104405  1  0  -0.044156  0  3.739314  0  0  -0.058058  0  3.987714  0  0  -0.060515  0  4.010987  0  0  -0.084529  -0.056363  0  3.97146  0
C  C63  1  0.02623938  0.64780689  0.09104571  1  0  -0.044408  0  3.739327  0  0  -0.058325  0  3.987758  0  0  -0.060784  0  4.011027  0  0  -0.084578  -0.05663  0  3.971505  0
C  C64  1  0.67899861  0.11997762  0.36327975  1  0  -0.125392  0  3.707945  0  0  -0.14558  0  3.953783  0  0  -0.14957  0  3.976045  0  0  -0.083661  -0.142793  0  3.938259  0
C  C65  1  0.82100615  0.38002997  0.86328085  1  0  -0.125398  0  3.707474  0  0  -0.145609  0  3.953382  0  0  -0.149601  0  3.975644  0  0  -0.083683  -0.142825  0  3.937874  0
C  C66  1  0.32098659  0.88002642  0.63671895  1  0  -0.125309  0  3.707755  0  0  -0.145471  0  3.953619  0  0  -0.149463  0  3.975876  0  0  -0.083612  -0.142688  0  3.93811  0
C  C67  1  0.17902047  0.61997505  0.13672016  1  0  -0.125307  0  3.707684  0  0  -0.145413  0  3.953527  0  0  -0.149403  0  3.975785  0  0  -0.083607  -0.142628  0  3.938006  0
C  C68  1  0.66576465  0.99179300  0.34718663  1  0  0.166882  0  3.794874  0  0  0.169941  0  4.040196  0  0  0.172645  0  4.062041  0  0  0.112023  0.168042  0  4.025559  0
C  C69  1  0.83422787  0.50820745  0.84718819  1  0  0.166903  0  3.794891  0  0  0.169836  0  4.040398  0  0  0.172524  0  4.062236  0  0  0.112047  0.167952  0  4.025772  0
C  C70  1  0.33422892  0.00820627  0.65281168  1  0  0.166963  0  3.795003  0  0  0.169903  0  4.040535  0  0  0.172603  0  4.062375  0  0  0.112027  0.168019  0  4.025908  0
C  C71  1  0.16577709  0.49179469  0.15281205  1  0  0.16693  0  3.794794  0  0  0.169833  0  4.040338  0  0  0.172526  0  4.062176  0  0  0.112003  0.16795  0  4.025711  0
N  N72  1  0.80713702  0.96544901  0.30108337  1  0  -0.340213  0  2.962652  0  0  -0.319113  0  3.221008  0  0  -0.326339  0  3.23355  0  0  -0.299263  -0.314047  0  3.212619  0
N  N73  1  0.69284302  0.53454012  0.80108692  1  0  -0.340075  0  2.962289  0  0  -0.318933  0  3.220669  0  0  -0.326158  0  3.233213  0  0  -0.299172  -0.313868  0  3.212276  0
N  N74  1  0.19283709  0.03454644  0.69891147  1  0  -0.340224  0  2.962572  0  0  -0.3191  0  3.220986  0  0  -0.326325  0  3.233529  0  0  -0.299233  -0.314035  0  3.212594  0
N  N75  1  0.30715304  0.46545248  0.19891371  1  0  -0.340355  0  2.962677  0  0  -0.319204  0  3.221082  0  0  -0.32643  0  3.233623  0  0  -0.299293  -0.314139  0  3.212688  0
N  N76  1  0.50075288  0.76782263  0.36609604  1  0  -0.299112  0  3.238915  0  0  -0.235635  0  3.503667  0  0  -0.253599  0  3.526282  0  0  -0.297705  -0.223063  0  3.487216  0
N  N77  1  0.99921975  0.73217910  0.86609210  1  0  -0.299132  0  3.239174  0  0  -0.23562  0  3.503874  0  0  -0.253599  0  3.52648  0  0  -0.297769  -0.223031  0  3.487432  0
N  N78  1  0.49925208  0.23217951  0.63390613  1  0  -0.299159  0  3.239241  0  0  -0.235642  0  3.503995  0  0  -0.253611  0  3.526609  0  0  -0.297742  -0.223051  0  3.487557  0
N  N79  1  0.00075918  0.26782207  0.13390506  1  0  -0.299119  0  3.239144  0  0  -0.235601  0  3.503882  0  0  -0.253574  0  3.526487  0  0  -0.297702  -0.223012  0  3.487448  0
Cl  Cl80  1  0.78846899  0.65701792  0.49230171  1  0  -0.421907  0  1.15589  0  0  -0.355959  0  1.466092  0  0  -0.376895  0  1.447395  0  0  -0.220449  -0.341241  0  1.478585  0
Cl  Cl81  1  0.71153828  0.84297848  0.99230038  1  0  -0.421941  0  1.155863  0  0  -0.355985  0  1.466038  0  0  -0.376923  0  1.447336  0  0  -0.220466  -0.341264  0  1.478528  0
Cl  Cl82  1  0.21155718  0.34297947  0.50770046  1  0  -0.421922  0  1.155809  0  0  -0.355971  0  1.466001  0  0  -0.376911  0  1.447304  0  0  -0.220469  -0.341254  0  1.478493  0
Cl  Cl83  1  0.28846186  0.15701793  0.00769716  1  0  -0.421885  0  1.155859  0  0  -0.355946  0  1.466073  0  0  -0.376885  0  1.447377  0  0  -0.220449  -0.341227  0  1.478566  0
Cl  Cl84  1  0.93268834  0.46391490  0.37257763  1  0  -0.419488  0  1.092756  0  0  -0.35576  0  1.385406  0  0  -0.375682  0  1.367628  0  0  -0.222586  -0.342495  0  1.396844  0
Cl  Cl85  1  0.56731533  0.03608332  0.87257655  1  0  -0.419487  0  1.092714  0  0  -0.355775  0  1.385369  0  0  -0.375697  0  1.367589  0  0  -0.222599  -0.342507  0  1.396808  0
Cl  Cl86  1  0.06734333  0.53608344  0.62742415  1  0  -0.419476  0  1.092735  0  0  -0.355769  0  1.385413  0  0  -0.375689  0  1.367632  0  0  -0.222605  -0.342503  0  1.39685  0
Cl  Cl87  1  0.43268193  0.96391882  0.12742215  1  0  -0.419505  0  1.092757  0  0  -0.355776  0  1.385394  0  0  -0.375693  0  1.367617  0  0  -0.2226  -0.342511  0  1.396831  0
