# generated using pymatgen
data_CdH5C3S2NCl2
_symmetry_space_group_name_H-M   'P 1'
_cell_length_a   3.91002430
_cell_length_b   9.08735699
_cell_length_c   22.36155183
_cell_angle_alpha   89.99998863
_cell_angle_beta   90.00008207
_cell_angle_gamma   90.69288777
_symmetry_Int_Tables_number   1
_chemical_formula_structural   CdH5C3S2NCl2
_chemical_formula_sum   'Cd4 H20 C12 S8 N4 Cl8'
_cell_volume   794.48779043
_cell_formula_units_Z   4
loop_
 _symmetry_equiv_pos_site_id
 _symmetry_equiv_pos_as_xyz
  1  'x, y, z'
loop_
 _atom_site_type_symbol
 _atom_site_label
 _atom_site_symmetry_multiplicity
 _atom_site_fract_x
 _atom_site_fract_y
 _atom_site_fract_z
 _atom_site_occupancy
 _atom_site_hle17_bader_spin_density
 _atom_site_hle17_ddec_charge
 _atom_site_hle17_ddec_spin_density
 _atom_site_hle17_ddec_sum_bond_order
 _atom_site_hle17_magmom
 _atom_site_hse06_10hf_bader_spin_density
 _atom_site_hse06_10hf_ddec_charge
 _atom_site_hse06_10hf_ddec_spin_density
 _atom_site_hse06_10hf_ddec_sum_bond_order
 _atom_site_hse06_10hf_magmom
 _atom_site_hse06_bader_spin_density
 _atom_site_hse06_ddec_charge
 _atom_site_hse06_ddec_spin_density
 _atom_site_hse06_ddec_sum_bond_order
 _atom_site_hse06_magmom
 _atom_site_pbe_bader_spin_density
 _atom_site_pbe_cm5_charge
 _atom_site_pbe_ddec_charge
 _atom_site_pbe_ddec_spin_density
 _atom_site_pbe_ddec_sum_bond_order
 _atom_site_pbe_magmom
Cd  Cd0  1  0.74515705  0.84263125  0.95496644  1  0  0.891053  0  2.025638  0  0  0.756081  0  2.474641  0  0  0.799954  0  2.438521  0  0  0.49815  0.724994  0  2.499451  0
Cd  Cd1  1  0.24515371  0.34263270  0.54503285  1  0  0.891015  0  2.025648  0  0  0.756041  0  2.474643  0  0  0.799916  0  2.438527  0  0  0.498137  0.72496  0  2.499443  0
Cd  Cd2  1  0.25484268  0.15736800  0.04503358  1  0  0.891029  0  2.025606  0  0  0.756051  0  2.474603  0  0  0.799925  0  2.438485  0  0  0.49814  0.724969  0  2.499404  0
Cd  Cd3  1  0.75484095  0.65736874  0.45496671  1  0  0.891003  0  2.025691  0  0  0.75602  0  2.474703  0  0  0.799895  0  2.438584  0  0  0.498135  0.724932  0  2.499516  0
H  H4  1  0.50850964  0.24504671  0.78263313  1  0  0.098919  0  0.965795  0  0  0.109578  0  1.035942  0  0  0.111004  0  1.035846  0  0  0.091639  0.108517  0  1.036078  0
H  H5  1  0.00851046  0.74504711  0.71736655  1  0  0.098898  0  0.965812  0  0  0.10958  0  1.035945  0  0  0.111005  0  1.03585  0  0  0.091644  0.108518  0  1.03608  0
H  H6  1  0.49149521  0.75495255  0.21736643  1  0  0.098962  0  0.965735  0  0  0.109614  0  1.035897  0  0  0.111039  0  1.035801  0  0  0.091661  0.108552  0  1.036033  0
H  H7  1  0.99148927  0.25495214  0.28263346  1  0  0.098941  0  0.96577  0  0  0.109587  0  1.035941  0  0  0.111013  0  1.035846  0  0  0.091654  0.108525  0  1.036077  0
H  H8  1  0.93965245  0.31080535  0.77887942  1  0  0.084319  0  0.988035  0  0  0.094623  0  1.060461  0  0  0.095968  0  1.060628  0  0  0.082131  0.093607  0  1.060456  0
H  H9  1  0.43965337  0.81080905  0.72111948  1  0  0.084278  0  0.988054  0  0  0.094597  0  1.060488  0  0  0.095941  0  1.060657  0  0  0.082135  0.09358  0  1.060482  0
H  H10  1  0.06035238  0.68919281  0.22111925  1  0  0.08431  0  0.988057  0  0  0.094613  0  1.060507  0  0  0.095957  0  1.060677  0  0  0.082128  0.093596  0  1.060501  0
H  H11  1  0.56034643  0.18919350  0.27888009  1  0  0.08429  0  0.988035  0  0  0.094602  0  1.06047  0  0  0.095947  0  1.060638  0  0  0.082125  0.093585  0  1.060465  0
H  H12  1  0.44256121  0.32308737  0.88591978  1  0  0.075377  0  0.929177  0  0  0.090005  0  0.992342  0  0  0.090516  0  0.992467  0  0  0.095359  0.089486  0  0.992463  0
H  H13  1  0.94255186  0.82309156  0.61408002  1  0  0.075452  0  0.929195  0  0  0.09004  0  0.992367  0  0  0.090541  0  0.99251  0  0  0.095372  0.089524  0  0.992485  0
H  H14  1  0.55744870  0.67690969  0.11407979  1  0  0.075477  0  0.929164  0  0  0.090058  0  0.992346  0  0  0.090562  0  0.992486  0  0  0.09538  0.089542  0  0.992464  0
H  H15  1  0.05744280  0.17690988  0.38592000  1  0  0.07547  0  0.929165  0  0  0.090071  0  0.992313  0  0  0.090576  0  0.992444  0  0  0.095388  0.089551  0  0.992435  0
H  H16  1  0.87656684  0.27103823  0.88666129  1  0  0.087158  0  0.940924  0  0  0.101748  0  1.004477  0  0  0.102704  0  1.003852  0  0  0.098216  0.10087  0  1.005188  0
H  H17  1  0.37655932  0.77104418  0.61333760  1  0  0.087067  0  0.940946  0  0  0.101678  0  1.004437  0  0  0.102667  0  1.003772  0  0  0.098196  0.100801  0  1.005147  0
H  H18  1  0.12344307  0.72895883  0.11333783  1  0  0.0871  0  0.940877  0  0  0.10168  0  1.00441  0  0  0.102672  0  1.003744  0  0  0.098193  0.100803  0  1.00512  0
H  H19  1  0.62344052  0.22896058  0.38666197  1  0  0.087151  0  0.940855  0  0  0.10173  0  1.004403  0  0  0.102693  0  1.003768  0  0  0.098212  0.100852  0  1.005114  0
H  H20  1  0.88964372  0.53195353  0.91783801  1  0  0.29441  0  0.91868  0  0  0.275797  0  0.986491  0  0  0.283527  0  0.980561  0  0  0.284368  0.270301  0  0.990817  0
H  H21  1  0.38963566  0.03196046  0.58216135  1  0  0.294439  0  0.918638  0  0  0.275842  0  0.986487  0  0  0.283574  0  0.980555  0  0  0.284327  0.270344  0  0.990811  0
H  H22  1  0.11036104  0.46804132  0.08216066  1  0  0.294421  0  0.918655  0  0  0.27583  0  0.986488  0  0  0.283562  0  0.980556  0  0  0.284338  0.270332  0  0.990811  0
H  H23  1  0.61035654  0.96804538  0.41783822  1  0  0.294422  0  0.918782  0  0  0.275803  0  0.986588  0  0  0.283533  0  0.980658  0  0  0.284385  0.270308  0  0.990914  0
C  C24  1  0.70177329  0.59656667  0.83599393  1  0  0.235146  0  3.83269  0  0  0.208458  0  4.145711  0  0  0.231981  0  4.155191  0  0  0.132651  0.19287  0  4.138571  0
C  C25  1  0.20176576  0.09656916  0.66400582  1  0  0.23526  0  3.832714  0  0  0.208612  0  4.145777  0  0  0.232137  0  4.155258  0  0  0.132691  0.193023  0  4.138629  0
C  C26  1  0.29823154  0.40343148  0.16400564  1  0  0.235224  0  3.832693  0  0  0.208562  0  4.145765  0  0  0.232087  0  4.155244  0  0  0.13269  0.192973  0  4.138614  0
C  C27  1  0.79822635  0.90343228  0.33599419  1  0  0.235194  0  3.832672  0  0  0.20851  0  4.145662  0  0  0.232032  0  4.155143  0  0  0.132661  0.192922  0  4.138526  0
C  C28  1  0.68642072  0.33097254  0.79809451  1  0  -0.16642  0  3.61693  0  0  -0.203589  0  3.875156  0  0  -0.203933  0  3.885277  0  0  -0.148571  -0.203235  0  3.868134  0
C  C29  1  0.18641894  0.83097625  0.70190521  1  0  -0.166299  0  3.616853  0  0  -0.203557  0  3.875126  0  0  -0.203908  0  3.885258  0  0  -0.148542  -0.203197  0  3.868096  0
C  C30  1  0.31358666  0.66902562  0.20190505  1  0  -0.166431  0  3.616888  0  0  -0.203661  0  3.875187  0  0  -0.204011  0  3.885319  0  0  -0.148582  -0.203302  0  3.868157  0
C  C31  1  0.81357828  0.16902519  0.29809480  1  0  -0.166333  0  3.616855  0  0  -0.203549  0  3.875136  0  0  -0.203896  0  3.885257  0  0  -0.148531  -0.203193  0  3.86811  0
C  C32  1  0.69438807  0.34618799  0.86584473  1  0  0.059879  0  3.618346  0  0  0.002565  0  3.876734  0  0  0.007238  0  3.887348  0  0  -0.063909  -0.000408  0  3.86949  0
C  C33  1  0.19437815  0.84619392  0.63415500  1  0  0.059805  0  3.618271  0  0  0.002591  0  3.876612  0  0  0.007258  0  3.887189  0  0  -0.063927  -0.000383  0  3.869356  0
C  C34  1  0.30562182  0.65380798  0.13415439  1  0  0.059851  0  3.618215  0  0  0.002679  0  3.876522  0  0  0.007339  0  3.887107  0  0  -0.063865  -0.000297  0  3.869266  0
C  C35  1  0.80561659  0.15381083  0.36584502  1  0  0.059762  0  3.618235  0  0  0.002522  0  3.876539  0  0  0.007199  0  3.887133  0  0  -0.063938  -0.000454  0  3.869299  0
S  S36  1  0.54735602  0.51017896  0.77136646  1  0  0.047352  0  2.374844  0  0  0.056967  0  2.718433  0  0  0.052622  0  2.717247  0  0  0.048286  0.059863  0  2.719152  0
S  S37  1  0.04735409  0.01018143  0.72863414  1  0  0.047321  0  2.374805  0  0  0.056927  0  2.718416  0  0  0.052583  0  2.717228  0  0  0.048264  0.059826  0  2.71913  0
S  S38  1  0.45264878  0.48981809  0.22863444  1  0  0.047307  0  2.374806  0  0  0.056931  0  2.718416  0  0  0.052587  0  2.717226  0  0  0.048259  0.05983  0  2.71913  0
S  S39  1  0.95264313  0.98982001  0.27136676  1  0  0.047318  0  2.37485  0  0  0.056945  0  2.718442  0  0  0.052601  0  2.717255  0  0  0.048264  0.059838  0  2.71916  0
S  S40  1  0.71993982  0.78125853  0.84025570  1  0  -0.334623  0  2.169049  0  0  -0.313142  0  2.527074  0  0  -0.333609  0  2.524323  0  0  -0.159414  -0.299366  0  2.5289  0
S  S41  1  0.21992972  0.28126212  0.65974493  1  0  -0.334713  0  2.168982  0  0  -0.313248  0  2.527003  0  0  -0.333717  0  2.524252  0  0  -0.159466  -0.299468  0  2.528826  0
S  S42  1  0.28006757  0.21873963  0.15974476  1  0  -0.334668  0  2.168997  0  0  -0.313185  0  2.52702  0  0  -0.333654  0  2.52427  0  0  -0.159433  -0.299405  0  2.528843  0
S  S43  1  0.78005729  0.71874042  0.34025598  1  0  -0.334637  0  2.169042  0  0  -0.313152  0  2.527047  0  0  -0.333618  0  2.524295  0  0  -0.159422  -0.299379  0  2.528875  0
N  N44  1  0.79158858  0.49907476  0.87731889  1  0  -0.329426  0  3.369647  0  0  -0.264452  0  3.609338  0  0  -0.283381  0  3.62091  0  0  -0.404944  -0.251764  0  3.601274  0
N  N45  1  0.29157343  0.99907959  0.62268353  1  0  -0.32944  0  3.369842  0  0  -0.264523  0  3.609434  0  0  -0.283461  0  3.621017  0  0  -0.404875  -0.251854  0  3.601421  0
N  N46  1  0.20842390  0.50092231  0.12268291  1  0  -0.329464  0  3.369819  0  0  -0.264565  0  3.609473  0  0  -0.283502  0  3.621056  0  0  -0.404939  -0.251895  0  3.601458  0
N  N47  1  0.70841105  0.00092405  0.37731962  1  0  -0.329484  0  3.369693  0  0  -0.264512  0  3.609377  0  0  -0.283444  0  3.620947  0  0  -0.404986  -0.251813  0  3.60128  0
Cl  Cl48  1  0.23734074  0.66174408  0.98327345  1  0  -0.519683  0  1.089253  0  0  -0.4612  0  1.382144  0  0  -0.479972  0  1.363963  0  0  -0.283218  -0.447625  0  1.394762  0
Cl  Cl49  1  0.73733793  0.16174490  0.51672631  1  0  -0.519658  0  1.089254  0  0  -0.461184  0  1.382159  0  0  -0.479957  0  1.363975  0  0  -0.283203  -0.447613  0  1.394782  0
Cl  Cl50  1  0.76265901  0.33825627  0.01672657  1  0  -0.519681  0  1.089256  0  0  -0.461194  0  1.382145  0  0  -0.479966  0  1.36396  0  0  -0.283216  -0.44762  0  1.394768  0
Cl  Cl51  1  0.26265931  0.83825765  0.48327371  1  0  -0.519664  0  1.089251  0  0  -0.461174  0  1.382142  0  0  -0.479947  0  1.36396  0  0  -0.283214  -0.4476  0  1.394758  0
Cl  Cl52  1  0.24870678  0.04754348  0.93390123  1  0  -0.523457  0  1.142519  0  0  -0.453429  0  1.429606  0  0  -0.474611  0  1.410973  0  0  -0.270752  -0.438097  0  1.442245  0
Cl  Cl53  1  0.74870213  0.54754550  0.56609854  1  0  -0.523415  0  1.142513  0  0  -0.453389  0  1.429599  0  0  -0.474569  0  1.410964  0  0  -0.270738  -0.438059  0  1.442237  0
Cl  Cl54  1  0.75129805  0.95245468  0.06609789  1  0  -0.523449  0  1.142521  0  0  -0.453426  0  1.429611  0  0  -0.474609  0  1.410983  0  0  -0.27075  -0.438094  0  1.442249  0
Cl  Cl55  1  0.25129256  0.45245705  0.43390148  1  0  -0.523435  0  1.142541  0  0  -0.453404  0  1.429624  0  0  -0.47459  0  1.410998  0  0  -0.270742  -0.438073  0  1.442264  0
