# generated using pymatgen
data_Mg2H7C14SNO8
_symmetry_space_group_name_H-M   'P 1'
_cell_length_a   6.83502297
_cell_length_b   25.57612067
_cell_length_c   25.57608044
_cell_angle_alpha   119.21645049
_cell_angle_beta   95.11514141
_cell_angle_gamma   95.10428859
_symmetry_Int_Tables_number   1
_chemical_formula_structural   Mg2H7C14SNO8
_chemical_formula_sum   'Mg6 H21 C42 S3 N3 O24'
_cell_volume   3841.29868985
_cell_formula_units_Z   3
loop_
 _symmetry_equiv_pos_site_id
 _symmetry_equiv_pos_as_xyz
  1  'x, y, z'
loop_
 _atom_site_type_symbol
 _atom_site_label
 _atom_site_symmetry_multiplicity
 _atom_site_fract_x
 _atom_site_fract_y
 _atom_site_fract_z
 _atom_site_occupancy
 _atom_site_pbe_bader_charge
 _atom_site_pbe_bader_spin_density
 _atom_site_pbe_cm5_charge
 _atom_site_pbe_ddec_charge
 _atom_site_pbe_ddec_spin_density
 _atom_site_pbe_ddec_sum_bond_order
 _atom_site_pbe_magmom
Mg  Mg0  1  0.60125096  0.70454835  0.37720621  1  1.682817  0  0.9105  1.411393  0  1.327474  0
Mg  Mg1  1  0.01530575  0.29444655  0.62315925  1  1.683177  0  0.911745  1.411542  0  1.321337  0
Mg  Mg2  1  0.22411361  0.62275846  0.32733260  1  1.683877  0  0.910601  1.411526  0  1.327834  0
Mg  Mg3  1  0.39224346  0.37680800  0.67126017  1  1.684396  0  0.91153  1.411258  0  1.32134  0
Mg  Mg4  1  0.89658501  0.67258753  0.29537964  1  1.683251  0  0.911039  1.4121  0  1.326757  0
Mg  Mg5  1  0.72092934  0.32871775  0.70553821  1  1.684943  0  0.911412  1.411475  0  1.321213  0
H  H6  1  0.65048734  0.46995860  0.48239506  1  0.409578  0  0.306386  0.274772  0  0.933754  0
H  H7  1  0.93642231  0.53620059  0.41260399  1  0.134826  0  0.11241  0.127667  0  0.997008  0
H  H8  1  0.27765739  0.60184963  0.45367243  1  0.096139  0  0.111749  0.132882  0  0.989749  0
H  H9  1  0.40957659  0.54057044  0.49475077  1  0.095839  0  0.102831  0.111576  0  1.019124  0
H  H10  1  0.71186439  0.47624421  0.60122901  1  0.146984  0  0.115512  0.125364  0  0.997983  0
H  H11  1  0.34891053  0.39851635  0.54929030  1  0.088852  0  0.109746  0.127189  0  0.995868  0
H  H12  1  0.24467579  0.47550370  0.52318268  1  0.110431  0  0.113502  0.112806  0  0.998389  0
H  H13  1  0.16788159  0.51767020  0.98754679  1  0.410583  0  0.306539  0.274813  0  0.934107  0
H  H14  1  0.52347951  0.58751043  0.12357880  1  0.134257  0  0.112497  0.128185  0  0.996367  0
H  H15  1  0.82377667  0.54626392  0.14818090  1  0.107954  0  0.111784  0.133406  0  0.989761  0
H  H16  1  0.91450209  0.50522947  0.04581431  1  0.061663  0  0.102852  0.111399  0  1.018909  0
H  H17  1  0.11077886  0.39879841  0.87498460  1  0.132953  0  0.115327  0.125228  0  0.99854  0
H  H18  1  0.79947083  0.45086565  0.84925722  1  0.083683  0  0.109265  0.126083  0  0.995853  0
H  H19  1  0.72137755  0.47702619  0.95236182  1  0.114625  0  0.113565  0.112706  0  0.998031  0
H  H20  1  0.17995305  0.01239326  0.53005159  1  0.398935  0  0.305786  0.274017  0  0.934303  0
H  H21  1  0.39976259  0.87638731  0.46386362  1  0.129426  0  0.112407  0.128081  0  0.996901  0
H  H22  1  0.67542742  0.85174335  0.39803426  1  0.102245  0  0.112079  0.133396  0  0.989884  0
H  H23  1  0.86851539  0.95412453  0.45936155  1  0.093198  0  0.102957  0.111291  0  1.019459  0
H  H24  1  0.23548654  0.12500358  0.52383103  1  0.134592  0  0.115371  0.125399  0  0.998962  0
H  H25  1  0.95009333  0.15069317  0.60154194  1  0.08606  0  0.10966  0.126648  0  0.995949  0
H  H26  1  0.76862376  0.04758314  0.52464979  1  0.115787  0  0.113355  0.112567  0  0.998591  0
C  C27  1  0.68152966  0.53296698  0.45510071  1  0.306905  0  0.059073  0.192305  0  4.072744  0
C  C28  1  0.79232410  0.55062359  0.42198927  1  -0.08055  0  -0.079342  -0.134268  0  3.945747  0
C  C29  1  0.72258622  0.58755150  0.40014263  1  0.023573  0  -0.038339  -0.196317  0  3.957852  0
C  C30  1  0.53205911  0.60650291  0.41132348  1  0.590611  0  0.097793  0.364915  0  4.07564  0
C  C31  1  0.42173656  0.58714606  0.44453215  1  -0.01924  0  -0.100053  -0.191545  0  3.95455  0
C  C32  1  0.49579533  0.55205749  0.46686347  1  -0.040431  0  -0.083907  -0.128889  0  3.984368  0
C  C33  1  0.85189410  0.60477044  0.36605729  1  1.521719  0  0.239442  0.680004  0  4.118807  0
C  C34  1  0.97108891  0.47987622  0.56023749  1  -0.155728  0  -0.028092  -0.116748  0  4.017282  0
C  C35  1  0.84917257  0.45820455  0.58816554  1  -0.018883  0  -0.07106  -0.070219  0  3.968531  0
C  C36  1  0.90322871  0.41420697  0.60226110  1  -0.028483  0  -0.035211  -0.198773  0  3.937388  0
C  C37  1  0.09015692  0.39309523  0.58909779  1  0.589152  0  0.104079  0.376867  0  4.059455  0
C  C38  1  0.20817093  0.41535437  0.55942051  1  -0.004625  0  -0.100069  -0.209598  0  3.949592  0
C  C39  1  0.15066102  0.45787204  0.54503334  1  -0.041299  0  -0.063864  -0.028831  0  3.976813  0
C  C40  1  0.76568630  0.39390308  0.63235552  1  1.512042  0  0.241945  0.682189  0  4.118411  0
C  C41  1  0.22609217  0.54495051  0.07786468  1  0.260464  0  0.059202  0.192393  0  4.073671  0
C  C42  1  0.37002308  0.57809439  0.12863420  1  -0.023424  0  -0.079796  -0.135691  0  3.946725  0
C  C43  1  0.32221344  0.59988277  0.18741080  1  -0.026431  0  -0.037655  -0.195333  0  3.957458  0
C  C44  1  0.12052245  0.58866202  0.19517136  1  0.584112  0  0.097406  0.365776  0  4.074565  0
C  C45  1  0.97694689  0.55545558  0.14260720  1  -0.04955  0  -0.099797  -0.192854  0  3.955071  0
C  C46  1  0.02861918  0.53313092  0.08518498  1  0.054417  0  -0.083766  -0.128183  0  3.985515  0
C  C47  1  0.48567568  0.63394655  0.23870034  1  1.512546  0  0.239571  0.679331  0  4.118534  0
C  C48  1  0.41079782  0.43987743  0.91964648  1  -0.220572  0  -0.028461  -0.116655  0  4.01659  0
C  C49  1  0.26109121  0.41188919  0.87001722  1  -0.027411  0  -0.07073  -0.069947  0  3.96855  0
C  C50  1  0.30096323  0.39774586  0.81191199  1  -0.003595  0  -0.036057  -0.199396  0  3.937185  0
C  C51  1  0.50102696  0.41092614  0.80398532  1  0.623101  0  0.104135  0.376363  0  4.058829  0
C  C52  1  0.64864486  0.44068040  0.85595167  1  -0.074653  0  -0.098794  -0.206579  0  3.946549  0
C  C53  1  0.60551619  0.45512155  0.91286876  1  0.060743  0  -0.064403  -0.030317  0  3.977079  0
C  C54  1  0.13331363  0.36762610  0.76150934  1  1.491095  0  0.242206  0.682188  0  4.116827  0
C  C55  1  0.14804651  0.92207988  0.46703334  1  0.254674  0  0.058771  0.192312  0  4.072561  0
C  C56  1  0.24122851  0.87131743  0.44939324  1  0.019618  0  -0.079015  -0.135068  0  3.94573  0
C  C57  1  0.13468389  0.81253427  0.41241870  1  -0.025395  0  -0.038101  -0.196539  0  3.957168  0
C  C58  1  0.92522622  0.80476304  0.39342029  1  0.574705  0  0.097772  0.366182  0  4.074306  0
C  C59  1  0.83418744  0.85732408  0.41277540  1  0.055359  0  -0.100325  -0.192883  0  3.953028  0
C  C60  1  0.94325435  0.91474825  0.44789832  1  -0.092462  0  -0.084316  -0.128516  0  3.984304  0
C  C61  1  0.24688683  0.76124397  0.39520191  1  1.519835  0  0.240546  0.681412  0  4.117815  0
C  C62  1  0.49087288  0.08032584  0.52022286  1  -0.185195  0  -0.027988  -0.115516  0  4.017778  0
C  C63  1  0.39078746  0.12995481  0.54187851  1  -0.035527  0  -0.071337  -0.071254  0  3.971165  0
C  C64  1  0.48887016  0.18805557  0.58581648  1  0.018655  0  -0.036236  -0.199548  0  3.937311  0
C  C65  1  0.69690060  0.19598555  0.60692232  1  0.56173  0  0.104308  0.377132  0  4.060736  0
C  C66  1  0.79251227  0.14401229  0.58471919  1  0.029595  0  -0.099737  -0.207714  0  3.949271  0
C  C67  1  0.69241242  0.08710732  0.54223061  1  -0.017487  0  -0.063175  -0.029478  0  3.978032  0
C  C68  1  0.37166206  0.23845894  0.60610224  1  1.51114  0  0.24263  0.683343  0  4.116844  0
S  S69  1  0.90515328  0.53859499  0.54743413  1  2.801667  0  0.544048  1.08064  0  5.898001  0
S  S70  1  0.35755156  0.45263461  0.99114677  1  2.818747  0  0.544826  1.080554  0  5.899453  0
S  S71  1  0.36625447  0.00880549  0.46147173  1  2.800137  0  0.544979  1.080074  0  5.89986  0
N  N72  1  0.76154618  0.49658062  0.47808310  1  -1.135107  0  -0.450122  -0.521064  0  3.320161  0
N  N73  1  0.28317505  0.52197124  0.01849838  1  -1.138404  0  -0.450622  -0.521305  0  3.320705  0
N  N74  1  0.26442838  0.98145850  0.50344956  1  -1.128945  0  -0.449464  -0.519905  0  3.318902  0
O  O75  1  0.01379203  0.58371524  0.35340103  1  -1.240262  0  -0.353888  -0.64215  0  2.146114  0
O  O76  1  0.79766230  0.64281059  0.35006825  1  -1.299095  0  -0.401473  -0.768771  0  2.414603  0
O  O77  1  0.45380658  0.64177154  0.39238274  1  -1.308174  0  -0.448626  -0.779705  0  2.316062  0
O  O78  1  0.60275957  0.41453669  0.64395275  1  -1.23426  0  -0.349302  -0.636105  0  2.152073  0
O  O79  1  0.81362542  0.35388216  0.64634622  1  -1.297769  0  -0.404043  -0.77564  0  2.412389  0
O  O80  1  0.16160069  0.35441573  0.60428164  1  -1.306012  0  -0.442941  -0.771273  0  2.30028  0
O  O81  1  0.78791939  0.57382092  0.59326958  1  -1.287315  0  -0.322628  -0.527732  0  2.083333  0
O  O82  1  0.07913219  0.56805719  0.53873576  1  -1.295755  0  -0.307712  -0.514698  0  2.130859  0
O  O83  1  0.66021857  0.64659908  0.23029411  1  -1.235035  0  -0.354125  -0.641838  0  2.145515  0
O  O84  1  0.44752261  0.64991738  0.29273083  1  -1.297064  0  -0.40166  -0.768407  0  2.414127  0
O  O85  1  0.06126944  0.60756446  0.24937165  1  -1.308655  0  -0.449001  -0.780367  0  2.316188  0
O  O86  1  0.95882958  0.35602339  0.77055496  1  -1.233776  0  -0.349423  -0.636372  0  2.151796  0
O  O87  1  0.16724312  0.35362888  0.70750373  1  -1.29706  0  -0.40349  -0.774477  0  2.411023  0
O  O88  1  0.55735130  0.39572473  0.75012212  1  -1.302321  0  -0.443212  -0.771684  0  2.300696  0
O  O89  1  0.19453540  0.40677646  0.98050095  1  -1.285015  0  -0.323155  -0.527615  0  2.084208  0
O  O90  1  0.54018936  0.46132624  0.02932421  1  -1.296149  0  -0.307423  -0.514297  0  2.132131  0
O  O91  1  0.42984907  0.76966019  0.41626898  1  -1.241769  0  -0.354149  -0.642413  0  2.145716  0
O  O92  1  0.15474882  0.70720957  0.35713734  1  -1.303333  0  -0.402101  -0.769229  0  2.414642  0
O  O93  1  0.81181543  0.75055581  0.35814222  1  -1.30922  0  -0.449063  -0.780413  0  2.316848  0
O  O94  1  0.18808929  0.22944124  0.58549060  1  -1.245271  0  -0.349589  -0.636895  0  2.151764  0
O  O95  1  0.45970122  0.29246442  0.64609077  1  -1.308691  0  -0.403838  -0.775341  0  2.411827  0
O  O96  1  0.80714127  0.24984431  0.64556674  1  -1.308301  0  -0.443351  -0.772118  0  2.300577  0
O  O97  1  0.21397425  0.01941981  0.42619288  1  -1.276894  0  -0.323099  -0.527472  0  2.083832  0
O  O98  1  0.51086444  0.97066100  0.43205133  1  -1.29682  0  -0.308015  -0.514806  0  2.133092  0
