# generated using pymatgen
data_CoH24C36(NO)4
_symmetry_space_group_name_H-M   'P 1'
_cell_length_a   10.76869768
_cell_length_b   13.31412847
_cell_length_c   15.14742745
_cell_angle_alpha   65.09492115
_cell_angle_beta   85.56826691
_cell_angle_gamma   73.44655794
_symmetry_Int_Tables_number   1
_chemical_formula_structural   CoH24C36(NO)4
_chemical_formula_sum   'Co2 H48 C72 N8 O8'
_cell_volume   1885.89465335
_cell_formula_units_Z   2
loop_
 _symmetry_equiv_pos_site_id
 _symmetry_equiv_pos_as_xyz
  1  'x, y, z'
loop_
 _atom_site_type_symbol
 _atom_site_label
 _atom_site_symmetry_multiplicity
 _atom_site_fract_x
 _atom_site_fract_y
 _atom_site_fract_z
 _atom_site_occupancy
 _atom_site_pbe_bader_charge
 _atom_site_pbe_bader_spin_density
 _atom_site_pbe_cm5_charge
 _atom_site_pbe_ddec_charge
 _atom_site_pbe_ddec_spin_density
 _atom_site_pbe_ddec_sum_bond_order
 _atom_site_pbe_magmom
Co  Co0  1  0.87074437  0.98583148  0.41269563  1  1.308947  2.62041  0.688709  0.891056  2.873926  2.5684  2.599
Co  Co1  1  0.12925777  0.01416813  0.58730036  1  1.309029  2.620398  0.688735  0.891098  2.873915  2.568481  2.599
H  H2  1  0.76779746  0.24450238  0.31154888  1  0.114643  0.001355  0.120394  0.094373  0.000276  1.005767  0.001
H  H3  1  0.23221371  0.75549197  0.68845847  1  0.114522  0.001355  0.120328  0.094254  0.000276  1.005835  0.001
H  H4  1  0.84347357  0.41392699  0.20092478  1  0.091718  0.000865  0.106768  0.112881  0.000432  1.014651  0.0
H  H5  1  0.15652757  0.58607250  0.79908980  1  0.09183  0.000865  0.106739  0.112913  0.000432  1.014592  0.0
H  H6  1  0.21082609  0.17669970  0.19730203  1  0.103228  0.000742  0.108054  0.11441  0.000361  1.018693  0.0
H  H7  1  0.78917823  0.82330753  0.80270955  1  0.10363  0.000742  0.108078  0.11438  0.000362  1.01863  0.0
H  H8  1  0.11941387  0.01609858  0.30772669  1  0.05431  0.001506  0.120926  0.095255  0.000278  0.993116  0.001
H  H9  1  0.88059238  0.98390270  0.69227442  1  0.054376  0.001505  0.12092  0.095211  0.000278  0.993093  0.001
H  H10  1  0.00691080  0.49224180  0.09714028  1  0.07037  -2.8e-05  0.103987  0.062017  3.4e-05  1.001399  0.0
H  H11  1  0.99309039  0.50775779  0.90286039  1  0.070374  -2.8e-05  0.103993  0.062045  3.4e-05  1.001398  0.0
H  H12  1  0.13759902  0.60660984  0.08479870  1  0.025208  -1.2e-05  0.098791  0.099744  -1.1e-05  1.012212  0.0
H  H13  1  0.86239697  0.39339753  0.91519742  1  0.025346  -1.2e-05  0.098763  0.099694  -1.1e-05  1.01223  0.0
H  H14  1  0.23440188  0.76180872  0.97479654  1  0.064492  -4.5e-05  0.103265  0.104536  -2e-05  0.986842  0.0
H  H15  1  0.76559614  0.23819523  0.02519478  1  0.064471  -4.5e-05  0.103238  0.10451  -2.1e-05  0.986812  0.0
H  H16  1  0.39280344  0.72838605  0.85514183  1  0.108934  1.5e-05  0.103603  0.1066  -5.3e-05  1.028366  0.0
H  H17  1  0.60719978  0.27160406  0.14485955  1  0.108852  1.5e-05  0.103583  0.106541  -5.3e-05  1.028344  0.0
H  H18  1  0.57158307  0.41335834  0.76529244  1  0.051065  9e-06  0.100022  0.103272  -1e-06  1.01785  0.0
H  H19  1  0.42842253  0.58663000  0.23471541  1  0.051107  9e-06  0.100019  0.103217  -1e-06  1.017932  0.0
H  H20  1  0.48275680  0.25492145  0.88021527  1  0.077673  -5e-05  0.100778  0.102124  -3e-05  1.001573  0.0
H  H21  1  0.51725076  0.74506944  0.11979749  1  0.077731  -5e-05  0.100828  0.102209  -3e-05  1.001649  0.0
H  H22  1  0.33029045  0.28661672  0.00399754  1  0.072688  -6.7e-05  0.09601  0.092933  -9.1e-05  1.054637  0.0
H  H23  1  0.66970873  0.71338026  0.99600749  1  0.072764  -6.7e-05  0.096006  0.092952  -9.1e-05  1.054711  0.0
H  H24  1  0.70970501  0.51573443  0.76850885  1  0.053639  1.2e-05  0.101387  0.048804  5.5e-05  1.022939  0.0
H  H25  1  0.29029513  0.48426259  0.23148951  1  0.053653  1.2e-05  0.101377  0.048817  5.5e-05  1.022942  0.0
H  H26  1  0.52505246  0.83857208  0.64746204  1  0.161079  0.000914  0.111368  0.127592  0.000496  1.036164  0.0
H  H27  1  0.47495140  0.16142492  0.35253878  1  0.161107  0.000913  0.111342  0.127552  0.000496  1.036227  0.0
H  H28  1  0.62438213  0.97926028  0.51520769  1  0.115629  0.001385  0.12157  0.097931  0.000246  0.998496  0.001
H  H29  1  0.37561337  0.02073678  0.48478627  1  0.115566  0.001385  0.121573  0.097947  0.000246  0.998527  0.001
H  H30  1  0.95352118  0.72345340  0.52257462  1  0.126007  0.001597  0.118151  0.091989  0.000439  1.012685  0.001
H  H31  1  0.04647339  0.27654368  0.47741740  1  0.125948  0.001597  0.118156  0.092091  0.000439  1.012695  0.001
H  H32  1  0.87123308  0.57087963  0.65594157  1  0.107309  0.000982  0.105911  0.109923  0.000482  0.994981  0.0
H  H33  1  0.12876483  0.42911572  0.34405026  1  0.10734  0.000982  0.105902  0.109873  0.000482  0.995007  0.0
H  H34  1  0.48026141  0.08542293  0.22798610  1  0.091869  0.000483  0.103983  0.105962  0.000273  1.013015  0.0
H  H35  1  0.51974136  0.91458958  0.77200779  1  0.0918  0.000483  0.103936  0.10599  0.000273  1.013035  0.0
H  H36  1  0.36330826  0.08247752  0.09632273  1  0.015269  8.7e-05  0.096818  0.091392  5.2e-05  1.034872  0.0
H  H37  1  0.63668383  0.91753931  0.90367278  1  0.015326  8.7e-05  0.096866  0.091524  5.2e-05  1.03477  0.0
H  H38  1  0.72653406  0.91494018  0.00985483  1  0.070498  3.8e-05  0.098986  0.097821  1.4e-05  1.020122  0.0
H  H39  1  0.27346103  0.08504909  0.99014861  1  0.070627  3.8e-05  0.099014  0.097852  1.4e-05  1.020109  0.0
H  H40  1  0.84002986  0.91482726  0.14507645  1  0.082605  0.000691  0.103815  0.109809  0.000404  0.998429  0.0
H  H41  1  0.15996350  0.08516459  0.85492547  1  0.082494  0.000691  0.103741  0.109761  0.000404  0.99837  0.0
H  H42  1  0.56920968  0.60401368  0.57010352  1  0.045949  6e-05  0.092798  0.084959  -6.2e-05  1.065314  0.0
H  H43  1  0.43079447  0.39598854  0.42988679  1  0.046162  6e-05  0.092806  0.084947  -6.2e-05  1.065315  0.0
H  H44  1  0.40300416  0.77799654  0.56114850  1  0.115039  0.000139  0.104801  0.108366  -1.3e-05  1.029175  0.0
H  H45  1  0.59700103  0.22200823  0.43884545  1  0.115425  0.000139  0.104793  0.108371  -1.3e-05  1.029179  0.0
H  H46  1  0.13824674  0.71082892  0.40894667  1  0.093897  0.00026  0.1063  0.112652  9.6e-05  0.994967  0.0
H  H47  1  0.86175549  0.28917928  0.59105080  1  0.093876  0.00026  0.10632  0.112657  9.6e-05  0.994944  0.0
H  H48  1  0.30272578  0.53417423  0.41865943  1  0.03105  0.000104  0.094779  0.090221  5.5e-05  1.03863  0.0
H  H49  1  0.69726300  0.46583226  0.58134002  1  0.031079  0.000104  0.094756  0.090185  5.5e-05  1.038659  0.0
C  C50  1  0.86602751  0.23303831  0.28591367  1  0.462328  -0.012297  0.047721  0.099261  -0.012718  3.930715  -0.008
C  C51  1  0.13397925  0.76696122  0.71409202  1  0.462264  -0.012295  0.047736  0.099374  -0.012716  3.930758  -0.008
C  C52  1  0.90876266  0.32710729  0.22405218  1  -0.009647  0.005297  -0.079902  -0.165886  0.002208  3.941876  0.005
C  C53  1  0.09124794  0.67289478  0.77595699  1  -0.009687  0.005296  -0.07988  -0.165966  0.002208  3.941688  0.005
C  C54  1  0.03432328  0.30908629  0.19000249  1  -0.058674  -0.014716  -0.000836  0.092392  -0.015341  4.039525  -0.009
C  C55  1  0.96568277  0.69091835  0.81001061  1  0.007187  -0.014726  -0.00077  0.092293  -0.015344  4.039668  -0.009
C  C56  1  0.11233546  0.19451401  0.22153484  1  0.025014  0.003818  -0.080862  -0.161798  0.001682  3.936079  0.003
C  C57  1  0.88767047  0.80548806  0.77847723  1  -0.041444  0.003826  -0.080862  -0.161629  0.001683  3.936082  0.003
C  C58  1  0.06228235  0.10571136  0.28310547  1  0.516207  -0.008363  0.04774  0.101998  -0.008978  3.941739  -0.005
C  C59  1  0.93772294  0.89428989  0.71690098  1  0.516681  -0.008367  0.047755  0.102057  -0.008982  3.941574  -0.005
C  C60  1  0.07892845  0.40657566  0.12192784  1  0.638014  -0.0024  0.070603  0.062947  -0.002803  3.967048  0.0
C  C61  1  0.92107496  0.59342556  0.87808400  1  0.637861  -0.0024  0.070499  0.062879  -0.002804  3.967247  0.0
C  C62  1  0.24050972  0.48387549  0.02832172  1  0.317172  0.000662  0.08848  0.154474  1e-06  4.063564  0.001
C  C63  1  0.75949227  0.51612148  0.97168250  1  0.316948  0.000662  0.088457  0.154486  2e-06  4.063875  0.001
C  C64  1  0.20594566  0.59142496  0.03165769  1  0.007491  -0.003727  -0.096888  -0.180887  -0.003857  4.001329  -0.002
C  C65  1  0.79405672  0.40857374  0.96834523  1  0.007462  -0.003727  -0.096859  -0.18088  -0.003858  4.001432  -0.002
C  C66  1  0.26163368  0.67885180  0.97010651  1  -0.044741  9.1e-05  -0.091229  -0.067054  -0.000113  4.029715  0.0
C  C67  1  0.73836645  0.32114520  0.02989582  1  -0.044888  9.1e-05  -0.091192  -0.066998  -0.000113  4.029642  0.0
C  C68  1  0.35065076  0.66056600  0.90386889  1  -0.022019  -0.003564  -0.082415  -0.10816  -0.003781  3.957092  -0.002
C  C69  1  0.64934100  0.33943105  0.09612725  1  -0.022016  -0.003564  -0.082429  -0.108131  -0.00378  3.956918  -0.002
C  C70  1  0.38726573  0.55306131  0.89729661  1  -0.029037  -0.000846  -0.00253  0.008853  -0.000855  3.953589  0.0
C  C71  1  0.61272828  0.44693745  0.10270011  1  -0.029279  -0.000845  -0.002403  0.009014  -0.000855  3.95357  0.0
C  C72  1  0.47729591  0.53222048  0.82782713  1  0.420457  0.000394  0.09681  0.165608  -7.3e-05  4.044211  0.001
C  C73  1  0.52269665  0.46778004  0.17216573  1  0.4202  0.000393  0.096681  0.1653  -7.3e-05  4.044313  0.001
C  C74  1  0.50853197  0.42623031  0.82180168  1  -0.013117  -0.002832  -0.093976  -0.17222  -0.002952  3.978953  -0.002
C  C75  1  0.49147069  0.57376148  0.17820572  1  -0.013156  -0.00283  -0.093918  -0.171992  -0.002949  3.978879  -0.002
C  C76  1  0.45603706  0.33762271  0.88538074  1  -0.041651  -0.000181  -0.093918  -0.066474  -0.000234  4.042801  0.0
C  C77  1  0.54396560  0.66236907  0.11462799  1  -0.041685  -0.000181  -0.094026  -0.066736  -0.000235  4.043076  0.0
C  C78  1  0.37073319  0.35484736  0.95395340  1  -0.06928  -0.002467  -0.096399  -0.134025  -0.002608  4.001205  -0.001
C  C79  1  0.62926267  0.64515135  0.04605050  1  -0.069232  -0.002465  -0.096371  -0.133953  -0.002606  4.001182  -0.001
C  C80  1  0.33394062  0.46219782  0.96077873  1  0.036771  -0.00112  -0.005638  0.008566  -0.001136  3.963333  -0.001
C  C81  1  0.66605858  0.53779918  0.03922365  1  0.03692  -0.00112  -0.005667  0.008538  -0.001135  3.963258  -0.001
C  C82  1  0.64097292  0.60298850  0.73704818  1  0.649743  -0.001139  0.076508  0.073063  -0.001593  3.975174  0.001
C  C83  1  0.35903056  0.39700680  0.26294998  1  0.649711  -0.001139  0.076451  0.072888  -0.001593  3.975427  0.001
C  C84  1  0.69060013  0.69225159  0.66197646  1  -0.048556  -0.012733  0.001989  0.095018  -0.013281  4.031124  -0.008
C  C85  1  0.30940055  0.30774371  0.33802250  1  -0.048123  -0.012734  0.002003  0.094975  -0.013282  4.031142  -0.008
C  C86  1  0.62013960  0.80947275  0.62149371  1  -0.042391  0.004863  -0.07472  -0.157877  0.002284  3.898599  0.004
C  C87  1  0.37985896  0.19052344  0.37850173  1  -0.042527  0.004864  -0.074728  -0.157868  0.002285  3.898708  0.004
C  C88  1  0.67424513  0.88746655  0.54823854  1  0.477063  -0.008222  0.049248  0.099418  -0.008756  3.923239  -0.005
C  C89  1  0.32575462  0.11252875  0.45176047  1  0.477138  -0.008225  0.049264  0.099405  -0.008759  3.923254  -0.005
C  C90  1  0.85897708  0.74434807  0.55202931  1  0.478508  -0.009143  0.045708  0.097417  -0.009663  3.953535  -0.006
C  C91  1  0.14101763  0.25564556  0.44796529  1  0.479337  -0.009143  0.045706  0.097218  -0.009663  3.95371  -0.006
C  C92  1  0.81266771  0.66066255  0.62612243  1  -0.069725  0.004515  -0.085963  -0.181892  0.001815  3.978558  0.004
C  C93  1  0.18732899  0.33933364  0.37387311  1  -0.070662  0.004516  -0.085928  -0.181693  0.001816  3.978404  0.004
C  C94  1  0.66798447  0.00068202  0.19475540  1  0.000945  0.002906  -0.017252  -0.021901  0.001567  3.973457  0.002
C  C95  1  0.33201220  0.99932018  0.80523992  1  0.000841  0.002907  -0.017292  -0.022001  0.001568  3.973328  0.002
C  C96  1  0.53329269  0.04788510  0.17979359  1  -0.063115  -0.000471  -0.08257  -0.08598  -0.000802  3.974769  0.0
C  C97  1  0.46670755  0.95212657  0.82020008  1  -0.062849  -0.000471  -0.082461  -0.085908  -0.000801  3.974849  0.0
C  C98  1  0.46826508  0.04630973  0.10478989  1  -0.056773  0.0003  -0.090805  -0.132197  3.9e-05  3.985001  0.0
C  C99  1  0.53172864  0.95370196  0.89520279  1  -0.056863  0.0003  -0.090849  -0.132369  3.9e-05  3.985274  0.0
C  C100  1  0.53468855  0.99974851  0.04055300  1  0.021602  -0.001831  -0.00665  0.06294  -0.001923  3.997715  -0.001
C  C101  1  0.46530477  0.00025540  0.95944518  1  0.056926  -0.001822  -0.006712  0.062774  -0.001923  3.997868  -0.001
C  C102  1  0.67026821  0.95264055  0.05683292  1  -0.087279  0.000217  -0.093538  -0.137147  -3.6e-05  3.99613  0.0
C  C103  1  0.32972568  0.04735563  0.94316542  1  -0.087485  0.000217  -0.093546  -0.137211  -3.6e-05  3.996238  0.0
C  C104  1  0.73541250  0.95247102  0.13255032  1  -0.044602  2.5e-05  -0.085295  -0.091696  -0.000338  3.991264  0.0
C  C105  1  0.26458165  0.04752428  0.86745030  1  -0.044237  2.4e-05  -0.085253  -0.09157  -0.000338  3.99104  0.0
C  C106  1  0.45024271  0.55310121  0.49622627  1  0.042947  -0.002253  -0.005131  0.072634  -0.002395  3.986385  -0.001
C  C107  1  0.54976113  0.44690181  0.50377367  1  0.00452  -0.002274  -0.005121  0.072666  -0.002397  3.98635  -0.001
C  C108  1  0.47526987  0.62506175  0.53496268  1  -0.050219  0.000555  -0.092262  -0.123864  0.000202  3.974018  0.001
C  C109  1  0.52472892  0.37494562  0.46503131  1  -0.049584  0.000556  -0.092331  -0.123942  0.000203  3.974022  0.001
C  C110  1  0.38230053  0.72410333  0.52972881  1  -0.110927  -0.000964  -0.084822  -0.084112  -0.001336  3.974381  0.0
C  C111  1  0.61769665  0.27590316  0.47026823  1  -0.111382  -0.000966  -0.084746  -0.084037  -0.001337  3.974321  0.0
C  C112  1  0.25974295  0.75521803  0.48511647  1  0.014148  0.00913  -0.024752  -0.048338  0.00465  4.003055  0.008
C  C113  1  0.74025557  0.24479020  0.51487655  1  0.014665  0.009132  -0.024741  -0.048321  0.004651  4.003095  0.008
C  C114  1  0.23311406  0.68553919  0.44494667  1  -0.045027  -0.000623  -0.088507  -0.094026  -0.001191  3.99653  0.0
C  C115  1  0.76688619  0.31446039  0.55505405  1  -0.045501  -0.000625  -0.08851  -0.094026  -0.001193  3.996514  0.0
C  C116  1  0.32685208  0.58651438  0.45030681  1  -0.054403  0.000277  -0.095363  -0.13578  -3.6e-05  3.991351  0.0
C  C117  1  0.67314912  0.41348521  0.54969254  1  -0.054508  0.000277  -0.09536  -0.135757  -3.5e-05  3.991396  0.0
C  C118  1  0.73990505  0.99945386  0.27544208  1  1.543421  -0.005824  0.189163  0.539921  -0.007445  4.226547  -0.007
C  C119  1  0.26009535  0.00054835  0.72455174  1  1.543362  -0.005824  0.189154  0.539907  -0.007445  4.226601  -0.007
C  C120  1  0.15982585  0.86015066  0.48198186  1  1.54506  -0.001855  0.214837  0.572673  -0.003271  4.214654  0.001
C  C121  1  0.84017441  0.13985497  0.51801335  1  1.54537  -0.001862  0.214953  0.572796  -0.003276  4.214297  0.001
N  N122  1  0.94116490  0.12340392  0.31599204  1  -1.224084  0.050453  -0.319054  -0.242063  0.026708  3.55866  0.048
N  N123  1  0.05884041  0.87659736  0.68400912  1  -1.224054  0.050449  -0.319067  -0.242079  0.026707  3.558545  0.048
N  N124  1  0.19442965  0.39186384  0.09071998  1  -1.219824  -0.0126  -0.30203  -0.268554  -0.013009  3.40702  -0.01
N  N125  1  0.80557190  0.60813741  0.90928732  1  -1.219723  -0.0126  -0.301939  -0.268504  -0.01301  3.407093  -0.01
N  N126  1  0.52386111  0.62313979  0.76408016  1  -1.209744  -0.01049  -0.292543  -0.247811  -0.01087  3.361833  -0.008
N  N127  1  0.47613225  0.37685812  0.23591625  1  -1.209463  -0.010485  -0.292442  -0.247514  -0.010866  3.361757  -0.008
N  N128  1  0.79156995  0.85648458  0.51339674  1  -1.212021  0.054097  -0.31938  -0.23054  0.028959  3.547402  0.05
N  N129  1  0.20842673  0.14351159  0.48660145  1  -1.212179  0.054102  -0.319438  -0.230569  0.028961  3.547782  0.05
O  O130  1  0.68342324  0.05459644  0.32586120  1  -1.155846  0.080184  -0.313481  -0.552336  0.041489  2.193986  0.069
O  O131  1  0.31657624  0.94540577  0.67413266  1  -1.155808  0.080191  -0.313417  -0.552303  0.041492  2.194019  0.069
O  O132  1  0.85951802  0.94206509  0.29404513  1  -1.141074  0.090563  -0.323628  -0.546535  0.046847  2.194822  0.079
O  O133  1  0.14048572  0.05793539  0.70594914  1  -1.141197  0.090566  -0.323711  -0.546558  0.046846  2.194908  0.079
O  O134  1  0.04456009  0.87492862  0.45522668  1  -1.163013  0.097907  -0.303794  -0.551178  0.0517  2.493309  0.083
O  O135  1  0.95544190  0.12506837  0.54477556  1  -1.163303  0.097912  -0.303842  -0.551225  0.051701  2.493158  0.083
O  O136  1  0.19682275  0.92870001  0.50587083  1  -1.162141  0.082968  -0.314596  -0.573374  0.043612  2.487365  0.068
O  O137  1  0.80317590  0.07131082  0.49411992  1  -1.162069  0.082957  -0.31471  -0.57352  0.043608  2.487123  0.068
