# generated using pymatgen
data_Zn4H6C24S6Cl2O19
_symmetry_space_group_name_H-M   'P 1'
_cell_length_a   19.58821692
_cell_length_b   19.67688687
_cell_length_c   33.25911905
_cell_angle_alpha   79.19415250
_cell_angle_beta   79.46467744
_cell_angle_gamma   64.08089230
_symmetry_Int_Tables_number   1
_chemical_formula_structural   Zn4H6C24S6Cl2O19
_chemical_formula_sum   'Zn16 H24 C96 S24 Cl8 O76'
_cell_volume   11251.23294648
_cell_formula_units_Z   4
loop_
 _symmetry_equiv_pos_site_id
 _symmetry_equiv_pos_as_xyz
  1  'x, y, z'
loop_
 _atom_site_type_symbol
 _atom_site_label
 _atom_site_symmetry_multiplicity
 _atom_site_fract_x
 _atom_site_fract_y
 _atom_site_fract_z
 _atom_site_occupancy
 _atom_site_pbe_bader_charge
 _atom_site_pbe_bader_spin_density
 _atom_site_pbe_cm5_charge
 _atom_site_pbe_ddec_charge
 _atom_site_pbe_ddec_spin_density
 _atom_site_pbe_ddec_sum_bond_order
 _atom_site_pbe_magmom
Zn  Zn0  1  0.05701096  0.39746288  0.47971360  1  1.324004  0  0.680933  0.980415  0  2.320627  0
Zn  Zn1  1  0.98705023  0.48038364  0.56059630  1  1.318492  0  0.682528  0.975524  0  2.362505  0
Zn  Zn2  1  0.05596692  0.56269425  0.48132654  1  1.319498  0  0.682159  0.975287  0  2.335322  0
Zn  Zn3  1  0.90192850  0.55613776  0.47912747  1  1.320189  0  0.68228  0.976886  0  2.331595  0
Zn  Zn4  1  0.69203455  0.34971742  0.27226611  1  1.323822  0  0.681064  0.977215  0  2.33694  0
Zn  Zn5  1  0.68559477  0.19240606  0.26722292  1  1.317095  0  0.680633  0.973082  0  2.346345  0
Zn  Zn6  1  0.77183081  0.26475335  0.19057898  1  1.318483  0  0.68278  0.976714  0  2.33022  0
Zn  Zn7  1  0.84815803  0.19404435  0.27072417  1  1.314565  0  0.682502  0.971844  0  2.342808  0
Zn  Zn8  1  0.26969745  0.76527252  0.68883272  1  1.312111  0  0.680396  0.969284  0  2.35209  0
Zn  Zn9  1  0.35195299  0.69708851  0.76991135  1  1.3271  0  0.682445  0.97703  0  2.348086  0
Zn  Zn10  1  0.19032913  0.84675591  0.77175977  1  1.316886  0  0.681347  0.974335  0  2.332464  0
Zn  Zn11  1  0.19054865  0.69071361  0.76828876  1  1.317373  0  0.682381  0.975683  0  2.336136  0
Zn  Zn12  1  0.55798131  0.06387658  0.98247043  1  1.318494  0  0.681455  0.973815  0  2.344475  0
Zn  Zn13  1  0.40049518  0.05834245  0.97645797  1  1.320951  0  0.680796  0.97045  0  2.345804  0
Zn  Zn14  1  0.55591231  0.90149470  0.98030693  1  1.320745  0  0.68207  0.974997  0  2.340944  0
Zn  Zn15  1  0.48347066  0.97958579  0.05926770  1  1.313133  0  0.682102  0.972319  0  2.336984  0
H  H16  1  0.74936230  0.44931352  0.34924773  1  0.162769  0  0.12485  0.143141  0  0.990195  0
H  H17  1  0.00091901  0.29978840  0.40093044  1  0.164068  0  0.124506  0.142232  0  0.990289  0
H  H18  1  0.19991509  0.70202098  0.60083796  1  0.143333  0  0.123868  0.14504  0  0.988188  0
H  H19  1  0.04998114  0.54922835  0.64888563  1  0.151848  0  0.12472  0.142023  0  0.990786  0
H  H20  1  0.46096833  0.24066254  0.34203642  1  0.122611  0  0.12497  0.151294  0  0.964313  0
H  H21  1  0.48177266  0.69918769  0.59943749  1  0.115832  0  0.125451  0.151691  0  0.962765  0
H  H22  1  0.20120384  0.97694521  0.60215258  1  0.12715  0  0.123995  0.150168  0  0.964273  0
H  H23  1  0.94432633  0.97639963  0.35074408  1  0.139573  0  0.128064  0.156802  0  0.958298  0
H  H24  1  0.65048806  0.14782158  0.04923555  1  0.200845  0  0.124242  0.141606  0  0.991268  0
H  H25  1  0.60110142  0.09981079  0.20064831  1  0.139325  0  0.124612  0.14215  0  0.990105  0
H  H26  1  0.54864242  0.76777058  0.14977847  1  0.139948  0  0.124942  0.152191  0  0.962389  0
H  H27  1  0.16351908  0.13847294  0.03916737  1  0.108215  0  0.124544  0.150849  0  0.96502  0
H  H28  1  0.29970134  0.00020155  0.90100263  1  0.138984  0  0.123824  0.144535  0  0.987857  0
H  H29  1  0.44897641  0.75037193  0.84944021  1  0.175343  0  0.125066  0.143403  0  0.990057  0
H  H30  1  0.29941021  0.28323056  0.89941398  1  0.127277  0  0.125486  0.151336  0  0.963712  0
H  H31  1  0.78692410  0.01019272  0.91091534  1  0.142034  0  0.124884  0.151253  0  0.963509  0
H  H32  1  0.84343022  0.57201595  0.39985712  1  0.662144  0  0.314011  0.379018  0  0.938211  0
H  H33  1  0.96495242  0.23569378  0.29206818  1  0.650405  0  0.313518  0.378296  0  0.938473  0
H  H34  1  0.06983746  0.68684015  0.51363079  1  0.650001  0  0.313218  0.378904  0  0.942295  0
H  H35  1  0.06372275  0.67808511  0.73668250  1  0.669406  0  0.313803  0.378113  0  0.93946  0
H  H36  1  0.79503235  0.17713606  0.12193693  1  0.643428  0  0.313147  0.377975  0  0.942936  0
H  H37  1  0.57122369  0.95633476  0.12824608  1  0.643672  0  0.312809  0.376615  0  0.944795  0
H  H38  1  0.17692912  0.90637579  0.84989870  1  0.651142  0  0.312912  0.37842  0  0.942126  0
H  H39  1  0.51450895  0.78519486  0.95838820  1  0.643624  0  0.313596  0.377519  0  0.941277  0
C  C40  1  0.06211532  0.31376169  0.56288056  1  1.549331  0  0.217277  0.62319  0  4.204502  0
C  C41  1  0.06550400  0.57387254  0.56817061  1  1.573224  0  0.241267  0.615945  0  4.120669  0
C  C42  1  0.18189780  0.44022448  0.43943126  1  1.572121  0  0.218308  0.625511  0  4.199094  0
C  C43  1  0.93535440  0.68699332  0.43818333  1  1.563116  0  0.215637  0.621865  0  4.206334  0
C  C44  1  0.93387197  0.43282796  0.42898332  1  1.572119  0  0.241175  0.616737  0  4.120972  0
C  C45  1  0.81972772  0.55995926  0.56150028  1  1.579982  0  0.217823  0.624763  0  4.19973  0
C  C46  1  0.56291605  0.31252538  0.31172776  1  1.560815  0  0.22074  0.612598  0  4.212037  0
C  C47  1  0.68652129  0.17600156  0.18087385  1  1.582717  0  0.241651  0.616634  0  4.122316  0
C  C48  1  0.69078907  0.43090500  0.18847294  1  1.578952  0  0.218698  0.624491  0  4.200705  0
C  C49  1  0.93783342  0.18544083  0.18893573  1  1.548196  0  0.214874  0.622434  0  4.207509  0
C  C50  1  0.82122668  0.32127731  0.31632958  1  1.571833  0  0.241766  0.616563  0  4.120259  0
C  C51  1  0.80899789  0.06884495  0.31122434  1  1.535078  0  0.221491  0.613146  0  4.204346  0
C  C52  1  0.43632514  0.68905955  0.68670067  1  1.539033  0  0.220241  0.611618  0  4.213317  0
C  C53  1  0.31565453  0.81818969  0.82080388  1  1.573584  0  0.241595  0.615704  0  4.122207  0
C  C54  1  0.18888258  0.93138666  0.68909894  1  1.552012  0  0.222232  0.61594  0  4.202602  0
C  C55  1  0.06386323  0.80898309  0.81301062  1  1.554063  0  0.21452  0.620851  0  4.208376  0
C  C56  1  0.17628296  0.68538598  0.68158773  1  1.581  0  0.241215  0.615273  0  4.122162  0
C  C57  1  0.31447243  0.56868173  0.81025647  1  1.564633  0  0.218688  0.62487  0  4.199965  0
C  C58  1  0.43592498  0.18736304  0.93760975  1  1.558888  0  0.221311  0.614784  0  4.211278  0
C  C59  1  0.42889619  0.92848321  0.93364334  1  1.573629  0  0.242222  0.618432  0  4.120555  0
C  C60  1  0.68142066  0.94158989  0.93918188  1  1.546343  0  0.221812  0.614181  0  4.203105  0
C  C61  1  0.56232889  0.81384233  0.06270028  1  1.543995  0  0.218144  0.611066  0  4.212899  0
C  C62  1  0.57334429  0.06358845  0.06896493  1  1.576436  0  0.241178  0.616122  0  4.120382  0
C  C63  1  0.31725107  0.06159265  0.05976520  1  1.563745  0  0.222567  0.616182  0  4.202454  0
C  C64  1  0.90036614  0.40548336  0.40157303  1  0.014696  0  0.005082  -0.018522  0  3.89591  0
C  C65  1  0.85163155  0.34529310  0.34688294  1  -0.024447  0  0.003189  -0.022538  0  3.902032  0
C  C66  1  0.82800461  0.44678607  0.38722161  1  -0.211879  0  0.000918  -0.087796  0  3.892633  0
C  C67  1  0.92260797  0.30259351  0.36261608  1  -0.10644  0  0.000364  -0.087449  0  3.893778  0
C  C68  1  0.80514815  0.41661323  0.36023346  1  0.038016  0  -0.060318  -0.081918  0  3.909172  0
C  C69  1  0.94584028  0.33314611  0.38923241  1  0.083947  0  -0.060154  -0.081819  0  3.907334  0
C  C70  1  0.09802610  0.60169129  0.59578704  1  -0.001104  0  0.004786  -0.020529  0  3.900942  0
C  C71  1  0.14887037  0.65255380  0.65396160  1  -0.027889  0  0.004075  -0.01849  0  3.898934  0
C  C72  1  0.14190830  0.64433775  0.58254434  1  -0.186758  0  0.000885  -0.086707  0  3.898402  0
C  C73  1  0.10712075  0.60778106  0.66720226  1  -0.106214  0  0.000949  -0.087648  0  3.891566  0
C  C74  1  0.16618984  0.66908826  0.61149379  1  0.089625  0  -0.061384  -0.087224  0  3.912037  0
C  C75  1  0.08230848  0.58355706  0.63824249  1  0.039348  0  -0.06027  -0.080906  0  3.905881  0
C  C76  1  0.30246506  0.45631123  0.40141267  1  0.115222  0  0.013543  0.102041  0  4.092493  0
C  C77  1  0.44377024  0.29766406  0.34968969  1  0.001064  0  -0.083924  -0.128251  0  3.9507  0
C  C78  1  0.25643281  0.41683244  0.41456465  1  -0.103046  0  -0.030705  -0.192381  0  3.948967  0
C  C79  1  0.48837377  0.33798631  0.33680876  1  -0.105179  0  -0.023136  -0.119481  0  3.979236  0
C  C80  1  0.37562154  0.34084581  0.37316804  1  -0.142373  0  -0.017756  0.007364  0  4.071459  0
C  C81  1  0.37039692  0.41282759  0.37768476  1  -0.136083  0  -0.026405  -0.084339  0  4.087212  0
C  C82  1  0.72892256  0.57607854  0.62942041  1  0.092436  0  0.011522  0.101484  0  4.091732  0
C  C83  1  0.52659851  0.67132555  0.61968458  1  0.02965  0  -0.082711  -0.124983  0  3.948531  0
C  C84  1  0.74548900  0.58369293  0.58662950  1  -0.064224  0  -0.029977  -0.193932  0  3.950491  0
C  C85  1  0.51146314  0.66307499  0.66221446  1  -0.132746  0  -0.022864  -0.120759  0  3.980064  0
C  C86  1  0.60607073  0.63914971  0.60755941  1  -0.170007  0  -0.017145  0.00265  0  4.071043  0
C  C87  1  0.64926369  0.60758669  0.64131445  1  -0.110922  0  -0.026929  -0.084166  0  4.08883  0
C  C88  1  0.07778869  0.22317521  0.63113283  1  0.188865  0  0.012218  0.102691  0  4.090388  0
C  C89  1  0.17344176  0.02165341  0.62217088  1  -0.017221  0  -0.08437  -0.127519  0  3.952733  0
C  C90  1  0.08644899  0.23979236  0.58834638  1  -0.067682  0  -0.029822  -0.189546  0  3.94696  0
C  C91  1  0.16436914  0.00656304  0.66471818  1  -0.140149  0  -0.022749  -0.123797  0  3.982097  0
C  C92  1  0.14219561  0.10079185  0.60979811  1  -0.134588  0  -0.018446  0.005554  0  4.074942  0
C  C93  1  0.10983865  0.14376030  0.64333543  1  -0.181491  0  -0.026057  -0.086994  0  4.088588  0
C  C94  1  0.84120836  0.80310905  0.39567639  1  0.17626  0  0.010463  0.098357  0  4.09683  0
C  C95  1  0.90120302  0.95440889  0.35376537  1  0.001811  0  -0.079037  -0.119615  0  3.931696  0
C  C96  1  0.90928253  0.76161254  0.41339172  1  -0.11044  0  -0.03127  -0.194944  0  3.953811  0
C  C97  1  0.83347817  0.99416941  0.33617519  1  -0.129648  0  -0.022231  -0.119883  0  3.977117  0
C  C98  1  0.90445863  0.88424316  0.37531380  1  -0.136926  0  -0.016479  0.006793  0  4.064442  0
C  C99  1  0.83874385  0.87290225  0.37381652  1  -0.160385  0  -0.027002  -0.085415  0  4.090357  0
C  C100  1  0.65646604  0.15099108  0.15057595  1  0.021079  0  0.004437  -0.021463  0  3.89898  0
C  C101  1  0.59817634  0.09360928  0.09930636  1  0.065253  0  0.004019  -0.022144  0  3.902653  0
C  C102  1  0.66894366  0.16533182  0.10728211  1  -0.139402  0  0.000477  -0.086917  0  3.894101  0
C  C103  1  0.58338789  0.08154874  0.14258776  1  -0.204442  0  0.000604  -0.088344  0  3.895279  0
C  C104  1  0.64025487  0.13645606  0.08257702  1  -0.02436  0  -0.060245  -0.081112  0  3.910648  0
C  C105  1  0.61274965  0.10975187  0.16731195  1  0.039583  0  -0.060786  -0.081861  0  3.91007  0
C  C106  1  0.67515407  0.52178774  0.12022381  1  0.07708  0  0.013405  0.10045  0  4.094448  0
C  C107  1  0.57756303  0.72329550  0.12964999  1  0.070761  0  -0.082102  -0.122191  0  3.942061  0
C  C108  1  0.66628284  0.50490014  0.16300712  1  -0.084082  0  -0.029609  -0.190042  0  3.944911  0
C  C109  1  0.58757293  0.73874254  0.08713729  1  -0.14161  0  -0.024666  -0.126449  0  3.986871  0
C  C110  1  0.60985019  0.64406252  0.14185981  1  -0.213665  0  -0.017971  0.005223  0  4.069494  0
C  C111  1  0.64312603  0.60131591  0.10825734  1  -0.063728  0  -0.025199  -0.083313  0  4.084927  0
C  C112  1  0.08545517  0.12332960  0.17753217  1  0.152866  0  0.012072  0.101329  0  4.095129  0
C  C113  1  0.17160557  0.12332706  0.07165341  1  0.030545  0  -0.083653  -0.12817  0  3.951539  0
C  C114  1  0.01274495  0.16072976  0.16451579  1  -0.126126  0  -0.032296  -0.196888  0  3.956551  0
C  C115  1  0.24318382  0.08641768  0.08532054  1  -0.130507  0  -0.022554  -0.121904  0  3.97839  0
C  C116  1  0.11379455  0.13729449  0.10529269  1  -0.179347  0  -0.017913  0.005639  0  4.071464  0
C  C117  1  0.14309142  0.11022436  0.14367311  1  -0.197491  0  -0.026345  -0.08772  0  4.089669  0
C  C118  1  0.34299405  0.85079919  0.84861351  1  0.053771  0  0.004968  -0.019596  0  3.898723  0
C  C119  1  0.40414357  0.89828095  0.90337384  1  0.052309  0  0.003332  -0.023842  0  3.904593  0
C  C120  1  0.30159446  0.92249977  0.86305203  1  -0.181032  0  0.000385  -0.0888  0  3.896514  0
C  C121  1  0.44664211  0.82763926  0.88785359  1  -0.131415  0  0.000893  -0.087144  0  3.892056  0
C  C122  1  0.33230940  0.94478715  0.89004828  1  0.065439  0  -0.061194  -0.084225  0  3.910778  0
C  C123  1  0.41565814  0.80505406  0.86112316  1  -0.047947  0  -0.060306  -0.082372  0  3.905642  0
C  C124  1  0.40791061  0.45149490  0.85260108  1  0.141065  0  0.011128  0.100123  0  4.095193  0
C  C125  1  0.34408445  0.30334368  0.89561762  1  0.013895  0  -0.082179  -0.124201  0  3.948317  0
C  C126  1  0.33992417  0.49393941  0.83493317  1  -0.07762  0  -0.029814  -0.192977  0  3.949056  0
C  C127  1  0.41215423  0.26207476  0.91270498  1  -0.121611  0  -0.023142  -0.120962  0  3.97989  0
C  C128  1  0.34245554  0.37250968  0.87342860  1  -0.14927  0  -0.017097  0.002477  0  4.070544  0
C  C129  1  0.40934606  0.38208351  0.87445825  1  -0.181434  0  -0.02724  -0.083669  0  4.090103  0
C  C130  1  0.94169714  0.79518166  0.85021868  1  0.136418  0  0.012105  0.100112  0  4.096631  0
C  C131  1  0.80260905  0.95399719  0.90254334  1  0.001743  0  -0.083689  -0.127178  0  3.949569  0
C  C132  1  0.98925580  0.83311373  0.83778365  1  -0.061427  0  -0.031802  -0.195257  0  3.955569  0
C  C133  1  0.75611030  0.91546726  0.91426606  1  -0.153053  0  -0.022426  -0.123542  0  3.979876  0
C  C134  1  0.87035582  0.91031813  0.87896165  1  -0.158146  0  -0.01799  0.005118  0  4.071691  0
C  C135  1  0.87368183  0.83946970  0.87360214  1  -0.154257  0  -0.026126  -0.086844  0  4.088223  0
S  S136  1  0.29648508  0.32711084  0.39782891  1  0.283472  0  0.092189  0.144561  0  2.730602  0
S  S137  1  0.44849032  0.42794228  0.35302026  1  0.305286  0  0.098795  0.153757  0  2.759277  0
S  S138  1  0.66367921  0.62877610  0.56126159  1  0.29598  0  0.106026  0.168021  0  2.72388  0
S  S139  1  0.59284466  0.61652780  0.68777676  1  0.308236  0  0.097541  0.153766  0  2.760027  0
S  S140  1  0.13368049  0.15831664  0.56337629  1  0.280525  0  0.094904  0.147848  0  2.728489  0
S  S141  1  0.11840517  0.08755297  0.68999097  1  0.306677  0  0.107446  0.17187  0  2.755594  0
S  S142  1  0.96960603  0.80830915  0.40323092  1  0.298578  0  0.099895  0.157674  0  2.726554  0
S  S143  1  0.77339647  0.94744774  0.34567184  1  0.302883  0  0.094416  0.148365  0  2.762038  0
S  S144  1  0.61887029  0.58619799  0.18818183  1  0.273382  0  0.09458  0.147545  0  2.728706  0
S  S145  1  0.63563232  0.65792244  0.06175411  1  0.303097  0  0.101204  0.160564  0  2.760279  0
S  S146  1  0.01537225  0.17958734  0.11102034  1  0.335436  0  0.097056  0.154991  0  2.72905  0
S  S147  1  0.24120018  0.06864548  0.13869648  1  0.366112  0  0.108122  0.172205  0  2.755517  0
S  S148  1  0.27847808  0.44853807  0.84497330  1  0.317244  0  0.106646  0.168698  0  2.724008  0
S  S149  1  0.47443452  0.30638958  0.90216379  1  0.30163  0  0.096221  0.15179  0  2.761097  0
S  S150  1  0.95054023  0.92256506  0.85477958  1  0.297879  0  0.097036  0.154682  0  2.730259  0
S  S151  1  0.79364345  0.82664334  0.89686481  1  0.326468  0  0.109449  0.174011  0  2.753936  0
S  S152  1  0.75689554  0.53614119  0.40351631  1  3.081892  0  0.5333  1.146587  0  6.044875  0
S  S153  1  0.98623043  0.20609239  0.35340157  1  3.123101  0  0.532644  1.144989  0  6.050002  0
S  S154  1  0.17580159  0.66558189  0.52956892  1  3.129197  0  0.533474  1.147698  0  6.049659  0
S  S155  1  0.08699684  0.57260159  0.72014664  1  3.12216  0  0.532235  1.146033  0  6.047869  0
S  S156  1  0.71505228  0.22516664  0.07981228  1  3.125611  0  0.532862  1.145302  0  6.049227  0
S  S157  1  0.52263044  0.03627083  0.16985059  1  3.132318  0  0.533721  1.14602  0  6.047938  0
S  S158  1  0.21161553  0.99333763  0.84671466  1  3.086619  0  0.533066  1.145955  0  6.049994  0
S  S159  1  0.54359287  0.76386508  0.89723515  1  3.104896  0  0.533934  1.145193  0  6.044945  0
Cl  Cl160  1  0.28323293  0.54504273  0.41135329  1  -0.129047  0  0.028589  0.002139  0  1.530631  0
Cl  Cl161  1  0.79302383  0.53446593  0.66474465  1  -0.137123  0  0.017533  -0.016785  0  1.49648  0
Cl  Cl162  1  0.03536995  0.28690070  0.66618754  1  -0.134033  0  0.019797  -0.01486  0  1.498423  0
Cl  Cl163  1  0.76856701  0.77636764  0.39822447  1  -0.139391  0  0.024225  -0.004348  0  1.529972  0
Cl  Cl164  1  0.71813747  0.45828402  0.08519894  1  -0.131539  0  0.029638  0.003274  0  1.529307  0
Cl  Cl165  1  0.10645726  0.09613825  0.22713708  1  -0.13636  0  0.024976  -0.004155  0  1.52611  0
Cl  Cl166  1  0.48234056  0.47598979  0.84936622  1  -0.143542  0  0.018481  -0.015507  0  1.494023  0
Cl  Cl167  1  0.95890934  0.70761939  0.83916711  1  -0.141637  0  0.026203  -0.002678  0  1.52511  0
O  O168  1  0.00129148  0.49757286  0.50007656  1  -1.225577  0  -0.572593  -1.03586  0  2.528599  0
O  O169  1  0.08119919  0.31231159  0.52389886  1  -1.150413  0  -0.319788  -0.547275  0  2.321388  0
O  O170  1  0.04829233  0.51875107  0.58372725  1  -1.153112  0  -0.290124  -0.504367  0  2.30984  0
O  O171  1  0.15517541  0.50406400  0.45358932  1  -1.159925  0  -0.312383  -0.533475  0  2.380587  0
O  O172  1  0.02423577  0.37288121  0.58134101  1  -1.166495  0  -0.315333  -0.540614  0  2.377917  0
O  O173  1  0.15016712  0.39370699  0.44471046  1  -1.159847  0  -0.322593  -0.553224  0  2.323458  0
O  O174  1  0.05504305  0.60791361  0.53138312  1  -1.184645  0  -0.302246  -0.562612  0  2.398895  0
O  O175  1  0.00351836  0.65981574  0.44819984  1  -1.169856  0  -0.321816  -0.54739  0  2.32438  0
O  O176  1  0.90738049  0.50473752  0.43074314  1  -1.174245  0  -0.304405  -0.564602  0  2.401804  0
O  O177  1  0.88922175  0.65505841  0.44791382  1  -1.154994  0  -0.316656  -0.544959  0  2.36654  0
O  O178  1  0.98816619  0.38249161  0.44802348  1  -1.154888  0  -0.290382  -0.508048  0  2.30149  0
O  O179  1  0.87926552  0.53341040  0.58016264  1  -1.171252  0  -0.316838  -0.546535  0  2.375793  0
O  O180  1  0.81778269  0.56886454  0.52236360  1  -1.165229  0  -0.315786  -0.536835  0  2.334776  0
O  O181  1  0.74792368  0.25088600  0.25055113  1  -1.227249  0  -0.572289  -1.035126  0  2.529513  0
O  O182  1  0.59309714  0.36035380  0.30225323  1  -1.17028  0  -0.318085  -0.544471  0  2.336215  0
O  O183  1  0.65249795  0.17881183  0.21717560  1  -1.154507  0  -0.290858  -0.507133  0  2.306858  0
O  O184  1  0.72125694  0.37146162  0.16991402  1  -1.161741  0  -0.311507  -0.532509  0  2.375853  0
O  O185  1  0.59104610  0.24518713  0.30156146  1  -1.159259  0  -0.315247  -0.537088  0  2.313471  0
O  O186  1  0.67903129  0.43295663  0.22761240  1  -1.164692  0  -0.322188  -0.551767  0  2.32962  0
O  O187  1  0.74525343  0.19093970  0.16892601  1  -1.184858  0  -0.30289  -0.562608  0  2.402134  0
O  O188  1  0.87993175  0.22300466  0.16856306  1  -1.167873  0  -0.321821  -0.548921  0  2.325315  0
O  O189  1  0.86856313  0.27077192  0.29330641  1  -1.185806  0  -0.304706  -0.564422  0  2.40279  0
O  O190  1  0.93549997  0.16812486  0.22797043  1  -1.137906  0  -0.31659  -0.544579  0  2.369561  0
O  O191  1  0.74983999  0.35440320  0.31443501  1  -1.16091  0  -0.29068  -0.506796  0  2.304048  0
O  O192  1  0.74548777  0.09309416  0.29619617  1  -1.171966  0  -0.320163  -0.550266  0  2.335134  0
O  O193  1  0.85319773  0.10273192  0.30670019  1  -1.147155  0  -0.309749  -0.52522  0  2.327953  0
O  O194  1  0.25140288  0.74995711  0.74925960  1  -1.219159  0  -0.572504  -1.034813  0  2.531499  0
O  O195  1  0.37777407  0.72570153  0.66711892  1  -1.163837  0  -0.314133  -0.53503  0  2.311236  0
O  O196  1  0.36660090  0.76587046  0.80103918  1  -1.158543  0  -0.290521  -0.50523  0  2.307781  0
O  O197  1  0.17685389  0.93091983  0.72835509  1  -1.142689  0  -0.315069  -0.536486  0  2.343738  0
O  O198  1  0.43641031  0.67252483  0.72584853  1  -1.146594  0  -0.317897  -0.544165  0  2.33947  0
O  O199  1  0.21956416  0.87355852  0.66913654  1  -1.170223  0  -0.317462  -0.543585  0  2.315858  0
O  O200  1  0.24345732  0.84305559  0.81941615  1  -1.182536  0  -0.302917  -0.563722  0  2.400635  0
O  O201  1  0.09233297  0.85845022  0.80382624  1  -1.168466  0  -0.321769  -0.548454  0  2.327413  0
O  O202  1  0.14331652  0.69358426  0.71860660  1  -1.183217  0  -0.302887  -0.561295  0  2.400867  0
O  O203  1  0.09469030  0.74182453  0.80255790  1  -1.163704  0  -0.3161  -0.543684  0  2.365485  0
O  O204  1  0.22987359  0.70508042  0.66583681  1  -1.161195  0  -0.292727  -0.510082  0  2.312459  0
O  O205  1  0.35667780  0.60459878  0.80551235  1  -1.167432  0  -0.316646  -0.546357  0  2.371374  0
O  O206  1  0.25052398  0.59146160  0.79573794  1  -1.158392  0  -0.316343  -0.53708  0  2.339921  0
O  O207  1  0.49889047  0.00207768  0.99928131  1  -1.22304  0  -0.572155  -1.035345  0  2.53267  0
O  O208  1  0.50335493  0.15869555  0.94856288  1  -1.172748  0  -0.319112  -0.547268  0  2.340296  0
O  O209  1  0.39595847  0.99968480  0.93506548  1  -1.162971  0  -0.292023  -0.509496  0  2.310697  0
O  O210  1  0.64744105  0.89712954  0.94478193  1  -1.144611  0  -0.314354  -0.53579  0  2.348208  0
O  O211  1  0.38790287  0.15748550  0.94615687  1  -1.152783  0  -0.314642  -0.536397  0  2.311426  0
O  O212  1  0.65717781  0.00547444  0.95310446  1  -1.159399  0  -0.315726  -0.540476  0  2.310546  0
O  O213  1  0.47967144  0.88126900  0.95685992  1  -1.185691  0  -0.304396  -0.565115  0  2.403497  0
O  O214  1  0.58091394  0.81478360  0.02364052  1  -1.156094  0  -0.319479  -0.547222  0  2.336045  0
O  O215  1  0.55802119  0.00525185  0.08103011  1  -1.184955  0  -0.303798  -0.564846  0  2.40447  0
O  O216  1  0.52405204  0.87195718  0.08211409  1  -1.168575  0  -0.315879  -0.538349  0  2.310746  0
O  O217  1  0.57124919  0.09703586  0.03246138  1  -1.156673  0  -0.290915  -0.506528  0  2.30654  0
O  O218  1  0.31625411  0.07253821  0.02071174  1  -1.168244  0  -0.315995  -0.541813  0  2.312633  0
O  O219  1  0.37635574  0.03070178  0.07933341  1  -1.157535  0  -0.314979  -0.537274  0  2.346758  0
O  O220  1  0.79661146  0.59237079  0.38516447  1  -1.233426  0  -0.364484  -0.528941  0  2.190645  0
O  O221  1  0.69235213  0.56026439  0.38132336  1  -1.287143  0  -0.307864  -0.504125  0  2.100068  0
O  O222  1  0.74838143  0.52737114  0.44785346  1  -1.2383  0  -0.318375  -0.532626  0  2.127531  0
O  O223  1  0.01313910  0.21640689  0.30545075  1  -1.230006  0  -0.363821  -0.527897  0  2.190211  0
O  O224  1  0.05259523  0.18324841  0.37386999  1  -1.287463  0  -0.307651  -0.503844  0  2.10228  0
O  O225  1  0.94150193  0.16218374  0.36165592  1  -1.28145  0  -0.32002  -0.533956  0  2.122098  0
O  O226  1  0.09834360  0.71980254  0.51051479  1  -1.225084  0  -0.364546  -0.525427  0  2.163577  0
O  O227  1  0.21595603  0.71185078  0.52860807  1  -1.276663  0  -0.310437  -0.507681  0  2.100639  0
O  O228  1  0.21205329  0.59505784  0.51179968  1  -1.289787  0  -0.317593  -0.536215  0  2.149734  0
O  O229  1  0.03151274  0.64900701  0.73933367  1  -1.236597  0  -0.363967  -0.527689  0  2.188685  0
O  O230  1  0.04162992  0.53157270  0.72087511  1  -1.277067  0  -0.306975  -0.504029  0  2.103736  0
O  O231  1  0.15793122  0.53728881  0.73807182  1  -1.290159  0  -0.318955  -0.533428  0  2.125964  0
O  O232  1  0.80013713  0.17851164  0.09116585  1  -1.219051  0  -0.364672  -0.524679  0  2.163226  0
O  O233  1  0.71871280  0.22364359  0.03654177  1  -1.278287  0  -0.307855  -0.503947  0  2.101577  0
O  O234  1  0.67927644  0.29600254  0.09726952  1  -1.28568  0  -0.317349  -0.535525  0  2.149863  0
O  O235  1  0.56933168  0.95128995  0.15907818  1  -1.211558  0  -0.365407  -0.522895  0  2.154434  0
O  O236  1  0.52359037  0.03295368  0.21316112  1  -1.290212  0  -0.307379  -0.504015  0  2.10071  0
O  O237  1  0.45186347  0.07194581  0.15175217  1  -1.288833  0  -0.319316  -0.534599  0  2.125416  0
O  O238  1  0.15575092  0.95296847  0.86457801  1  -1.234189  0  -0.36449  -0.524998  0  2.160579  0
O  O239  1  0.18716861  0.05702864  0.86919538  1  -1.28715  0  -0.308827  -0.506976  0  2.103525  0
O  O240  1  0.22027808  0.00282142  0.80237936  1  -1.23124  0  -0.317647  -0.531186  0  2.125271  0
O  O241  1  0.53365302  0.73714621  0.94529568  1  -1.209798  0  -0.364075  -0.522206  0  2.159715  0
O  O242  1  0.56577820  0.69782991  0.87708502  1  -1.28301  0  -0.305303  -0.501776  0  2.102408  0
O  O243  1  0.58777215  0.80829642  0.88870046  1  -1.273566  0  -0.318729  -0.533024  0  2.125497  0
