# generated using pymatgen
data_CoH14C21(NO2)4
_symmetry_space_group_name_H-M   'P 1'
_cell_length_a   10.13577656
_cell_length_b   10.04111352
_cell_length_c   11.78959427
_cell_angle_alpha   82.92912722
_cell_angle_beta   63.49023213
_cell_angle_gamma   72.36197990
_symmetry_Int_Tables_number   1
_chemical_formula_structural   CoH14C21(NO2)4
_chemical_formula_sum   'Co2 H28 C42 N8 O16'
_cell_volume   1023.14270956
_cell_formula_units_Z   2
loop_
 _symmetry_equiv_pos_site_id
 _symmetry_equiv_pos_as_xyz
  1  'x, y, z'
loop_
 _atom_site_type_symbol
 _atom_site_label
 _atom_site_symmetry_multiplicity
 _atom_site_fract_x
 _atom_site_fract_y
 _atom_site_fract_z
 _atom_site_occupancy
 _atom_site_hle17_ddec_charge
 _atom_site_hle17_ddec_spin_density
 _atom_site_hle17_ddec_sum_bond_order
 _atom_site_hle17_magmom
 _atom_site_hse06_10hf_ddec_charge
 _atom_site_hse06_10hf_ddec_spin_density
 _atom_site_hse06_10hf_ddec_sum_bond_order
 _atom_site_hse06_10hf_magmom
 _atom_site_hse06_ddec_charge
 _atom_site_hse06_ddec_spin_density
 _atom_site_hse06_ddec_sum_bond_order
 _atom_site_hse06_magmom
 _atom_site_pbe_cm5_charge
 _atom_site_pbe_ddec_charge
 _atom_site_pbe_ddec_spin_density
 _atom_site_pbe_ddec_sum_bond_order
 _atom_site_pbe_magmom
Co  Co0  1  0.87608792  0.85134530  0.03011408  1  0.98491  -2.9947  2.027908  -2.589  0.949577  -2.91062  2.437528  -2.649  1.0233  -2.941998  2.368063  -2.722  0.679925  0.884683  -2.87797  2.501101  -2.576
Co  Co1  1  0.12392330  0.14859891  0.96983363  1  0.984638  2.994685  2.027928  2.589  0.949336  2.910612  2.437575  2.649  1.02308  2.942023  2.368145  2.722  0.679805  0.884409  2.877966  2.501198  2.576
H  H2  1  0.86179610  0.95480851  0.78325893  1  0.089032  -0.000515  0.946747  -0.001  0.096803  -0.000346  1.009834  -0.001  0.099703  -0.000234  1.007526  -0.001  0.116821  0.094246  -0.000469  1.012216  -0.001
H  H3  1  0.13820639  0.04519833  0.21673842  1  0.089075  0.000513  0.9468  0.001  0.096834  0.000345  1.009894  0.001  0.099731  0.000233  1.007591  0.001  0.116813  0.094282  0.000469  1.012273  0.001
H  H4  1  0.27359982  0.40877288  0.74284446  1  0.311142  5.3e-05  0.922321  0.0  0.287832  8.5e-05  0.995921  0.0  0.296865  1.6e-05  0.989449  0.0  0.307585  0.281209  0.000161  1.000589  0.0
H  H5  1  0.72640259  0.59121719  0.25715035  1  0.311278  -5.4e-05  0.922205  0.0  0.287848  -8.6e-05  0.995914  0.0  0.29688  -1.5e-05  0.989441  0.0  0.307627  0.281229  -0.000162  1.000566  0.0
H  H6  1  0.00178629  0.87996320  0.55320872  1  0.094251  -0.000207  0.956227  0.0  0.10708  -0.000349  1.012383  0.0  0.109539  -0.000253  1.012511  0.0  0.104085  0.105244  -0.000461  1.012743  0.0
H  H7  1  0.99820870  0.12002571  0.44679322  1  0.094173  0.000207  0.956255  0.0  0.107005  0.000349  1.012418  0.0  0.109456  0.000251  1.012555  0.0  0.104053  0.105172  0.00046  1.012775  0.0
H  H8  1  0.53368142  0.26384148  0.36290791  1  0.310899  5e-06  0.92165  0.0  0.287631  -4e-06  0.994128  0.0  0.296121  0.0  0.987328  0.0  0.311038  0.281398  -5e-06  0.999404  0.0
H  H9  1  0.46632197  0.73615595  0.63708325  1  0.310812  -5e-06  0.921891  0.0  0.287715  4e-06  0.994175  0.0  0.296212  2e-06  0.987347  0.0  0.311032  0.28148  5e-06  0.999468  0.0
H  H10  1  0.20062769  0.64775193  0.49167145  1  0.127352  -0.000222  0.961423  -0.001  0.137595  6.8e-05  1.015803  0.0  0.141883  4.2e-05  1.012041  0.0  0.112731  0.134398  9.7e-05  1.01878  0.0
H  H11  1  0.79935686  0.35224524  0.50833867  1  0.127468  0.000222  0.961206  0.001  0.137644  -6.8e-05  1.015679  0.0  0.141928  -3.9e-05  1.01193  0.0  0.112758  0.134451  -9.7e-05  1.01865  0.0
H  H12  1  0.73699123  0.75073755  0.75596213  1  0.397948  0.000119  0.810689  0.0  0.378457  8.3e-05  0.872294  0.0  0.388007  5.1e-05  0.862113  0.0  0.335621  0.371822  0.000118  0.879389  0.0
H  H13  1  0.26298681  0.24926580  0.24405745  1  0.398044  -0.000119  0.810422  0.0  0.378535  -8.3e-05  0.872082  0.0  0.388086  -5e-05  0.861903  0.0  0.335641  0.371894  -0.000118  0.879183  0.0
H  H14  1  0.09425235  0.58344216  0.88879518  1  0.116525  -0.000537  0.930818  -0.002  0.12324  -0.000256  0.994362  -0.001  0.127701  -0.000185  0.9896  -0.001  0.126642  0.119571  -0.000359  0.998331  -0.001
H  H15  1  0.90575011  0.41656467  0.11120389  1  0.116526  0.000536  0.930863  0.002  0.123213  0.000256  0.994423  0.001  0.127673  0.000186  0.989658  0.001  0.126635  0.119546  0.000359  0.998385  0.001
H  H16  1  0.67104965  0.09958776  0.20531502  1  0.112205  -0.000476  0.960969  -0.002  0.119742  -0.000271  1.023205  -0.001  0.123211  -0.000185  1.01951  -0.001  0.125532  0.116926  -0.000382  1.026309  -0.001
H  H17  1  0.32895173  0.90040543  0.79468156  1  0.11217  0.000478  0.961003  0.002  0.119722  0.000271  1.023218  0.001  0.123186  0.000187  1.019534  0.001  0.125536  0.116912  0.000383  1.026328  0.001
H  H18  1  0.93411154  0.71259052  0.25462622  1  0.081539  -0.000569  0.946888  -0.001  0.089913  -0.000391  1.011175  -0.001  0.0925  -0.000273  1.009169  -0.001  0.115657  0.087775  -0.000501  1.013118  -0.001
H  H19  1  0.06588191  0.28740990  0.74537940  1  0.081629  0.000571  0.946998  0.001  0.090029  0.000392  1.01123  0.001  0.092634  0.000274  1.009197  0.001  0.115716  0.087891  0.000502  1.01318  0.001
H  H20  1  0.85520765  0.76868142  0.48042026  1  0.098231  -0.000214  0.946115  0.0  0.110823  -0.000345  1.000143  0.0  0.113815  -0.00025  0.999692  0.0  0.10417  0.108814  -0.000459  1.000554  0.0
H  H21  1  0.14479660  0.23132646  0.51958312  1  0.098162  0.000214  0.946216  0.0  0.110805  0.000345  1.000181  0.0  0.113786  0.00025  0.999744  0.0  0.104134  0.108792  0.00046  1.000595  0.0
H  H22  1  0.67528656  0.00645863  0.57109077  1  0.122265  -0.000245  0.952137  -0.001  0.131964  5.1e-05  1.009697  0.0  0.136881  3.2e-05  1.004719  0.0  0.111158  0.128323  7.9e-05  1.013506  0.0
H  H23  1  0.32472885  0.99354631  0.42889006  1  0.122192  0.000247  0.951942  0.001  0.13193  -5e-05  1.009486  0.0  0.136851  -3.1e-05  1.004506  0.0  0.111124  0.128282  -7.9e-05  1.013308  0.0
H  H24  1  0.81526069  0.43332169  0.86762388  1  0.116177  6.7e-05  0.942047  0.0  0.124672  5e-06  1.004456  0.0  0.128917  -2.4e-05  1.00043  0.0  0.111491  0.121536  6.2e-05  1.007374  0.0
H  H25  1  0.18472637  0.56668184  0.13237619  1  0.116207  -6.7e-05  0.941977  0.0  0.1247  -5e-06  1.004396  0.0  0.128951  2.4e-05  1.000355  0.0  0.111472  0.121556  -6.2e-05  1.007334  0.0
H  H26  1  0.39615412  0.50731803  0.82909377  1  0.11077  0.000187  0.936607  0.0  0.117364  0.000182  1.004882  0.0  0.121572  0.000113  1.000715  0.0  0.111547  0.114157  0.000253  1.007989  0.0
H  H27  1  0.60385029  0.49268251  0.17090943  1  0.110781  -0.000187  0.936596  0.0  0.117395  -0.000182  1.004851  0.0  0.12159  -0.000113  1.000701  0.0  0.111538  0.114182  -0.000253  1.007957  0.0
H  H28  1  0.58969091  0.10835230  0.95828385  1  0.129868  0.000191  0.93903  0.0  0.135957  0.000244  1.005168  0.0  0.141276  0.0002  1.000067  0.0  0.113682  0.131946  0.000287  1.009074  0.0
H  H29  1  0.41031033  0.89163774  0.04171649  1  0.129796  -0.000191  0.939101  0.0  0.135914  -0.000244  1.005206  0.0  0.141208  -0.0002  1.00014  0.0  0.113686  0.131905  -0.000287  1.009111  0.0
C  C30  1  0.94612582  0.85337270  0.75186536  1  0.087829  0.010627  3.728026  0.014  0.056219  0.002843  3.990457  0.004  0.063682  0.002547  4.005952  0.004  0.030189  0.050242  0.003475  3.981297  0.005
C  C31  1  0.05388251  0.14662578  0.24813912  1  0.087667  -0.010593  3.728412  -0.014  0.056048  -0.002832  3.990869  -0.004  0.063507  -0.002534  4.006376  -0.004  0.030145  0.050079  -0.00346  3.981684  -0.005
C  C32  1  0.02483482  0.81111968  0.62523330  1  -0.123352  -0.008674  3.810727  -0.012  -0.134603  -0.002325  4.068137  -0.003  -0.141414  -0.002218  4.090658  -0.003  -0.093712  -0.130383  -0.002502  4.054266  -0.004
C  C33  1  0.97516922  0.18887878  0.37476600  1  -0.123256  0.008653  3.810904  0.012  -0.134497  0.00232  4.068275  0.003  -0.141305  0.002209  4.090813  0.003  -0.093689  -0.13028  0.002496  4.054393  0.004
C  C34  1  0.13508478  0.68202636  0.59008264  1  -0.105777  0.011781  3.675077  0.014  -0.133536  0.003896  3.925211  0.005  -0.131569  0.00294  3.940858  0.004  -0.080134  -0.13574  0.005577  3.91621  0.006
C  C35  1  0.86490769  0.31797409  0.40991486  1  -0.105979  -0.011747  3.674753  -0.014  -0.133655  -0.003882  3.924939  -0.005  -0.131709  -0.002935  3.940612  -0.004  -0.08015  -0.135852  -0.005555  3.915923  -0.006
C  C36  1  0.16262575  0.59670078  0.68561990  1  0.215044  -0.0081  3.741632  -0.012  0.212647  -0.002316  3.988524  -0.004  0.216126  -0.002176  4.009917  -0.003  0.105105  0.209596  -0.002549  3.976323  -0.004
C  C37  1  0.83737048  0.40330182  0.31437344  1  0.2152  0.00808  3.741531  0.012  0.212659  0.002311  3.988551  0.004  0.216139  0.002173  4.009944  0.003  0.105114  0.209612  0.002544  3.97633  0.004
C  C38  1  0.07661919  0.64629742  0.81178454  1  0.052847  0.011369  3.59593  0.015  0.021153  0.003264  3.847631  0.005  0.028653  0.002777  3.858678  0.004  0.053259  0.014645  0.003902  3.842418  0.005
C  C39  1  0.92338093  0.35370311  0.18821263  1  0.052747  -0.011333  3.596185  -0.015  0.021126  -0.00325  3.847892  -0.005  0.02862  -0.002768  3.858959  -0.004  0.053261  0.01462  -0.003883  3.842653  -0.005
C  C40  1  0.37481227  0.40875922  0.54726428  1  0.442828  -0.000864  3.824438  -0.001  0.398592  -0.000259  4.115673  0.0  0.423867  -0.000217  4.115603  0.0  0.240874  0.381725  -0.000351  4.115658  0.0
C  C41  1  0.62518334  0.59123810  0.45273660  1  0.442976  0.000861  3.824031  0.001  0.398576  0.00026  4.115449  0.0  0.423846  0.000214  4.115401  0.0  0.240871  0.381705  0.00035  4.115441  0.0
C  C42  1  0.48396415  0.26374888  0.54934008  1  0.440526  -0.000788  3.839562  -0.001  0.398829  -0.000272  4.129728  0.0  0.423297  -0.000228  4.130609  0.0  0.240406  0.382435  -0.000377  4.128843  0.0
C  C43  1  0.51603674  0.73625270  0.45065585  1  0.440572  0.00079  3.839531  0.001  0.398919  0.000274  4.129716  0.0  0.423388  0.000226  4.130601  0.0  0.240455  0.382528  0.000377  4.128834  0.0
C  C44  1  0.66184012  0.07161888  0.39401130  1  0.220314  -0.007564  3.765195  -0.011  0.218406  -0.002012  4.013392  -0.003  0.221921  -0.00201  4.036118  -0.003  0.108097  0.215805  -0.00209  3.998273  -0.003
C  C45  1  0.33814988  0.92838146  0.60600580  1  0.220402  0.007589  3.765133  0.011  0.21858  0.002014  4.013246  0.003  0.222099  0.00201  4.035971  0.003  0.108217  0.215981  0.002092  3.998134  0.003
C  C46  1  0.71141747  0.02973780  0.26839239  1  0.054326  0.011778  3.602884  0.016  0.019068  0.003793  3.857513  0.005  0.026225  0.003383  3.869545  0.005  0.054028  0.013966  0.004549  3.849598  0.006
C  C47  1  0.28858075  0.97026476  0.73161462  1  0.054201  -0.011815  3.603158  -0.016  0.018882  -0.003802  3.857827  -0.005  0.02604  -0.003391  3.869857  -0.005  0.054005  0.013769  -0.004564  3.849928  -0.006
C  C48  1  0.85692229  0.81352635  0.29703754  1  0.097443  0.009986  3.719558  0.014  0.062647  0.002342  3.985212  0.004  0.069467  0.002152  4.002332  0.004  0.029898  0.057466  0.002922  3.975183  0.004
C  C49  1  0.14306627  0.18648240  0.70296993  1  0.097175  -0.010023  3.719661  -0.014  0.062329  -0.002348  3.985381  -0.004  0.06915  -0.002154  4.002475  -0.004  0.029835  0.057142  -0.002933  3.975365  -0.004
C  C50  1  0.81261437  0.84633245  0.42246616  1  -0.118231  -0.009033  3.789561  -0.012  -0.127993  -0.002641  4.044643  -0.004  -0.134706  -0.002511  4.067082  -0.004  -0.093229  -0.123972  -0.002868  4.031008  -0.004
C  C51  1  0.18737844  0.15367319  0.57754342  1  -0.118033  0.009066  3.789293  0.012  -0.127823  0.002647  4.044387  0.004  -0.134523  0.002513  4.06682  0.004  -0.093094  -0.123797  0.002873  4.030756  0.004
C  C52  1  0.71379592  0.97702344  0.47327831  1  -0.118533  0.011617  3.695494  0.014  -0.146925  0.004064  3.9509  0.005  -0.145609  0.00317  3.967462  0.004  -0.082042  -0.148118  0.005712  3.94053  0.007
C  C53  1  0.28621079  0.02298028  0.52672286  1  -0.118477  -0.011666  3.694889  -0.014  -0.146931  -0.004077  3.950297  -0.005  -0.145608  -0.003181  3.966846  -0.004  -0.082036  -0.148131  -0.005733  3.939945  -0.007
C  C54  1  0.71664470  0.26107859  0.91464881  1  -0.079586  0.000537  3.771901  0.0  -0.053845  0.000203  4.007931  0.0  -0.066514  0.00016  4.031337  0.0  -0.019771  -0.046175  -9.8e-05  3.994804  -0.001
C  C55  1  0.28336921  0.73891686  0.08534116  1  -0.079417  -0.000537  3.771522  0.0  -0.05375  -0.000204  4.007642  0.0  -0.066415  -0.000159  4.031048  0.0  -0.019692  -0.04608  9.7e-05  3.994514  0.001
C  C56  1  0.72360485  0.39565598  0.87110937  1  -0.051614  -0.001605  3.68673  -0.002  -0.092732  -0.000711  3.934873  -0.001  -0.086712  -0.000391  3.952472  0.0  -0.070546  -0.095438  -0.00013  3.922449  0.0
C  C57  1  0.27638280  0.60434543  0.12889577  1  -0.051707  0.001603  3.686594  0.002  -0.092841  0.000709  3.93476  0.001  -0.08682  0.000387  3.952361  0.0  -0.070544  -0.095555  0.000132  3.922338  0.0
C  C58  1  0.61050308  0.48237237  0.83706990  1  -0.091574  0.000383  3.795643  0.001  -0.064684  7e-06  4.030047  0.0  -0.078234  8e-06  4.055945  0.0  -0.019122  -0.055933  -0.000102  4.011639  0.0
C  C59  1  0.38949017  0.51763538  0.16293846  1  -0.091665  -0.000381  3.795735  -0.001  -0.064713  -5e-06  4.030113  0.0  -0.078263  -9e-06  4.056006  0.0  -0.019194  -0.055953  0.000101  4.011685  0.0
C  C60  1  0.48682212  0.43661325  0.85075919  1  -0.017787  -0.001399  3.637343  -0.002  -0.062256  1.3e-05  3.891973  0.0  -0.054673  8.3e-05  3.906971  0.0  -0.059706  -0.065579  0.001271  3.880856  0.001
C  C61  1  0.51318268  0.56338627  0.14923973  1  -0.017704  0.001397  3.637295  0.002  -0.062216  -1.6e-05  3.891907  0.0  -0.054624  -8.9e-05  3.906912  0.0  -0.059669  -0.065535  -0.001268  3.88078  -0.001
C  C62  1  0.47990059  0.30170162  0.89354541  1  -0.062161  0.002333  3.734497  0.003  -0.03459  0.001331  3.969851  0.002  -0.045164  0.000836  3.990951  0.001  -0.013368  -0.028643  0.001502  3.95713  0.002
C  C63  1  0.52011070  0.69829482  0.10645138  1  -0.062248  -0.002331  3.734357  -0.003  -0.034654  -0.00133  3.969709  -0.002  -0.045215  -0.00084  3.990796  -0.001  -0.013304  -0.028712  -0.001501  3.957007  -0.002
C  C64  1  0.59643134  0.21301338  0.92342923  1  -0.034336  0.001483  3.620702  0.002  -0.072967  0.001716  3.863205  0.002  -0.066853  0.001038  3.877791  0.001  -0.062796  -0.079105  0.001476  3.856405  0.002
C  C65  1  0.40358238  0.78697889  0.07656791  1  -0.034281  -0.001481  3.620757  -0.002  -0.072926  -0.00171  3.863257  -0.002  -0.0668  -0.001033  3.877863  -0.001  -0.062871  -0.079066  -0.001473  3.856472  -0.002
C  C66  1  0.83601742  0.17372847  0.95524367  1  0.662751  0.001391  3.872897  -0.001  0.618153  0.001057  4.173315  -0.001  0.659456  0.00019  4.16354  -0.002  0.219936  0.586896  0.002589  4.178524  0.001
C  C67  1  0.16397581  0.82628353  0.04474900  1  0.662542  -0.001394  3.873286  0.001  0.617926  -0.001057  4.17374  0.001  0.659218  -0.000197  4.163986  0.002  0.219881  0.586676  -0.002588  4.178937  -0.001
C  C68  1  0.61526932  0.62581123  0.79472454  1  0.658414  -6e-05  3.81192  0.0  0.60983  -3.8e-05  4.108774  0.0  0.64335  -1.2e-05  4.100039  0.0  0.23761  0.586935  -2e-05  4.114284  0.0
C  C69  1  0.38471869  0.37420277  0.20528092  1  0.658553  6e-05  3.811256  0.0  0.609924  3.8e-05  4.10811  0.0  0.643449  2.3e-05  4.099378  0.0  0.237718  0.587028  2e-05  4.1136  0.0
C  C70  1  0.34705875  0.25167914  0.91244711  1  0.635095  -0.006598  3.899297  -0.011  0.585001  -0.001872  4.207198  -0.005  0.621866  -0.00131  4.20205  -0.003  0.198845  0.558931  -0.002591  4.207435  -0.006
C  C71  1  0.65296540  0.74832163  0.08755038  1  0.635124  0.006603  3.899292  0.011  0.585004  0.001874  4.20725  0.005  0.621848  0.001293  4.202126  0.003  0.198807  0.558921  0.002591  4.207521  0.006
N  N72  1  0.97282375  0.77185310  0.84348431  1  -0.281937  -0.039857  3.334388  -0.068  -0.23631  -0.026634  3.617188  -0.043  -0.255549  -0.023074  3.630597  -0.037  -0.322161  -0.222131  -0.029552  3.609103  -0.048
N  N73  1  0.02716730  0.22814412  0.15653017  1  -0.281678  0.039812  3.334163  0.068  -0.236024  0.026614  3.616846  0.043  -0.255269  0.023051  3.630297  0.037  -0.321966  -0.221833  0.029536  3.608716  0.048
N  N74  1  0.27168951  0.46568178  0.66328488  1  -0.419932  -3.9e-05  3.378723  0.0  -0.364366  -0.000126  3.613448  0.0  -0.387465  -0.000126  3.625695  0.0  -0.38115  -0.348925  -0.000112  3.606238  0.0
N  N75  1  0.72830330  0.53431762  0.33671260  1  -0.420242  3.8e-05  3.378748  0.0  -0.364421  0.000124  3.613529  0.0  -0.387511  0.000125  3.62576  0.0  -0.381229  -0.348982  0.000111  3.606315  0.0
N  N76  1  0.56234338  0.20528941  0.43086582  1  -0.430391  -0.000132  3.416469  0.0  -0.377607  -0.000237  3.653016  0.0  -0.400962  -0.00018  3.666945  0.0  -0.392502  -0.36151  -0.000288  3.643702  0.0
N  N77  1  0.43765602  0.79471319  0.56913481  1  -0.430496  0.000131  3.416688  0.0  -0.377859  0.000235  3.653015  0.0  -0.401223  0.000179  3.666941  0.0  -0.39255  -0.361759  0.000289  3.643718  0.0
N  N78  1  0.80645356  0.90435015  0.22101461  1  -0.287045  -0.039085  3.344052  -0.066  -0.239449  -0.025733  3.627204  -0.04  -0.258672  -0.022464  3.640745  -0.035  -0.32156  -0.225251  -0.028172  3.618651  -0.044
N  N79  1  0.19356261  0.09565897  0.77897231  1  -0.28673  0.039135  3.344591  0.066  -0.239135  0.025746  3.627804  0.04  -0.258363  0.022478  3.641343  0.035  -0.321668  -0.224932  0.028179  3.619271  0.044
O  O80  1  0.38593450  0.46335923  0.44431372  1  -0.508112  -0.000862  1.991169  -0.001  -0.467336  -0.000164  2.212085  0.0  -0.486877  -0.000204  2.209206  0.0  -0.279378  -0.453867  -0.0001  2.213954  0.0
O  O81  1  0.61405519  0.53663592  0.55568959  1  -0.508161  0.000861  1.990968  0.001  -0.467348  0.000163  2.212023  0.0  -0.486857  0.000203  2.209083  0.0  -0.279372  -0.453877  0.0001  2.21389  0.0
O  O82  1  0.49538926  0.21145627  0.64598364  1  -0.481621  -0.001244  1.977966  -0.002  -0.439179  -0.000455  2.190062  0.0  -0.457678  -0.000467  2.18834  -0.001  -0.26882  -0.426733  -0.000432  2.191158  0.0
O  O83  1  0.50461165  0.78853482  0.35401587  1  -0.48156  0.001247  1.978119  0.002  -0.439163  0.000455  2.190234  0.0  -0.457664  0.000471  2.18852  0.001  -0.268838  -0.426717  0.000432  2.191332  0.0
O  O84  1  0.85475992  0.04295631  0.96426332  1  -0.620642  -0.045841  2.202368  -0.071  -0.591947  -0.036085  2.505981  -0.053  -0.62992  -0.027384  2.490827  -0.038  -0.305707  -0.557377  -0.046616  2.512987  -0.07
O  O85  1  0.14522715  0.95705033  0.03574237  1  -0.620364  0.045869  2.202941  0.071  -0.591673  0.036107  2.506613  0.053  -0.629618  0.027401  2.491416  0.038  -0.305649  -0.557103  0.046637  2.513637  0.07
O  O86  1  0.91427144  0.23799800  0.97647881  1  -0.619602  0.044311  2.120935  0.068  -0.589972  0.035233  2.405969  0.052  -0.628569  0.027756  2.394783  0.04  -0.310113  -0.556894  0.041292  2.411486  0.06
O  O87  1  0.08572027  0.76201813  0.02352675  1  -0.619701  -0.04429  2.121227  -0.068  -0.589925  -0.035218  2.406136  -0.052  -0.628512  -0.027742  2.39494  -0.04  -0.310083  -0.556862  -0.041279  2.411656  -0.06
O  O88  1  0.74764218  0.65130711  0.77493867  1  -0.535095  9e-05  2.087839  0.0  -0.490876  8.2e-05  2.29709  0.0  -0.511675  7.7e-05  2.285389  0.0  -0.327371  -0.476058  0.000118  2.30471  0.0
O  O89  1  0.25234119  0.34870052  0.22507340  1  -0.535205  -9e-05  2.087537  0.0  -0.490982  -8.2e-05  2.296806  0.0  -0.511789  -8.3e-05  2.285106  0.0  -0.327437  -0.476167  -0.000117  2.304423  0.0
O  O90  1  0.51161749  0.71650621  0.77974234  1  -0.557633  0.000127  2.010693  0.0  -0.517044  5.3e-05  2.237134  0.0  -0.537509  4.4e-05  2.227639  0.0  -0.280617  -0.502911  6.2e-05  2.243791  0.0
O  O91  1  0.48839137  0.28348078  0.22025290  1  -0.557794  -0.000127  2.010046  0.0  -0.517136  -5.3e-05  2.236454  0.0  -0.537594  -4.6e-05  2.22696  0.0  -0.28068  -0.503  -6.1e-05  2.243096  0.0
O  O92  1  0.22892021  0.33536013  0.90185434  1  -0.638224  0.033573  1.956133  0.054  -0.603062  0.026256  2.208653  0.042  -0.638163  0.018803  2.202065  0.03  -0.315557  -0.573379  0.034395  2.210551  0.054
O  O93  1  0.77109107  0.66464993  0.09814534  1  -0.638269  -0.033593  1.956564  -0.054  -0.603036  -0.02627  2.209062  -0.042  -0.638129  -0.018812  2.20247  -0.03  -0.315581  -0.573353  -0.03441  2.210967  -0.054
O  O94  1  0.35025321  0.12530679  0.94360806  1  -0.587296  0.045843  1.996953  0.076  -0.557948  0.032994  2.253954  0.054  -0.59478  0.024527  2.246395  0.04  -0.306604  -0.526578  0.042173  2.255754  0.068
O  O95  1  0.64976755  0.87469079  0.05639101  1  -0.587188  -0.045865  1.997068  -0.076  -0.557857  -0.033016  2.254103  -0.054  -0.594679  -0.024533  2.246555  -0.04  -0.306555  -0.526488  -0.042192  2.255923  -0.068
