# generated using pymatgen
data_ZnH14C13(IN)2
_symmetry_space_group_name_H-M   'P 1'
_cell_length_a   5.59001958
_cell_length_b   10.79361627
_cell_length_c   12.87358505
_cell_angle_alpha   90.00371556
_cell_angle_beta   90.00269255
_cell_angle_gamma   91.58914882
_symmetry_Int_Tables_number   1
_chemical_formula_structural   ZnH14C13(IN)2
_chemical_formula_sum   'Zn2 H28 C26 I4 N4'
_cell_volume   776.44865145
_cell_formula_units_Z   2
loop_
 _symmetry_equiv_pos_site_id
 _symmetry_equiv_pos_as_xyz
  1  'x, y, z'
loop_
 _atom_site_type_symbol
 _atom_site_label
 _atom_site_symmetry_multiplicity
 _atom_site_fract_x
 _atom_site_fract_y
 _atom_site_fract_z
 _atom_site_occupancy
 _atom_site_hle17_bader_spin_density
 _atom_site_hle17_ddec_charge
 _atom_site_hle17_ddec_spin_density
 _atom_site_hle17_ddec_sum_bond_order
 _atom_site_hle17_magmom
 _atom_site_hse06_10hf_bader_spin_density
 _atom_site_hse06_10hf_ddec_charge
 _atom_site_hse06_10hf_ddec_spin_density
 _atom_site_hse06_10hf_ddec_sum_bond_order
 _atom_site_hse06_10hf_magmom
 _atom_site_hse06_bader_spin_density
 _atom_site_hse06_ddec_charge
 _atom_site_hse06_ddec_spin_density
 _atom_site_hse06_ddec_sum_bond_order
 _atom_site_hse06_magmom
 _atom_site_pbe_bader_spin_density
 _atom_site_pbe_cm5_charge
 _atom_site_pbe_ddec_charge
 _atom_site_pbe_ddec_spin_density
 _atom_site_pbe_ddec_sum_bond_order
 _atom_site_pbe_magmom
Zn  Zn0  1  0.07134746  0.21370451  0.75000424  1  0  0.685269  0  2.161972  0  0  0.516572  0  2.619636  0  0  0.558109  0  2.581714  0  0  0.473216  0.488404  0  2.644947  0
Zn  Zn1  1  0.92864963  0.78629772  0.24999364  1  0  0.685256  0  2.161875  0  0  0.516582  0  2.619517  0  0  0.558117  0  2.581606  0  0  0.473227  0.488421  0  2.644816  0
H  H2  1  0.41023496  0.30758711  0.25001509  1  0  0.062743  0  0.942074  0  0  0.081743  0  1.004185  0  0  0.082362  0  1.005084  0  0  0.081088  0.080798  0  1.004317  0
H  H3  1  0.58977618  0.69240687  0.74998590  1  0  0.062812  0  0.942267  0  0  0.081825  0  1.004381  0  0  0.082446  0  1.005276  0  0  0.081119  0.080902  0  1.004483  0
H  H4  1  0.55715696  0.16528267  0.25000654  1  0  0.060646  0  0.964216  0  0  0.075455  0  1.03443  0  0  0.076582  0  1.034382  0  0  0.072778  0.074827  0  1.034038  0
H  H5  1  0.44284872  0.83470849  0.74999522  1  0  0.060559  0  0.964284  0  0  0.07542  0  1.034459  0  0  0.076539  0  1.034432  0  0  0.07277  0.074789  0  1.03407  0
H  H6  1  0.89108542  0.25529336  0.35470427  1  0  0.081723  0  0.948629  0  0  0.096999  0  1.012462  0  0  0.098472  0  1.01235  0  0  0.083382  0.095368  0  1.013389  0
H  H7  1  0.10890286  0.74468931  0.85465487  1  0  0.081702  0  0.948661  0  0  0.096807  0  1.012588  0  0  0.098269  0  1.01249  0  0  0.083442  0.095186  0  1.013504  0
H  H8  1  0.10892396  0.74470153  0.64529983  1  0  0.08172  0  0.948591  0  0  0.097052  0  1.012378  0  0  0.098525  0  1.012262  0  0  0.083394  0.095407  0  1.013317  0
H  H9  1  0.89108504  0.25530546  0.14533757  1  0  0.081665  0  0.948698  0  0  0.096793  0  1.012603  0  0  0.098254  0  1.012504  0  0  0.083422  0.095173  0  1.01352  0
H  H10  1  0.76722395  0.40473894  0.34538095  1  0  0.076518  0  0.945293  0  0  0.091447  0  1.01252  0  0  0.092607  0  1.012283  0  0  0.086874  0.090379  0  1.012918  0
H  H11  1  0.23276141  0.59524019  0.84531439  1  0  0.076655  0  0.94534  0  0  0.091459  0  1.012574  0  0  0.092655  0  1.012296  0  0  0.086914  0.09039  0  1.012967  0
H  H12  1  0.23278217  0.59526613  0.65461771  1  0  0.076462  0  0.945414  0  0  0.091411  0  1.012639  0  0  0.092568  0  1.0124  0  0  0.086846  0.090332  0  1.01304  0
H  H13  1  0.76723734  0.40475834  0.15468271  1  0  0.076634  0  0.945372  0  0  0.091455  0  1.012599  0  0  0.09265  0  1.012321  0  0  0.086923  0.090386  0  1.012992  0
H  H14  1  0.33898764  0.43454336  0.41644927  1  0  0.100181  0  0.9915  0  0  0.108221  0  1.059467  0  0  0.111597  0  1.058739  0  0  0.089852  0.105761  0  1.060112  0
H  H15  1  0.66098412  0.56543761  0.91642015  1  0  0.100073  0  0.991873  0  0  0.108157  0  1.059793  0  0  0.111525  0  1.059069  0  0  0.089782  0.105701  0  1.060426  0
H  H16  1  0.66102370  0.56545710  0.58355483  1  0  0.100205  0  0.991417  0  0  0.108244  0  1.0594  0  0  0.111617  0  1.058683  0  0  0.089837  0.105778  0  1.060052  0
H  H17  1  0.33900203  0.43455808  0.08358084  1  0  0.100043  0  0.992018  0  0  0.108127  0  1.059915  0  0  0.1115  0  1.059185  0  0  0.089761  0.10567  0  1.060549  0
H  H18  1  0.08730691  0.39007193  0.57303203  1  0  0.064533  0  0.98089  0  0  0.074105  0  1.04676  0  0  0.07679  0  1.044281  0  0  0.097063  0.072101  0  1.048574  0
H  H19  1  0.91269167  0.60991353  0.07299919  1  0  0.064497  0  0.98082  0  0  0.074113  0  1.046613  0  0  0.076789  0  1.044153  0  0  0.097095  0.072114  0  1.048418  0
H  H20  1  0.91270657  0.60993967  0.42697207  1  0  0.064553  0  0.980855  0  0  0.074113  0  1.046725  0  0  0.076796  0  1.044248  0  0  0.09706  0.07211  0  1.048542  0
H  H21  1  0.08729802  0.39008124  0.92700180  1  0  0.064452  0  0.98089  0  0  0.074052  0  1.046706  0  0  0.076728  0  1.044246  0  0  0.097084  0.072054  0  1.048507  0
H  H22  1  0.47853639  0.08149077  0.64706926  1  0  0.065193  0  0.978854  0  0  0.07035  0  1.053257  0  0  0.073049  0  1.050465  0  0  0.097357  0.06828  0  1.055434  0
H  H23  1  0.52146476  0.91848851  0.14705124  1  0  0.065242  0  0.979044  0  0  0.070424  0  1.053419  0  0  0.073124  0  1.050618  0  0  0.097419  0.068355  0  1.055597  0
H  H24  1  0.52147357  0.91852266  0.35293717  1  0  0.065293  0  0.978763  0  0  0.070443  0  1.053139  0  0  0.07314  0  1.050352  0  0  0.097391  0.068372  0  1.055318  0
H  H25  1  0.47853000  0.08149703  0.85294431  1  0  0.06516  0  0.978963  0  0  0.070408  0  1.053272  0  0  0.073107  0  1.050482  0  0  0.097389  0.068338  0  1.055447  0
H  H26  1  0.75112774  0.11534328  0.49687626  1  0  0.110419  0  0.94309  0  0  0.118587  0  1.006495  0  0  0.12206  0  1.005768  0  0  0.102696  0.116115  0  1.007212  0
H  H27  1  0.24884428  0.88464961  0.99684424  1  0  0.110464  0  0.943002  0  0  0.118624  0  1.006393  0  0  0.12211  0  1.005642  0  0  0.102701  0.116121  0  1.007139  0
H  H28  1  0.24887304  0.88466268  0.50313017  1  0  0.110426  0  0.943097  0  0  0.118576  0  1.006512  0  0  0.122052  0  1.005782  0  0  0.102713  0.116094  0  1.00724  0
H  H29  1  0.75113313  0.11535251  0.00315598  1  0  0.110424  0  0.943209  0  0  0.118587  0  1.006598  0  0  0.122064  0  1.005865  0  0  0.102703  0.116074  0  1.007359  0
C  C30  1  0.58823112  0.26631341  0.25001579  1  0  -0.088574  0  3.668079  0  0  -0.122889  0  3.916116  0  0  -0.124497  0  3.930687  0  0  -0.165694  -0.121652  0  3.905288  0
C  C31  1  0.41177643  0.73368055  0.74998908  1  0  -0.088553  0  3.668061  0  0  -0.122968  0  3.916221  0  0  -0.124583  0  3.930802  0  0  -0.165703  -0.121745  0  3.90538  0
C  C32  1  0.72228252  0.30481292  0.34947767  1  0  -0.165145  0  3.698765  0  0  -0.205013  0  3.940472  0  0  -0.207098  0  3.952544  0  0  -0.163466  -0.203195  0  3.932063  0
C  C33  1  0.27770858  0.69516379  0.84943683  1  0  -0.165545  0  3.699079  0  0  -0.205037  0  3.940528  0  0  -0.207134  0  3.95256  0  0  -0.16364  -0.203199  0  3.932142  0
C  C34  1  0.27772879  0.69518661  0.65052099  1  0  -0.16516  0  3.698811  0  0  -0.205054  0  3.940509  0  0  -0.207125  0  3.952558  0  0  -0.163522  -0.203218  0  3.932108  0
C  C35  1  0.72229197  0.30483476  0.15056494  1  0  -0.165461  0  3.698998  0  0  -0.205028  0  3.940515  0  0  -0.207121  0  3.952546  0  0  -0.163663  -0.2032  0  3.932118  0
C  C36  1  0.56981789  0.27907034  0.44339099  1  0  0.171603  0  3.699444  0  0  0.188956  0  3.931984  0  0  0.195216  0  3.953377  0  0  0.019096  0.184684  0  3.917276  0
C  C37  1  0.43014076  0.72091176  0.94335775  1  0  0.172162  0  3.699031  0  0  0.189457  0  3.931442  0  0  0.195727  0  3.952817  0  0  0.019109  0.185106  0  3.916837  0
C  C38  1  0.43017720  0.72092540  0.55660612  1  0  0.171629  0  3.699532  0  0  0.189004  0  3.93205  0  0  0.195264  0  3.953439  0  0  0.019145  0.184732  0  3.917332  0
C  C39  1  0.56985084  0.27908674  0.05664324  1  0  0.171982  0  3.699153  0  0  0.189312  0  3.931546  0  0  0.195565  0  3.952945  0  0  0.019166  0.185001  0  3.916889  0
C  C40  1  0.37748111  0.35541116  0.46593491  1  0  -0.169543  0  3.708868  0  0  -0.184934  0  3.952115  0  0  -0.193735  0  3.973748  0  0  -0.088797  -0.179293  0  3.937683  0
C  C41  1  0.62249632  0.64457746  0.96590849  1  0  -0.16977  0  3.709206  0  0  -0.185273  0  3.952621  0  0  -0.194072  0  3.974237  0  0  -0.088843  -0.17961  0  3.938216  0
C  C42  1  0.62253052  0.64459857  0.53407074  1  0  -0.169563  0  3.708972  0  0  -0.184987  0  3.952263  0  0  -0.193792  0  3.973893  0  0  -0.088816  -0.179344  0  3.93783  0
C  C43  1  0.37750250  0.35542293  0.03409639  1  0  -0.169725  0  3.709146  0  0  -0.185224  0  3.952539  0  0  -0.194019  0  3.974162  0  0  -0.088787  -0.179572  0  3.938125  0
C  C44  1  0.23585566  0.33141930  0.55217608  1  0  0.127809  0  3.721016  0  0  0.095683  0  3.96579  0  0  0.103292  0  3.984137  0  0  0.035909  0.091111  0  3.953204  0
C  C45  1  0.76412456  0.66856718  0.05215734  1  0  0.127826  0  3.721328  0  0  0.09577  0  3.966108  0  0  0.103374  0  3.984467  0  0  0.035922  0.091192  0  3.953533  0
C  C46  1  0.76414872  0.66858761  0.44783034  1  0  0.127771  0  3.72071  0  0  0.095688  0  3.965518  0  0  0.103291  0  3.983882  0  0  0.035957  0.091112  0  3.952935  0
C  C47  1  0.23585988  0.33143127  0.94784209  1  0  0.127996  0  3.720793  0  0  0.095952  0  3.965595  0  0  0.103558  0  3.983945  0  0  0.035918  0.091376  0  3.953024  0
C  C48  1  0.45331707  0.15903482  0.59423732  1  0  0.127269  0  3.729836  0  0  0.094325  0  3.978512  0  0  0.102332  0  3.996956  0  0  0.036921  0.089327  0  3.966205  0
C  C49  1  0.54665289  0.84093362  0.09422496  1  0  0.127067  0  3.730221  0  0  0.094134  0  3.978916  0  0  0.102143  0  3.997374  0  0  0.036893  0.089136  0  3.966599  0
C  C50  1  0.54668908  0.84097118  0.40576522  1  0  0.127056  0  3.730128  0  0  0.094141  0  3.978819  0  0  0.102146  0  3.99727  0  0  0.036845  0.089142  0  3.966509  0
C  C51  1  0.45332598  0.15905831  0.90577214  1  0  0.12722  0  3.730163  0  0  0.094271  0  3.978822  0  0  0.102271  0  3.997285  0  0  0.036963  0.089279  0  3.966494  0
C  C52  1  0.60478498  0.17836634  0.50968641  1  0  -0.170501  0  3.696876  0  0  -0.18783  0  3.942506  0  0  -0.197122  0  3.964732  0  0  -0.086364  -0.181995  0  3.92801  0
C  C53  1  0.39518531  0.82162321  0.00966370  1  0  -0.170837  0  3.697063  0  0  -0.188136  0  3.942715  0  0  -0.197423  0  3.964909  0  0  -0.086413  -0.182253  0  3.92826  0
C  C54  1  0.39522298  0.82164059  0.49031536  1  0  -0.170558  0  3.69696  0  0  -0.18789  0  3.942603  0  0  -0.19718  0  3.964817  0  0  -0.086427  -0.182048  0  3.92811  0
C  C55  1  0.60480791  0.17836974  0.99033807  1  0  -0.170675  0  3.696799  0  0  -0.188015  0  3.942489  0  0  -0.197297  0  3.964685  0  0  -0.086463  -0.182134  0  3.928033  0
I  I56  1  0.92800755  0.98496523  0.74998946  1  0  -0.466577  0  1.054884  0  0  -0.410908  0  1.372848  0  0  -0.427547  0  1.349841  0  0  -0.209763  -0.398376  0  1.388294  0
I  I57  1  0.07201101  0.01503713  0.24996958  1  0  -0.466645  0  1.054918  0  0  -0.410963  0  1.372853  0  0  -0.42761  0  1.349848  0  0  -0.209772  -0.398427  0  1.388297  0
I  I58  1  0.78736898  0.40055444  0.74999872  1  0  -0.454049  0  1.135725  0  0  -0.406094  0  1.470779  0  0  -0.422587  0  1.449767  0  0  -0.18975  -0.393168  0  1.484858  0
I  I59  1  0.21262813  0.59944872  0.25000072  1  0  -0.45405  0  1.135719  0  0  -0.406092  0  1.470757  0  0  -0.422583  0  1.449734  0  0  -0.189746  -0.393165  0  1.484833  0
N  N60  1  0.27296273  0.23502442  0.61628810  1  0  -0.319726  0  3.360834  0  0  -0.227764  0  3.621752  0  0  -0.248604  0  3.640206  0  0  -0.341401  -0.213986  0  3.608935  0
N  N61  1  0.72702980  0.76495886  0.11626757  1  0  -0.319302  0  3.360737  0  0  -0.22749  0  3.621812  0  0  -0.248325  0  3.640261  0  0  -0.341395  -0.213717  0  3.608997  0
N  N62  1  0.72704175  0.76498527  0.38371522  1  0  -0.319468  0  3.360542  0  0  -0.227564  0  3.621509  0  0  -0.248401  0  3.639963  0  0  -0.34131  -0.21379  0  3.608696  0
N  N63  1  0.27296159  0.23503314  0.88373575  1  0  -0.319484  0  3.36105  0  0  -0.227689  0  3.62215  0  0  -0.248527  0  3.640606  0  0  -0.341404  -0.213914  0  3.609335  0
