# generated using pymatgen
data_Al2H10C21(Cl2O5)2
_symmetry_space_group_name_H-M   'P 1'
_cell_length_a   6.79031747
_cell_length_b   11.18066119
_cell_length_c   10.99704434
_cell_angle_alpha   81.89632857
_cell_angle_beta   73.81968665
_cell_angle_gamma   71.14415346
_symmetry_Int_Tables_number   1
_chemical_formula_structural   Al2H10C21(Cl2O5)2
_chemical_formula_sum   'Al2 H10 C21 Cl4 O10'
_cell_volume   757.60602115
_cell_formula_units_Z   1
loop_
 _symmetry_equiv_pos_site_id
 _symmetry_equiv_pos_as_xyz
  1  'x, y, z'
loop_
 _atom_site_type_symbol
 _atom_site_label
 _atom_site_symmetry_multiplicity
 _atom_site_fract_x
 _atom_site_fract_y
 _atom_site_fract_z
 _atom_site_occupancy
 _atom_site_pbe_bader_charge
 _atom_site_pbe_bader_spin_density
 _atom_site_pbe_cm5_charge
 _atom_site_pbe_ddec_charge
 _atom_site_pbe_ddec_spin_density
 _atom_site_pbe_ddec_sum_bond_order
 _atom_site_pbe_magmom
Al  Al0  1  0.49585117  0.50271868  0.50058453  1  2.505796  0  0.397924  1.646179  0  2.55216  0
Al  Al1  1  0.99825457  0.50281466  0.49463877  1  2.504572  0  0.401051  1.640281  0  2.553803  0
H  H2  1  0.29159378  0.35088406  0.57459947  1  0.598055  0  0.332578  0.410316  0  0.895442  0
H  H3  1  0.74361008  0.62007179  0.36781873  1  0.617645  0  0.335277  0.412663  0  0.890587  0
H  H4  1  0.13167434  0.49849195  0.09552055  1  0.08194  0  0.102611  0.102022  0  1.030664  0
H  H5  1  0.73603466  0.50701656  0.13593148  1  0.063756  0  0.106996  0.115094  0  1.007127  0
H  H6  1  0.28667303  0.49705162  0.85795054  1  0.108669  0  0.108368  0.112666  0  1.073212  0
H  H7  1  0.22620331  0.23436141  0.31845981  1  0.11315  0  0.113234  0.138189  0  1.01115  0
H  H8  1  0.43641069  0.76451021  0.33324069  1  0.085526  0  0.11227  0.125334  0  1.035773  0
H  H9  1  0.96891078  0.58743112  0.92540259  1  0.05364  0  0.095093  0.134799  0  1.001542  0
H  H10  1  0.01525459  0.49563286  0.79534678  1  0.111627  0  0.102942  0.158868  0  1.033135  0
H  H11  1  0.04823440  0.42020246  0.94567211  1  0.035983  0  0.096402  0.136107  0  0.995189  0
C  C12  1  0.86150983  0.27723183  0.48729464  1  1.611532  0  0.271108  0.665625  0  4.08407  0
C  C13  1  0.65783316  0.50146654  0.72364657  1  1.589858  0  0.273016  0.651311  0  4.056092  0
C  C14  1  0.13059982  0.72578945  0.50968063  1  1.667813  0  0.273311  0.664159  0  4.086999  0
C  C15  1  0.34415445  0.50658053  0.27023728  1  1.574415  0  0.268392  0.645287  0  4.07194  0
C  C16  1  0.59044693  0.50206368  0.86538566  1  -0.077999  0  -0.012107  -0.102414  0  3.913292  0
C  C17  1  0.42547453  0.50433423  0.12988060  1  0.001109  0  -0.017692  -0.039244  0  4.01848  0
C  C18  1  0.72271635  0.50389828  0.94301984  1  0.064801  0  0.007068  0.184356  0  3.940586  0
C  C19  1  0.29572123  0.50047419  0.05229876  1  -0.042206  0  -0.09029  -0.11085  0  4.005853  0
C  C20  1  0.63587772  0.50569458  0.07430458  1  -0.118026  0  -0.085255  -0.157724  0  3.924314  0
C  C21  1  0.37979334  0.49968555  0.92216298  1  0.028963  0  -0.086612  -0.096486  0  4.008988  0
C  C22  1  0.93267156  0.13531450  0.49166505  1  0.034793  0  -0.009745  -0.128321  0  3.913392  0
C  C23  1  0.13185416  0.06858063  0.41063047  1  0.098085  0  0.002869  0.081679  0  3.969412  0
C  C24  1  0.80512789  0.06928935  0.57632228  1  0.122713  0  0.017423  0.069602  0  4.025587  0
C  C25  1  0.26951426  0.13157190  0.32420130  1  0.052779  0  -0.091191  -0.184115  0  3.927419  0
C  C26  1  0.46249463  0.06471749  0.24820858  1  0.042093  0  0.010608  0.094328  0  4.063371  0
C  C27  1  0.06032487  0.86779282  0.50363231  1  -0.061465  0  -0.007313  -0.122184  0  3.914251  0
C  C28  1  0.86993247  0.93443073  0.58297323  1  0.158134  0  0.01665  0.067553  0  4.045462  0
C  C29  1  0.19467890  0.93302907  0.41601080  1  -0.019162  0  0.002401  0.080653  0  3.966822  0
C  C30  1  0.38951121  0.86704872  0.33338159  1  0.033528  0  -0.091958  -0.182912  0  3.940857  0
C  C31  1  0.52322184  0.93014799  0.25281981  1  0.069525  0  0.010593  0.094266  0  4.05832  0
C  C32  1  0.95196507  0.50137443  0.89755012  1  -0.103485  0  -0.247775  -0.44015  0  3.976366  0
Cl  Cl33  1  0.71538048  0.85540473  0.69397514  1  -0.161636  0  0.020523  -0.026658  0  1.566174  0
Cl  Cl34  1  0.57268450  0.14735146  0.68189736  1  -0.167523  0  0.022338  -0.03837  0  1.587925  0
Cl  Cl35  1  0.62746966  0.14550406  0.14841530  1  -0.180185  0  -0.00114  -0.059682  0  1.506965  0
Cl  Cl36  1  0.76380009  0.84382675  0.15956920  1  -0.193631  0  -7.2e-05  -0.063355  0  1.493197  0
O  O37  1  0.67714363  0.33228288  0.46750561  1  -1.25626  0  -0.232288  -0.591063  0  2.361482  0
O  O38  1  0.83594767  0.52097766  0.66566930  1  -1.262705  0  -0.228512  -0.579522  0  2.399164  0
O  O39  1  0.00856322  0.67316244  0.48380558  1  -1.243715  0  -0.227335  -0.58499  0  2.364435  0
O  O40  1  0.46260625  0.53020501  0.33017233  1  -1.27814  0  -0.240333  -0.611448  0  2.381459  0
O  O41  1  0.31063706  0.67094843  0.53579860  1  -1.252171  0  -0.227478  -0.571226  0  2.316443  0
O  O42  1  0.16291485  0.48648765  0.32014476  1  -1.260114  0  -0.237506  -0.593562  0  2.325745  0
O  O43  1  0.99159993  0.32977753  0.50461606  1  -1.256425  0  -0.229476  -0.585534  0  2.330812  0
O  O44  1  0.52983030  0.48052024  0.66900455  1  -1.26366  0  -0.23565  -0.598293  0  2.369671  0
O  O45  1  0.25481182  0.44096253  0.55087155  1  -1.405899  0  -0.450659  -0.979016  0  2.15378  0
O  O46  1  0.74101354  0.56083677  0.44123382  1  -1.426092  0  -0.45066  -0.984214  0  2.168907  0
