# generated using pymatgen
data_Ag2H18C16S2N4O7
_symmetry_space_group_name_H-M   'P 1'
_cell_length_a   7.49894929
_cell_length_b   12.25971006
_cell_length_c   12.64202142
_cell_angle_alpha   113.05539508
_cell_angle_beta   105.68793296
_cell_angle_gamma   94.11286947
_symmetry_Int_Tables_number   1
_chemical_formula_structural   Ag2H18C16S2N4O7
_chemical_formula_sum   'Ag4 H36 C32 S4 N8 O14'
_cell_volume   1008.66704039
_cell_formula_units_Z   2
loop_
 _symmetry_equiv_pos_site_id
 _symmetry_equiv_pos_as_xyz
  1  'x, y, z'
loop_
 _atom_site_type_symbol
 _atom_site_label
 _atom_site_symmetry_multiplicity
 _atom_site_fract_x
 _atom_site_fract_y
 _atom_site_fract_z
 _atom_site_occupancy
 _atom_site_hle17_bader_spin_density
 _atom_site_hle17_ddec_charge
 _atom_site_hle17_ddec_spin_density
 _atom_site_hle17_ddec_sum_bond_order
 _atom_site_hle17_magmom
 _atom_site_hse06_10hf_bader_spin_density
 _atom_site_hse06_10hf_ddec_charge
 _atom_site_hse06_10hf_ddec_spin_density
 _atom_site_hse06_10hf_ddec_sum_bond_order
 _atom_site_hse06_10hf_magmom
 _atom_site_hse06_bader_spin_density
 _atom_site_hse06_ddec_charge
 _atom_site_hse06_ddec_spin_density
 _atom_site_hse06_ddec_sum_bond_order
 _atom_site_hse06_magmom
 _atom_site_pbe_bader_spin_density
 _atom_site_pbe_cm5_charge
 _atom_site_pbe_ddec_charge
 _atom_site_pbe_ddec_spin_density
 _atom_site_pbe_ddec_sum_bond_order
 _atom_site_pbe_magmom
Ag  Ag0  1  0.51993201  0.53752889  0.76748125  1  0  0.575288  0  1.526722  0  0  0.454647  0  1.987208  0  0  0.482432  0  1.935119  0  0  0.482919  0.435342  0  2.023105  0
Ag  Ag1  1  0.48006617  0.46247089  0.23251856  1  0  0.575319  0  1.526713  0  0  0.45467  0  1.987188  0  0  0.482454  0  1.935101  0  0  0.482912  0.435356  0  2.023086  0
Ag  Ag2  1  0.82272646  0.44062202  0.66969054  1  0  0.467041  0  1.440306  0  0  0.323687  0  1.894417  0  0  0.354992  0  1.845583  0  0  0.424035  0.302289  0  1.927676  0
Ag  Ag3  1  0.17727697  0.55937685  0.33031214  1  0  0.46703  0  1.440334  0  0  0.323671  0  1.89446  0  0  0.354987  0  1.845617  0  0  0.424016  0.302276  0  1.927715  0
H  H4  1  0.23859186  0.06065191  0.34802261  1  0  0.095439  0  0.999719  0  0  0.101197  0  1.067937  0  0  0.102656  0  1.069679  0  0  0.101294  0.100092  0  1.066865  0
H  H5  1  0.76140995  0.93935059  0.65197880  1  0  0.095454  0  0.999693  0  0  0.101219  0  1.067906  0  0  0.10268  0  1.069644  0  0  0.101307  0.100115  0  1.066835  0
H  H6  1  0.17242392  0.85266604  0.33659838  1  0  0.088493  0  0.962739  0  0  0.098057  0  1.027024  0  0  0.101134  0  1.025419  0  0  0.099301  0.09578  0  1.028315  0
H  H7  1  0.82758451  0.14733553  0.66340295  1  0  0.088508  0  0.962705  0  0  0.098025  0  1.027054  0  0  0.101137  0  1.025408  0  0  0.099278  0.09577  0  1.028323  0
H  H8  1  0.20861606  0.82363097  0.52468413  1  0  0.093865  0  0.952315  0  0  0.101467  0  1.020558  0  0  0.105814  0  1.016267  0  0  0.100897  0.098271  0  1.023771  0
H  H9  1  0.79139319  0.17636879  0.47531743  1  0  0.093858  0  0.952297  0  0  0.101473  0  1.020527  0  0  0.105819  0  1.016238  0  0  0.100908  0.098276  0  1.023744  0
H  H10  1  0.30397422  0.00009243  0.72557734  1  0  0.109641  0  0.953094  0  0  0.117738  0  1.017306  0  0  0.120622  0  1.015778  0  0  0.110179  0.115666  0  1.018443  0
H  H11  1  0.69603226  0.99990734  0.27442537  1  0  0.109613  0  0.953155  0  0  0.117759  0  1.017314  0  0  0.120643  0  1.015786  0  0  0.110195  0.115688  0  1.018446  0
H  H12  1  0.17144752  0.90224661  0.83697174  1  0  0.113402  0  0.955466  0  0  0.118146  0  1.023692  0  0  0.122281  0  1.020642  0  0  0.106984  0.115123  0  1.025982  0
H  H13  1  0.82853996  0.09774142  0.16301876  1  0  0.113397  0  0.955446  0  0  0.118126  0  1.023672  0  0  0.122263  0  1.020622  0  0  0.106918  0.1151  0  1.02597  0
H  H14  1  0.18897888  0.12407860  0.88627012  1  0  0.099423  0  0.966416  0  0  0.106581  0  1.032017  0  0  0.110257  0  1.029621  0  0  0.099847  0.103899  0  1.033849  0
H  H15  1  0.81102362  0.87591303  0.11372889  1  0  0.09947  0  0.966322  0  0  0.106588  0  1.03198  0  0  0.110267  0  1.029586  0  0  0.099825  0.103902  0  1.033815  0
H  H16  1  0.91517389  0.21729867  0.91173825  1  0  0.091528  0  0.963622  0  0  0.103969  0  1.02169  0  0  0.107058  0  1.02044  0  0  0.103124  0.101745  0  1.022678  0
H  H17  1  0.08483617  0.78269928  0.08826355  1  0  0.091525  0  0.963571  0  0  0.103958  0  1.021655  0  0  0.107044  0  1.020414  0  0  0.103139  0.101734  0  1.022639  0
H  H18  1  0.61627387  0.09682464  0.89191679  1  0  0.118653  0  0.957435  0  0  0.126643  0  1.02083  0  0  0.130373  0  1.018084  0  0  0.108592  0.1239  0  1.022955  0
H  H19  1  0.38372959  0.90317874  0.10808127  1  0  0.118624  0  0.957465  0  0  0.126642  0  1.020821  0  0  0.130373  0  1.018073  0  0  0.108581  0.123888  0  1.022958  0
H  H20  1  0.79529721  0.51478872  0.95494783  1  0  0.057617  0  0.940588  0  0  0.073201  0  1.011439  0  0  0.074245  0  1.009519  0  0  0.096261  0.072259  0  1.013069  0
H  H21  1  0.20470512  0.48521107  0.04505423  1  0  0.057583  0  0.940598  0  0  0.073186  0  1.011443  0  0  0.07423  0  1.009521  0  0  0.096253  0.072245  0  1.013074  0
H  H22  1  0.99522725  0.59339421  0.94651551  1  0  0.059683  0  0.966183  0  0  0.076739  0  1.029389  0  0  0.076849  0  1.029961  0  0  0.099208  0.076558  0  1.029092  0
H  H23  1  0.00477398  0.40660648  0.05348671  1  0  0.059689  0  0.966122  0  0  0.076741  0  1.029359  0  0  0.07685  0  1.02993  0  0  0.099184  0.07656  0  1.029062  0
H  H24  1  0.82637575  0.33543004  0.81865738  1  0  0.275644  0  0.940833  0  0  0.266669  0  0.998321  0  0  0.271625  0  0.996138  0  0  0.283371  0.263149  0  0.999897  0
H  H25  1  0.17362658  0.66456974  0.18134388  1  0  0.275657  0  0.940846  0  0  0.266678  0  0.998338  0  0  0.271635  0  0.996153  0  0  0.283366  0.263158  0  0.99991  0
H  H26  1  0.04634076  0.38425192  0.82984071  1  0  0.300617  0  0.933239  0  0  0.291531  0  0.985547  0  0  0.297308  0  0.982683  0  0  0.286564  0.287371  0  0.987708  0
H  H27  1  0.95366186  0.61574876  0.17016173  1  0  0.300602  0  0.933282  0  0  0.291493  0  0.985606  0  0  0.297271  0  0.982742  0  0  0.286529  0.287328  0  0.987774  0
H  H28  1  0.65103472  0.37528844  0.43376488  1  0  0.290753  0  0.921534  0  0  0.279297  0  0.982094  0  0  0.284798  0  0.979279  0  0  0.286396  0.275352  0  0.984173  0
H  H29  1  0.34896899  0.62471133  0.56623660  1  0  0.290799  0  0.921507  0  0  0.279335  0  0.98208  0  0  0.284838  0  0.979262  0  0  0.286386  0.275392  0  0.984157  0
H  H30  1  0.69781669  0.52541412  0.50438815  1  0  0.289968  0  0.932175  0  0  0.281134  0  0.987189  0  0  0.287516  0  0.982945  0  0  0.282406  0.276491  0  0.99042  0
H  H31  1  0.30218148  0.47458567  0.49561325  1  0  0.289935  0  0.932255  0  0  0.281153  0  0.987187  0  0  0.287533  0  0.98295  0  0  0.282427  0.276511  0  0.990418  0
H  H32  1  0.87369775  0.47640619  0.37231739  1  0  0.041299  0  0.953923  0  0  0.060058  0  1.026931  0  0  0.060535  0  1.024912  0  0  0.087849  0.059545  0  1.028574  0
H  H33  1  0.12630435  0.52359721  0.62768599  1  0  0.041236  0  0.953939  0  0  0.059982  0  1.02697  0  0  0.060455  0  1.024951  0  0  0.087844  0.059472  0  1.028608  0
H  H34  1  0.94832494  0.36302884  0.41737051  1  0  0.078074  0  0.913012  0  0  0.098669  0  0.965806  0  0  0.098628  0  0.96718  0  0  0.106954  0.098585  0  0.964984  0
H  H35  1  0.05168131  0.63697456  0.58263354  1  0  0.078034  0  0.913041  0  0  0.098661  0  0.965779  0  0  0.098627  0  0.967148  0  0  0.106952  0.098579  0  0.964957  0
H  H36  1  0.35150118  0.64942882  0.96776238  1  0  0.418401  0  0.869207  0  0  0.391349  0  0.930649  0  0  0.400655  0  0.91698  0  0  0.290809  0.384819  0  0.940233  0
H  H37  1  0.64849977  0.35057096  0.03224024  1  0  0.418302  0  0.869404  0  0  0.391302  0  0.930723  0  0  0.400609  0  0.917053  0  0  0.290779  0.384773  0  0.940307  0
H  H38  1  0.19565524  0.64638758  0.85537236  1  0  0.422307  0  0.874059  0  0  0.393787  0  0.935428  0  0  0.403189  0  0.92147  0  0  0.291476  0.38713  0  0.945313  0
H  H39  1  0.80434600  0.35361311  0.14463066  1  0  0.42231  0  0.874055  0  0  0.393789  0  0.935424  0  0  0.403192  0  0.921466  0  0  0.291462  0.387133  0  0.94531  0
C  C40  1  0.34879285  0.27673200  0.56943648  1  0  0.541067  0  3.9104  0  0  0.500277  0  4.193086  0  0  0.530852  0  4.191972  0  0  0.222544  0.479543  0  4.193243  0
C  C41  1  0.65120810  0.72326778  0.43056456  1  0  0.540977  0  3.910485  0  0  0.500245  0  4.193104  0  0  0.530818  0  4.191992  0  0  0.222536  0.479507  0  4.193262  0
C  C42  1  0.30462027  0.14580159  0.54215814  1  0  -0.064326  0  3.805153  0  0  -0.047932  0  4.029341  0  0  -0.054671  0  4.053385  0  0  -0.014005  -0.043535  0  4.013261  0
C  C43  1  0.69538096  0.85419909  0.45784250  1  0  -0.064246  0  3.805172  0  0  -0.047868  0  4.029331  0  0  -0.054606  0  4.053375  0  0  -0.013975  -0.043489  0  4.013232  0
C  C44  1  0.25131768  0.04686943  0.42937139  1  0  -0.046027  0  3.70103  0  0  -0.066894  0  3.943172  0  0  -0.067004  0  3.964903  0  0  -0.073246  -0.066736  0  3.928515  0
C  C45  1  0.74867663  0.95313127  0.57062815  1  0  -0.046034  0  3.700866  0  0  -0.066915  0  3.943018  0  0  -0.067026  0  3.96476  0  0  -0.073284  -0.06676  0  3.928373  0
C  C46  1  0.21595132  0.93109426  0.42439136  1  0  -0.056233  0  3.722063  0  0  -0.071892  0  3.974304  0  0  -0.073798  0  3.995112  0  0  -0.080499  -0.070552  0  3.960233  0
C  C47  1  0.78405297  0.06890733  0.57561089  1  0  -0.056254  0  3.721957  0  0  -0.071878  0  3.974217  0  0  -0.073812  0  3.995011  0  0  -0.080481  -0.070556  0  3.960148  0
C  C48  1  0.23471200  0.91459707  0.52999614  1  0  -0.041057  0  3.705543  0  0  -0.055312  0  3.957438  0  0  -0.056533  0  3.976264  0  0  -0.074873  -0.054402  0  3.944702  0
C  C49  1  0.76529615  0.08540360  0.47000639  1  0  -0.041057  0  3.705518  0  0  -0.055318  0  3.957422  0  0  -0.05654  0  3.97626  0  0  -0.074911  -0.054414  0  3.94471  0
C  C50  1  0.28908981  0.01382421  0.64397697  1  0  -0.044637  0  3.712444  0  0  -0.071687  0  3.965266  0  0  -0.071735  0  3.985575  0  0  -0.07566  -0.071637  0  3.951627  0
C  C51  1  0.71091449  0.98617737  0.35602608  1  0  -0.044547  0  3.712472  0  0  -0.071648  0  3.965297  0  0  -0.071696  0  3.985605  0  0  -0.075638  -0.071621  0  3.951645  0
C  C52  1  0.32277226  0.12786393  0.64672785  1  0  -0.140052  0  3.768774  0  0  -0.120902  0  4.015208  0  0  -0.126702  0  4.038327  0  0  -0.016154  -0.117105  0  3.999869  0
C  C53  1  0.67723064  0.87213766  0.35327340  1  0  -0.14013  0  3.768914  0  0  -0.120955  0  4.015349  0  0  -0.126758  0  4.038472  0  0  -0.016135  -0.117085  0  3.999905  0
C  C54  1  0.84296475  0.74760929  0.81124882  1  0  0.570874  0  3.877956  0  0  0.521484  0  4.164217  0  0  0.552771  0  4.164116  0  0  0.230196  0.500338  0  4.163594  0
C  C55  1  0.15702540  0.25239142  0.18875006  1  0  0.571174  0  3.8776  0  0  0.521685  0  4.163963  0  0  0.552979  0  4.16386  0  0  0.230269  0.500529  0  4.163341  0
C  C56  1  0.88308989  0.87763186  0.83486482  1  0  -0.062649  0  3.798934  0  0  -0.047206  0  4.026443  0  0  -0.052772  0  4.049333  0  0  -0.009409  -0.043642  0  4.011199  0
C  C57  1  0.11689799  0.12236612  0.16512634  1  0  -0.062571  0  3.798724  0  0  -0.047107  0  4.026271  0  0  -0.052671  0  4.04916  0  0  -0.009318  -0.043537  0  4.011017  0
C  C58  1  0.05073867  0.94502473  0.84670819  1  0  -0.050772  0  3.676264  0  0  -0.071102  0  3.922953  0  0  -0.071317  0  3.941264  0  0  -0.072371  -0.070881  0  3.910685  0
C  C59  1  0.94925307  0.05497233  0.15328245  1  0  -0.050833  0  3.676247  0  0  -0.071118  0  3.922886  0  0  -0.071334  0  3.941201  0  0  -0.072353  -0.070901  0  3.91062  0
C  C60  1  0.05898669  0.06776034  0.87341107  1  0  -0.062479  0  3.720561  0  0  -0.080783  0  3.978144  0  0  -0.081941  0  3.997316  0  0  -0.085113  -0.079944  0  3.965166  0
C  C61  1  0.94101170  0.93223581  0.12658503  1  0  -0.062503  0  3.720532  0  0  -0.080796  0  3.978103  0  0  -0.081961  0  3.997282  0  0  -0.085062  -0.079957  0  3.965125  0
C  C62  1  0.90348522  0.12112386  0.88812365  1  0  -0.048927  0  3.706724  0  0  -0.063873  0  3.961782  0  0  -0.065251  0  3.980274  0  0  -0.081612  -0.062936  0  3.949282  0
C  C63  1  0.09651375  0.87887410  0.11187243  1  0  -0.048924  0  3.706749  0  0  -0.063859  0  3.961798  0  0  -0.065235  0  3.980287  0  0  -0.081651  -0.062918  0  3.949289  0
C  C64  1  0.73444913  0.05412177  0.87636996  1  0  -0.048071  0  3.708915  0  0  -0.075417  0  3.962434  0  0  -0.074598  0  3.980121  0  0  -0.078073  -0.075916  0  3.950607  0
C  C65  1  0.26554683  0.94587982  0.12362702  1  0  -0.048081  0  3.70887  0  0  -0.075421  0  3.96239  0  0  -0.074601  0  3.980074  0  0  -0.07805  -0.075917  0  3.950567  0
C  C66  1  0.72925513  0.93266714  0.84934117  1  0  -0.139606  0  3.774088  0  0  -0.11639  0  4.012043  0  0  -0.122189  0  4.033765  0  0  -0.013927  -0.112567  0  3.997604  0
C  C67  1  0.27073719  0.06733174  0.15065183  1  0  -0.139449  0  3.77377  0  0  -0.116324  0  4.011841  0  0  -0.122124  0  4.033568  0  0  -0.01394  -0.112506  0  3.997402  0
C  C68  1  0.93703790  0.50901105  0.94676785  1  0  0.040694  0  3.647244  0  0  -0.017682  0  3.906568  0  0  -0.013577  0  3.919685  0  0  -0.086134  -0.020347  0  3.89756  0
C  C69  1  0.06296443  0.49098873  0.05323341  1  0  0.040762  0  3.647178  0  0  -0.01765  0  3.906512  0  0  -0.013538  0  3.919624  0  0  -0.086116  -0.020316  0  3.897507  0
C  C70  1  0.91434085  0.45348676  0.45077312  1  0  0.046591  0  3.644817  0  0  -0.011552  0  3.903595  0  0  -0.007841  0  3.918331  0  0  -0.083569  -0.013963  0  3.89346  0
C  C71  1  0.08566125  0.54651664  0.54923026  1  0  0.046925  0  3.644729  0  0  -0.011191  0  3.903407  0  0  -0.007492  0  3.91818  0  0  -0.083487  -0.013607  0  3.893274  0
S  S72  1  0.39199385  0.27210053  0.77188237  1  0  1.233049  0  5.38107  0  0  1.142305  0  5.883028  0  0  1.187577  0  5.868526  0  0  0.560818  1.111029  0  5.892165  0
S  S73  1  0.60801459  0.72790104  0.22811896  1  0  1.233093  0  5.381086  0  0  1.142292  0  5.883089  0  0  1.187562  0  5.868587  0  0  0.56081  1.110995  0  5.89221  0
S  S74  1  0.54539009  0.82300958  0.83348869  1  0  1.220764  0  5.397946  0  0  1.13276  0  5.900013  0  0  1.178538  0  5.88523  0  0  0.549704  1.101056  0  5.909413  0
S  S75  1  0.45459706  0.17699475  0.16650950  1  0  1.220814  0  5.397591  0  0  1.132818  0  5.899634  0  0  1.178601  0  5.884855  0  0  0.549778  1.101114  0  5.909032  0
N  N76  1  0.91729957  0.40799007  0.82882136  1  0  -0.604765  0  3.224234  0  0  -0.533695  0  3.481076  0  0  -0.556579  0  3.483327  0  0  -0.655621  -0.517804  0  3.47914  0
N  N77  1  0.08270276  0.59200971  0.17118069  1  0  -0.604749  0  3.224202  0  0  -0.533691  0  3.481128  0  0  -0.556575  0  3.483372  0  0  -0.655573  -0.517795  0  3.479192  0
N  N78  1  0.75357589  0.44918639  0.49701501  1  0  -0.605343  0  3.206741  0  0  -0.533398  0  3.463267  0  0  -0.556468  0  3.464969  0  0  -0.648339  -0.517371  0  3.461796  0
N  N79  1  0.24642534  0.55081430  0.50298721  1  0  -0.605439  0  3.206892  0  0  -0.53353  0  3.463431  0  0  -0.556606  0  3.465135  0  0  -0.648358  -0.517502  0  3.461959  0
N  N80  1  0.39823698  0.34960708  0.69218451  1  0  -0.69999  0  3.162432  0  0  -0.621288  0  3.489183  0  0  -0.652113  0  3.487443  0  0  -0.430542  -0.599935  0  3.489434  0
N  N81  1  0.60176673  0.65039269  0.30781617  1  0  -0.699984  0  3.162414  0  0  -0.62134  0  3.489212  0  0  -0.65216  0  3.487464  0  0  -0.430555  -0.599986  0  3.489466  0
N  N82  1  0.66479749  0.71206509  0.80955636  1  0  -0.692235  0  3.14153  0  0  -0.610126  0  3.466958  0  0  -0.641415  0  3.465719  0  0  -0.427456  -0.588564  0  3.466917  0
N  N83  1  0.33518821  0.28793472  0.19043830  1  0  -0.692462  0  3.141633  0  0  -0.610232  0  3.466969  0  0  -0.641549  0  3.465763  0  0  -0.427468  -0.588646  0  3.466917  0
O  O84  1  0.34299385  0.31523316  0.49131976  1  0  -0.528048  0  1.927136  0  0  -0.479715  0  2.140394  0  0  -0.500199  0  2.133352  0  0  -0.289963  -0.465509  0  2.144834  0
O  O85  1  0.65700484  0.68476391  0.50867911  1  0  -0.528038  0  1.927155  0  0  -0.479694  0  2.140366  0  0  -0.50019  0  2.133346  0  0  -0.289973  -0.465485  0  2.144804  0
O  O86  1  0.58113201  0.28735933  0.85427020  1  0  -0.623859  0  1.985637  0  0  -0.562409  0  2.226272  0  0  -0.58517  0  2.214975  0  0  -0.304103  -0.546492  0  2.233711  0
O  O87  1  0.41887475  0.71264134  0.14573131  1  0  -0.623881  0  1.985572  0  0  -0.562436  0  2.226254  0  0  -0.5852  0  2.21496  0  0  -0.304102  -0.546526  0  2.233697  0
O  O88  1  0.24860311  0.29653961  0.83113946  1  0  -0.592443  0  1.954369  0  0  -0.537422  0  2.190333  0  0  -0.558739  0  2.178967  0  0  -0.304418  -0.522345  0  2.19757  0
O  O89  1  0.75140532  0.70346195  0.16886108  1  0  -0.592474  0  1.954477  0  0  -0.537346  0  2.190373  0  0  -0.558662  0  2.17901  0  0  -0.304397  -0.522271  0  2.197611  0
O  O90  1  0.96014472  0.68043220  0.79657584  1  0  -0.568503  0  2.021047  0  0  -0.502692  0  2.259606  0  0  -0.526275  0  2.250097  0  0  -0.29136  -0.4864  0  2.265751  0
O  O91  1  0.03984574  0.31956943  0.20342581  1  0  -0.568669  0  2.020806  0  0  -0.502803  0  2.259378  0  0  -0.526386  0  2.249866  0  0  -0.291385  -0.486514  0  2.265528  0
O  O92  1  0.38411005  0.79451693  0.72538506  1  0  -0.607382  0  1.935693  0  0  -0.550395  0  2.176236  0  0  -0.572638  0  2.165076  0  0  -0.30835  -0.534615  0  2.183382  0
O  O93  1  0.61587762  0.20548468  0.27461219  1  0  -0.607494  0  1.935438  0  0  -0.550499  0  2.175986  0  0  -0.572742  0  2.164823  0  0  -0.308482  -0.534695  0  2.183077  0
O  O94  1  0.50375785  0.85508965  0.94611689  1  0  -0.590939  0  1.944904  0  0  -0.544532  0  2.191792  0  0  -0.566922  0  2.181284  0  0  -0.307408  -0.528636  0  2.198428  0
O  O95  1  0.49624177  0.14491466  0.05388565  1  0  -0.590963  0  1.944847  0  0  -0.544567  0  2.191703  0  0  -0.566956  0  2.181194  0  0  -0.307429  -0.528689  0  2.198368  0
O  O96  1  0.28394394  0.59909768  0.88130544  1  0  -0.821922  0  1.844241  0  0  -0.767221  0  2.033591  0  0  -0.786368  0  2.001603  0  0  -0.599547  -0.753622  0  2.055826  0
O  O97  1  0.71605534  0.40090121  0.11869738  1  0  -0.821826  0  1.844416  0  0  -0.767186  0  2.033661  0  0  -0.786334  0  2.001674  0  0  -0.599508  -0.753587  0  2.055895  0
