# generated using pymatgen
data_Zn4H82C78N34O3
_symmetry_space_group_name_H-M   'P 1'
_cell_length_a   19.80676399
_cell_length_b   20.34893328
_cell_length_c   21.03157636
_cell_angle_alpha   106.24678793
_cell_angle_beta   106.50523014
_cell_angle_gamma   112.74299223
_symmetry_Int_Tables_number   1
_chemical_formula_structural   Zn4H82C78N34O3
_chemical_formula_sum   'Zn4 H82 C78 N34 O3'
_cell_volume   6728.68647336
_cell_formula_units_Z   1
loop_
 _symmetry_equiv_pos_site_id
 _symmetry_equiv_pos_as_xyz
  1  'x, y, z'
loop_
 _atom_site_type_symbol
 _atom_site_label
 _atom_site_symmetry_multiplicity
 _atom_site_fract_x
 _atom_site_fract_y
 _atom_site_fract_z
 _atom_site_occupancy
 _atom_site_pbe_bader_charge
 _atom_site_pbe_bader_spin_density
 _atom_site_pbe_cm5_charge
 _atom_site_pbe_ddec_charge
 _atom_site_pbe_ddec_spin_density
 _atom_site_pbe_ddec_sum_bond_order
 _atom_site_pbe_magmom
Zn  Zn0  1  0.59174504  0.61289967  0.52069870  1  1.189633  0  0.756281  0.67379  0  2.270009  0
Zn  Zn1  1  0.38097292  0.41039054  0.52247620  1  1.171947  0  0.77347  0.677482  0  2.310219  0
Zn  Zn2  1  0.49410634  0.61167972  0.63178655  1  1.198573  0  0.742027  0.643163  0  2.369085  0
Zn  Zn3  1  0.47365062  0.41581809  0.40360537  1  1.178685  0  0.743285  0.641961  0  2.36523  0
H  H4  1  0.78237374  0.71405934  0.65650099  1  0.063845  0  0.118929  0.103033  0  1.006242  0
H  H5  1  0.39694575  0.25316354  0.54108815  1  0.090713  0  0.124453  0.113763  0  0.983802  0
H  H6  1  0.01249708  0.64862689  0.53301206  1  0.010619  0  0.099829  0.055407  0  0.973674  0
H  H7  1  0.86572663  0.44124927  0.32524137  1  0.050236  0  0.092224  0.098467  0  0.989411  0
H  H8  1  0.88309643  0.53199233  0.32279121  1  0.018175  0  0.09292  0.09166  0  0.985893  0
H  H9  1  0.97972867  0.46504754  0.30267839  1  0.060827  0  0.093777  0.103871  0  0.987355  0
H  H10  1  0.89509280  0.43115294  0.44678690  1  0.01556  0  0.09787  0.109312  0  0.97654  0
H  H11  1  0.01386233  0.56684405  0.33135491  1  0.017778  0  0.090201  0.07985  0  1.052568  0
H  H12  1  0.65394066  0.13555859  0.51773139  1  0.034243  0  0.092609  0.03464  0  0.972715  0
H  H13  1  0.63773871  0.01298161  0.49837690  1  0.036488  0  0.089249  0.097244  0  1.012495  0
H  H14  1  0.53721766  0.96461868  0.42668165  1  0.066644  0  0.096306  0.106318  0  1.014687  0
H  H15  1  0.22838089  0.39441808  0.39496806  1  0.120242  0  0.121502  0.118404  0  1.006462  0
H  H16  1  0.45012552  0.08411243  0.56585740  1  0.022426  0  0.093671  0.022955  0  1.010125  0
H  H17  1  0.45121071  0.97587199  0.57013889  1  0.04631  0  0.105074  0.053498  0  0.968117  0
H  H18  1  0.56975338  0.14078471  0.65254343  1  0.013548  0  0.093246  0.029461  0  0.987686  0
H  H19  1  0.58906285  0.03997046  0.65632273  1  0.00857  0  0.092036  0.0292  0  0.982982  0
H  H20  1  0.62332222  0.40389834  0.35566655  1  0.087435  0  0.121546  0.113807  0  0.984988  0
H  H21  1  0.63434940  0.59521644  0.87805339  1  0.051515  0  0.095027  0.109508  0  1.063194  0
H  H22  1  0.74744988  0.61443058  0.21226615  1  0.076958  0  0.102732  0.106299  0  0.995102  0
H  H23  1  0.70577856  0.62816756  0.31319067  1  0.041815  0  0.101751  0.103778  0  0.997772  0
H  H24  1  0.52368156  0.39170132  0.06970439  1  0.063941  0  0.100342  0.100942  0  1.025407  0
H  H25  1  0.48142146  0.40411660  0.16997177  1  0.046361  0  0.098234  0.098275  0  1.00413  0
H  H26  1  0.51759435  0.80190883  0.65953876  1  0.076058  0  0.120679  0.11059  0  0.989962  0
H  H27  1  0.45369769  0.37593908  0.65191576  1  0.117545  0  0.115365  0.101587  0  1.037574  0
H  H28  1  0.02290935  0.86378451  0.87388807  1  0.035086  0  0.098113  0.106275  0  1.008004  0
H  H29  1  0.89009980  0.79137823  0.76288218  1  0.05118  0  0.09602  0.09405  0  1.011551  0
H  H30  1  0.10831521  0.10496936  0.25272923  1  0.040027  0  0.093438  0.098639  0  1.018274  0
H  H31  1  0.90832666  0.73598746  0.98004207  1  0.072161  0  0.100987  0.118075  0  1.008507  0
H  H32  1  0.00905868  0.96783391  0.15273078  1  0.068097  0  0.09925  0.104696  0  1.009458  0
H  H33  1  0.76242956  0.61243589  0.56644474  1  0.088131  0  0.113651  0.10355  0  1.027481  0
H  H34  1  0.59984662  0.38044003  0.49983558  1  0.124245  0  0.122899  0.119796  0  1.008115  0
H  H35  1  0.63980403  0.63191812  0.76890002  1  0.109464  0  0.109289  0.096466  0  1.073082  0
H  H36  1  0.65726662  0.64858973  0.40096605  1  0.092783  0  0.121335  0.106474  0  0.990599  0
H  H37  1  0.37272445  0.24469832  0.26112435  1  0.095821  0  0.11119  0.100594  0  1.02147  0
H  H38  1  0.11449874  0.46548367  0.49639488  1  0.411149  0  0.27963  0.26819  0  0.993141  0
H  H39  1  0.04319804  0.43442592  0.52478480  1  0.39093  0  0.285419  0.2724  0  0.962835  0
H  H40  1  0.03952477  0.72660850  0.46272065  1  0.408873  0  0.280607  0.271373  0  0.981616  0
H  H41  1  0.95998671  0.65000766  0.38886576  1  0.353303  0  0.273899  0.255181  0  1.004466  0
H  H42  1  0.13574859  0.68045649  0.59235503  1  0.373942  0  0.277886  0.272919  0  0.977738  0
H  H43  1  0.12135152  0.58776905  0.55984584  1  0.459253  0  0.264907  0.267772  0  1.070214  0
H  H44  1  0.08722856  0.68313281  0.36385042  1  -0.029553  0  0.079804  0.02519  0  1.000945  0
H  H45  1  0.14267382  0.63226841  0.37502843  1  0.048966  0  0.091212  0.053112  0  1.019903  0
H  H46  1  0.27212149  0.76086954  0.45938167  1  0.046077  0  0.093595  0.133676  0  0.990068  0
H  H47  1  0.22478232  0.75995735  0.37317370  1  0.01289  0  0.088654  0.118896  0  1.010638  0
H  H48  1  0.20084811  0.21934660  0.35464492  1  0.066156  0  0.108097  0.092554  0  1.008951  0
H  H49  1  0.21890904  0.81350275  0.45225537  1  0.042212  0  0.085315  0.116334  0  1.004828  0
H  H50  1  0.93813490  0.35046961  0.39239107  1  0.368607  0  0.278997  0.262634  0  0.983209  0
H  H51  1  0.00948448  0.38280237  0.36502337  1  0.388611  0  0.279667  0.265256  0  0.982469  0
H  H52  1  0.70913563  0.04719571  0.66694411  1  0.398089  0  0.284262  0.271912  0  0.97874  0
H  H53  1  0.73252376  0.12974195  0.65424798  1  0.418427  0  0.271195  0.258521  0  1.041483  0
H  H54  1  0.49266562  0.65373925  0.80433975  1  0.413954  0  0.31416  0.310223  0  0.926547  0
H  H55  1  0.53643549  0.62206405  0.86130525  1  0.447218  0  0.305322  0.304253  0  0.95226  0
H  H56  1  0.70926339  0.22729474  0.71269029  1  0.380265  0  0.288811  0.272227  0  0.95672  0
H  H57  1  0.68050527  0.24834370  0.64362678  1  0.416216  0  0.276827  0.262467  0  0.999947  0
H  H58  1  0.58256864  0.08344615  0.38902739  1  0.380236  0  0.277268  0.258821  0  0.977987  0
H  H59  1  0.53581918  0.71262155  0.45598111  1  0.114652  0  0.120502  0.115583  0  0.995971  0
H  H60  1  0.54110806  0.13277076  0.42099947  1  0.386808  0  0.270981  0.255189  0  1.007318  0
H  H61  1  0.33754253  0.07344695  0.50060947  1  0.01843  0  0.083299  0.030271  0  0.993382  0
H  H62  1  0.29839387  0.97026679  0.44775356  1  0.03875  0  0.09355  0.05019  0  0.99599  0
H  H63  1  0.27598238  0.99050222  0.33161756  1  0.030419  0  0.091014  0.126607  0  0.994711  0
H  H64  1  0.22118101  0.01913053  0.37615915  1  0.014229  0  0.088885  0.119992  0  1.000025  0
H  H65  1  0.31363041  0.09293449  0.38485409  1  0.019558  0  0.08488  0.116448  0  1.016651  0
H  H66  1  0.42066297  0.94181536  0.38270170  1  0.105287  0  0.095494  0.058116  0  1.050397  0
H  H67  1  0.31753480  0.87437100  0.35554323  1  0.019413  0  0.092842  0.050473  0  0.978115  0
H  H68  1  0.35219839  0.76898961  0.36359185  1  0.026637  0  0.087981  0.123027  0  1.009334  0
H  H69  1  0.37451439  0.80070828  0.29744361  1  -0.002195  0  0.084189  0.114135  0  1.004508  0
H  H70  1  0.43500559  0.42117594  0.25915544  1  0.041773  0  0.11769  0.108104  0  0.997052  0
H  H71  1  0.45473361  0.83370388  0.38506082  1  0.029528  0  0.082824  0.116579  0  1.031368  0
H  H72  1  0.72241535  0.65136338  0.00858326  1  0.431949  0  0.30828  0.30221  0  0.928732  0
H  H73  1  0.71415148  0.59021243  0.05421010  1  0.500945  0  0.286131  0.264229  0  1.06783  0
H  H74  1  0.38914371  0.29788343  0.77347611  1  0.407559  0  0.287991  0.272682  0  0.973669  0
H  H75  1  0.39649185  0.34426243  0.71992999  1  0.410986  0  0.281873  0.26511  0  1.001936  0
H  H76  1  0.47264200  0.27075662  0.83700388  1  0.423724  0  0.303416  0.295992  0  0.947411  0
H  H77  1  0.52098280  0.31885457  0.93137646  1  0.457326  0  0.299635  0.288298  0  0.978182  0
H  H78  1  0.36009251  0.13886256  0.26244712  1  0.41372  0  0.291815  0.278712  0  0.979016  0
H  H79  1  0.33569635  0.05035574  0.20310791  1  0.415416  0  0.296872  0.283378  0  0.95609  0
H  H80  1  0.25952528  0.98897841  0.08882390  1  0.409116  0  0.299219  0.286796  0  0.958219  0
H  H81  1  0.34920432  0.64107453  0.55340646  1  0.126372  0  0.126826  0.119318  0  0.985617  0
H  H82  1  0.16078488  0.90864355  0.03939088  1  0.491104  0  0.285696  0.263376  0  1.05872  0
H  H83  1  0.77806846  0.61860092  0.90156395  1  0.416084  0  0.300501  0.2946  0  0.947321  0
H  H84  1  0.72256792  0.59392604  0.81296425  1  0.440643  0  0.297027  0.285004  0  0.96753  0
H  H85  1  0.97659833  0.51789889  0.52727380  1  0.046783  0  0.099876  0.109335  0  0.986863  0
C  C86  1  0.73581788  0.68841993  0.67370120  1  0.451974  0  0.00943  -0.049734  0  3.986033  0
C  C87  1  0.53135699  0.72351101  0.50778822  1  0.421442  0  0.012503  -0.046349  0  3.946654  0
C  C88  1  0.48557111  0.47837538  0.30303222  1  0.431115  0  -0.000595  -0.05991  0  3.979132  0
C  C89  1  0.44105241  0.29281792  0.52887971  1  0.441404  0  0.023336  -0.035142  0  3.936369  0
C  C90  1  0.33125429  0.57980254  0.52226087  1  0.418871  0  0.028455  -0.015526  0  3.892271  0
C  C91  1  0.55853405  0.53025025  0.30444064  1  0.004009  0  -0.031815  -0.033774  0  4.072431  0
C  C92  1  0.25788109  0.51990974  0.45851374  1  0.139842  0  -0.025632  0.048974  0  4.170977  0
C  C93  1  0.52874436  0.78715488  0.55329020  1  0.100884  0  -0.030599  0.049191  0  4.205927  0
C  C94  1  0.26616635  0.19333078  0.28738385  1  0.007224  0  -0.041443  -0.031853  0  4.076179  0
C  C95  1  0.95122662  0.48761425  0.46688077  1  -0.016616  0  -0.150146  -0.289379  0  3.808979  0
C  C96  1  0.00313009  0.62536657  0.47520654  1  0.357094  0  0.002266  0.038279  0  3.800719  0
C  C97  1  0.51355384  0.29700778  0.52832602  1  0.119005  0  -0.029287  0.046156  0  4.200158  0
C  C98  1  0.08426103  0.62278995  0.47966815  1  0.813568  0  0.169169  0.349219  0  3.750742  0
C  C99  1  0.18728936  0.52493971  0.42995212  1  -0.475013  0  -0.05787  -0.124687  0  4.137856  0
C  C100  1  0.92876172  0.53952656  0.43377044  1  0.128707  0  0.001969  0.158498  0  3.878778  0
C  C101  1  0.49387505  0.55384664  0.75262031  1  0.898802  0  0.197894  0.34897  0  4.094739  0
C  C102  1  0.01317546  0.47140826  0.44515918  1  0.633254  0  0.167587  0.417171  0  3.7539  0
C  C103  1  0.05702426  0.53767426  0.42098775  1  0.104921  0  0.014655  0.013306  0  3.742833  0
C  C104  1  0.99082556  0.51806118  0.34611405  1  -0.025287  0  -0.16506  -0.191806  0  3.89041  0
C  C105  1  0.91098317  0.50481214  0.35145863  1  -0.027316  0  -0.158559  -0.192144  0  3.862911  0
C  C106  1  0.12776643  0.53320553  0.41780678  1  0.109542  0  -0.045024  -0.083779  0  4.059337  0
C  C107  1  0.85760137  0.53659602  0.44235924  1  0.180167  0  -0.053114  -0.108499  0  4.079225  0
C  C108  1  0.49787473  0.48564594  0.75298825  1  0.014127  0  -0.04445  -0.137336  0  4.032387  0
C  C109  1  0.79704247  0.52648757  0.45145443  1  -0.548257  0  -0.072486  -0.133661  0  4.208238  0
C  C110  1  0.60509508  0.13403979  0.62145320  1  0.325281  0  0.01252  0.106223  0  3.7941  0
C  C111  1  0.58809691  0.09085695  0.48975026  1  0.323718  0  0.007695  0.175776  0  3.791909  0
C  C112  1  0.57852095  0.00995891  0.48367247  1  -0.03155  0  -0.163292  -0.250068  0  3.830847  0
C  C113  1  0.64472386  0.45278115  0.40806203  1  0.391986  0  0.0149  -0.053194  0  3.960557  0
C  C114  1  0.53471977  0.85504228  0.54455721  1  -0.516961  0  -0.067307  -0.131577  0  4.183258  0
C  C115  1  0.55355439  0.12031236  0.54241327  1  0.125908  0  0.003052  0.033636  0  3.839877  0
C  C116  1  0.60987993  0.05772810  0.61727575  1  0.36544  0  0.011663  0.108528  0  3.78902  0
C  C117  1  0.54653520  0.98748357  0.53757199  1  0.122077  0  -0.006099  0.077015  0  3.870221  0
C  C118  1  0.46118039  0.98008276  0.52211398  1  0.487313  0  0.009528  0.067266  0  3.813777  0
C  C119  1  0.72515930  0.51403449  0.45862931  1  0.167064  0  -0.033799  0.047555  0  4.216866  0
C  C120  1  0.46441808  0.05825191  0.52126695  1  0.50294  0  0.01088  0.081042  0  3.803455  0
C  C121  1  0.54171443  0.91488316  0.53867083  1  0.153521  0  -0.046664  -0.092964  0  4.090756  0
C  C122  1  0.55332262  0.19190201  0.54372650  1  0.079037  0  -0.050703  -0.115843  0  4.131496  0
C  C123  1  0.54046977  0.24456908  0.53883547  1  -0.479272  0  -0.060704  -0.122133  0  4.188743  0
C  C124  1  0.58804830  0.51934150  0.24837256  1  0.003481  0  -0.009628  0.083243  0  4.037246  0
C  C125  1  0.46079561  0.43401553  0.67745929  1  0.390107  0  0.003999  -0.036928  0  4.028824  0
C  C126  1  0.53996641  0.45081765  0.17992991  1  -0.071368  0  -0.095616  -0.126504  0  4.007068  0
C  C127  1  0.56354794  0.44274347  0.12358983  1  0.006547  0  -0.096616  -0.152237  0  3.998115  0
C  C128  1  0.63730903  0.50334804  0.13343580  1  0.359629  0  0.077904  0.168159  0  4.076451  0
C  C129  1  0.68930045  0.56833165  0.20369305  1  -0.024697  0  -0.091526  -0.152518  0  3.995882  0
C  C130  1  0.59873798  0.59409869  0.37525161  1  0.393922  0  0.015286  -0.033657  0  3.958463  0
C  C131  1  0.66501354  0.57612490  0.25991987  1  -0.034829  0  -0.093964  -0.127257  0  3.989466  0
C  C132  1  0.63599648  0.53361306  0.94544324  1  0.407626  0  0.09427  0.254079  0  4.115071  0
C  C133  1  0.60263413  0.53918801  0.88030012  1  -0.042046  0  -0.142697  -0.330299  0  4.047884  0
C  C134  1  0.59575157  0.45953755  0.94848899  1  0.502995  0  0.076008  -0.019034  0  4.011119  0
C  C135  1  0.53306965  0.47395399  0.81712938  1  0.019933  0  -0.019008  0.040374  0  4.074885  0
C  C136  1  0.49740017  0.39890134  0.81749770  1  0.417679  0  0.055685  0.098439  0  4.065099  0
C  C137  1  0.71561152  0.55977072  0.51577603  1  0.414098  0  0.00285  -0.063298  0  3.976399  0
C  C138  1  0.53010211  0.39161787  0.88192439  1  0.377628  0  0.088259  0.146441  0  4.076057  0
C  C139  1  0.82256926  0.71894999  0.80538773  1  0.053255  0  -0.024607  -0.030821  0  3.9978  0
C  C140  1  0.83007752  0.69999553  0.86627929  1  0.352554  0  0.089048  0.263628  0  4.062474  0
C  C141  1  0.26779756  0.45340779  0.44058057  1  0.404011  0  0.015427  -0.049153  0  3.941916  0
C  C142  1  0.90396260  0.74611435  0.93110091  1  -0.021184  0  -0.113221  -0.292458  0  3.963689  0
C  C143  1  0.97235104  0.80591650  0.93434206  1  0.329739  0  0.077131  0.193446  0  4.121467  0
C  C144  1  0.96886907  0.81765875  0.87110830  1  -0.031224  0  -0.113699  -0.198014  0  4.044364  0
C  C145  1  0.89412098  0.77643881  0.80920817  1  -0.011199  0  -0.099908  -0.113627  0  4.051256  0
C  C146  1  0.18116966  0.99039226  0.13346950  1  0.445253  0  0.097096  0.1556  0  4.015063  0
C  C147  1  0.23889230  0.06506936  0.19538226  1  0.37104  0  0.074418  0.127612  0  4.022095  0
C  C148  1  0.09715178  0.95572497  0.11799982  1  0.415784  0  0.068768  0.06332  0  4.062617  0
C  C149  1  0.54521740  0.35828908  0.50794895  1  0.419685  0  0.016199  -0.037121  0  3.925616  0
C  C150  1  0.21232213  0.10959127  0.23505706  1  -0.025207  0  -0.014422  0.009862  0  4.026336  0
C  C151  1  0.12906325  0.07185070  0.22102793  1  0.04426  0  -0.117979  -0.165017  0  4.08423  0
C  C152  1  0.52239562  0.76907511  0.61213581  1  0.425943  0  0.014692  -0.050828  0  3.970312  0
C  C153  1  0.07365988  0.99620837  0.16573580  1  -0.062684  0  -0.10387  -0.159559  0  4.079427  0
C  C154  1  0.66310385  0.64488312  0.73044079  1  0.43707  0  -0.001268  -0.05881  0  3.952281  0
C  C155  1  0.74465798  0.68340708  0.74073564  1  -0.096503  0  -0.034661  -0.019873  0  4.061473  0
C  C156  1  0.14039503  0.68547780  0.40274894  1  0.457289  0  -0.078067  0.091228  0  3.9684  0
C  C157  1  0.21856609  0.75923163  0.42328902  1  -0.044573  0  -0.24758  -0.39144  0  3.985732  0
C  C158  1  0.33016409  0.02960928  0.44996299  1  0.424275  0  -0.072919  0.08424  0  3.949479  0
C  C159  1  0.28267817  0.03337833  0.38173741  1  -0.016814  0  -0.245927  -0.391016  0  3.981365  0
C  C160  1  0.38084205  0.88993064  0.38731720  1  0.391874  0  -0.077696  0.074962  0  3.914123  0
C  C161  1  0.39148715  0.81938244  0.35677646  1  -0.045186  0  -0.253103  -0.404662  0  3.988096  0
C  C162  1  0.33932096  0.25059475  0.29331400  1  0.324524  0  -0.010714  -0.083595  0  3.996347  0
C  C163  1  0.25137318  0.23920735  0.34034410  1  0.422145  0  -0.004318  -0.058312  0  4.033173  0
N  N164  1  0.65682569  0.65662620  0.62864671  1  -0.794338  0  -0.283629  -0.17261  0  3.632652  0
N  N165  1  0.60269457  0.44972455  0.01135116  1  -0.598094  0  -0.176222  -0.12636  0  3.40716  0
N  N166  1  0.04528152  0.86131609  0.00020395  1  -0.5348  0  -0.167788  -0.162043  0  3.290482  0
N  N167  1  0.43122856  0.34696120  0.50933647  1  -0.809017  0  -0.29398  -0.173219  0  3.690654  0
N  N168  1  0.03148018  0.89058167  0.05412003  1  -0.546008  0  -0.163823  -0.130111  0  3.341614  0
N  N169  1  0.45774676  0.54282592  0.68247092  1  -0.820913  0  -0.299835  -0.309076  0  3.447524  0
N  N170  1  0.59295272  0.46277223  0.43377678  1  -0.819218  0  -0.285123  -0.18191  0  3.673598  0
N  N171  1  0.43670084  0.46715030  0.63548377  1  -0.843241  0  -0.295281  -0.223203  0  3.599113  0
N  N172  1  0.63582099  0.52862835  0.50011776  1  -0.773374  0  -0.274863  -0.229951  0  3.506454  0
N  N173  1  0.49477257  0.38761337  0.49606048  1  -0.787242  0  -0.272567  -0.217393  0  3.509422  0
N  N174  1  0.61105571  0.62897565  0.66298148  1  -0.793641  0  -0.27572  -0.198169  0  3.54276  0
N  N175  1  0.34068746  0.47290621  0.49136412  1  -0.814894  0  -0.295406  -0.193597  0  3.705427  0
N  N176  1  0.55393991  0.57984097  0.41247533  1  -0.799138  0  -0.282259  -0.178873  0  3.608549  0
N  N177  1  0.07285948  0.47637153  0.50976110  1  -1.128571  0  -0.622703  -0.676296  0  3.224702  0
N  N178  1  0.98559170  0.67637524  0.44517364  1  -1.092044  0  -0.651591  -0.637402  0  3.212457  0
N  N179  1  0.13585885  0.63839233  0.55247038  1  -1.151023  0  -0.654792  -0.716167  0  3.268373  0
N  N180  1  0.96876946  0.39430577  0.37966475  1  -1.07224  0  -0.628075  -0.682862  0  3.200485  0
N  N181  1  0.69158730  0.07069599  0.63326002  1  -1.150326  0  -0.640521  -0.642876  0  3.267541  0
N  N182  1  0.52383912  0.62483502  0.81208625  1  -1.193777  0  -0.591776  -0.635003  0  3.295939  0
N  N183  1  0.68611932  0.20525030  0.65657995  1  -1.112599  0  -0.628921  -0.632505  0  3.230731  0
N  N184  1  0.54720478  0.08414839  0.41601850  1  -1.09708  0  -0.635739  -0.640077  0  3.20912  0
N  N185  1  0.70534789  0.59647140  0.00602109  1  -1.240116  0  -0.584478  -0.584095  0  3.344123  0
N  N186  1  0.52293771  0.70124489  0.60253843  1  -0.796096  0  -0.281231  -0.187579  0  3.617636  0
N  N187  1  0.42766608  0.33041412  0.75648108  1  -1.187068  0  -0.618894  -0.6114  0  3.295495  0
N  N188  1  0.49150814  0.31920646  0.88335534  1  -1.222812  0  -0.598949  -0.607424  0  3.353205  0
N  N189  1  0.32159845  0.09430646  0.21040320  1  -1.182693  0  -0.609958  -0.615787  0  3.300053  0
N  N190  1  0.20774752  0.95266154  0.08983827  1  -1.218297  0  -0.593382  -0.581832  0  3.349517  0
N  N191  1  0.76334252  0.63923741  0.86406040  1  -1.204242  0  -0.599286  -0.615763  0  3.333599  0
N  N192  1  0.36373929  0.32289004  0.34506190  1  -0.817465  0  -0.292179  -0.178353  0  3.653156  0
N  N193  1  0.30951125  0.31597952  0.37481246  1  -0.738458  0  -0.260758  -0.238499  0  3.368203  0
N  N194  1  0.52809040  0.67258251  0.53791096  1  -0.79204  0  -0.279717  -0.217445  0  3.560696  0
N  N195  1  0.48354544  0.50721844  0.36864573  1  -0.756837  0  -0.283053  -0.226752  0  3.419983  0
N  N196  1  0.37957628  0.55047730  0.54158677  1  -0.780432  0  -0.267555  -0.18475  0  3.575859  0
N  N197  1  0.65641143  0.50879660  0.07495427  1  -0.570621  0  -0.181611  -0.186303  0  3.313121  0
O  O198  1  0.13434764  0.68932553  0.46965599  1  -1.038731  0  -0.229165  -0.29633  0  2.455909  0
O  O199  1  0.40931169  0.04785031  0.45434375  1  -1.039812  0  -0.214513  -0.221787  0  2.50307  0
O  O200  1  0.39225189  0.90938822  0.46265741  1  -1.052022  0  -0.227169  -0.246783  0  2.471813  0
