# generated using pymatgen
data_NaCuH18C18S6(N3O)2
_symmetry_space_group_name_H-M   'P 1'
_cell_length_a   8.52986692
_cell_length_b   8.67624768
_cell_length_c   8.93074805
_cell_angle_alpha   107.20645322
_cell_angle_beta   94.45105370
_cell_angle_gamma   98.06260959
_symmetry_Int_Tables_number   1
_chemical_formula_structural   NaCuH18C18S6(N3O)2
_chemical_formula_sum   'Na1 Cu1 H18 C18 S6 N6 O2'
_cell_volume   620.14308996
_cell_formula_units_Z   1
loop_
 _symmetry_equiv_pos_site_id
 _symmetry_equiv_pos_as_xyz
  1  'x, y, z'
loop_
 _atom_site_type_symbol
 _atom_site_label
 _atom_site_symmetry_multiplicity
 _atom_site_fract_x
 _atom_site_fract_y
 _atom_site_fract_z
 _atom_site_occupancy
 _atom_site_hle17_bader_spin_density
 _atom_site_hle17_ddec_charge
 _atom_site_hle17_ddec_spin_density
 _atom_site_hle17_ddec_sum_bond_order
 _atom_site_hle17_magmom
 _atom_site_hse06_10hf_bader_spin_density
 _atom_site_hse06_10hf_ddec_charge
 _atom_site_hse06_10hf_ddec_spin_density
 _atom_site_hse06_10hf_ddec_sum_bond_order
 _atom_site_hse06_10hf_magmom
 _atom_site_hse06_bader_spin_density
 _atom_site_hse06_ddec_charge
 _atom_site_hse06_ddec_spin_density
 _atom_site_hse06_ddec_sum_bond_order
 _atom_site_hse06_magmom
 _atom_site_pbe_bader_spin_density
 _atom_site_pbe_cm5_charge
 _atom_site_pbe_ddec_charge
 _atom_site_pbe_ddec_spin_density
 _atom_site_pbe_ddec_sum_bond_order
 _atom_site_pbe_magmom
Na  Na0  1  0.50000750  0.00000316  0.49999788  1  0  0.859622  0  0.442745  0  0  0.787186  0  0.631573  0  0  0.798806  0  0.611498  0  0  0.616736  0.779019  0  0.645576  0
Cu  Cu1  1  0.50000380  0.99999522  0.99999689  1  0  0.393192  0  2.713724  0  0  0.370779  0  3.199421  0  0  0.387902  0  3.167793  0  0  0.503764  0.361029  0  3.220901  0
H  H2  1  0.70693554  0.23101591  0.91336695  1  0  0.01254  0  0.996771  0  0  0.013286  0  1.088758  0  0  0.016513  0  1.08131  0  0  0.097225  0.010717  0  1.094193  0
H  H3  1  0.29306924  0.76902137  0.08665146  1  0  0.012634  0  0.996751  0  0  0.013326  0  1.08877  0  0  0.016556  0  1.081321  0  0  0.097289  0.010754  0  1.09421  0
H  H4  1  0.90184565  0.29237518  0.09895790  1  0  0.101295  0  0.970766  0  0  0.116474  0  1.044198  0  0  0.116523  0  1.04542  0  0  0.098756  0.116322  0  1.043415  0
H  H5  1  0.09816337  0.70763967  0.90104135  1  0  0.101285  0  0.970712  0  0  0.116456  0  1.044171  0  0  0.116505  0  1.045393  0  0  0.098763  0.116305  0  1.043391  0
H  H6  1  0.07598295  0.41435131  0.06779017  1  0  0.099708  0  0.937966  0  0  0.119694  0  0.999839  0  0  0.12032  0  0.999823  0  0  0.098469  0.119143  0  0.999945  0
H  H7  1  0.92402233  0.58566237  0.93220846  1  0  0.099679  0  0.93798  0  0  0.119662  0  0.999863  0  0  0.120287  0  0.99985  0  0  0.09845  0.119115  0  0.999965  0
H  H8  1  0.07366385  0.20385831  0.04322449  1  0  0.093332  0  0.95489  0  0  0.109259  0  1.025973  0  0  0.110049  0  1.025609  0  0  0.090928  0.108649  0  1.026243  0
H  H9  1  0.92634796  0.79615899  0.95677789  1  0  0.093293  0  0.955016  0  0  0.109236  0  1.026069  0  0  0.110022  0  1.025706  0  0  0.090928  0.108626  0  1.026338  0
H  H10  1  0.98861322  0.20328448  0.62948464  1  0  0.103523  0  0.959559  0  0  0.118873  0  1.029328  0  0  0.120327  0  1.028219  0  0  0.103881  0.117691  0  1.03028  0
H  H11  1  0.01137523  0.79668911  0.37050960  1  0  0.103635  0  0.959464  0  0  0.118961  0  1.029226  0  0  0.120413  0  1.028115  0  0  0.103947  0.11778  0  1.030174  0
H  H12  1  0.13155944  0.15576484  0.75943372  1  0  0.097444  0  0.955525  0  0  0.115449  0  1.026775  0  0  0.115835  0  1.027435  0  0  0.092607  0.11509  0  1.026359  0
H  H13  1  0.86843684  0.84421985  0.24057424  1  0  0.097401  0  0.955447  0  0  0.115398  0  1.026727  0  0  0.115788  0  1.027379  0  0  0.09252  0.115037  0  1.026312  0
H  H14  1  0.12677052  0.36415904  0.77327034  1  0  0.097906  0  0.940468  0  0  0.120524  0  1.0007  0  0  0.119934  0  1.002897  0  0  0.100858  0.120822  0  0.999269  0
H  H15  1  0.87322173  0.63581550  0.22671328  1  0  0.097819  0  0.940536  0  0  0.120498  0  1.000695  0  0  0.119908  0  1.002891  0  0  0.100809  0.120794  0  0.999273  0
H  H16  1  0.84737436  0.32281059  0.48918613  1  0  0.125908  0  0.9492  0  0  0.135528  0  1.010368  0  0  0.139213  0  1.007724  0  0  0.107011  0.132896  0  1.012334  0
H  H17  1  0.15262824  0.67719433  0.51079871  1  0  0.126009  0  0.949098  0  0  0.135624  0  1.01027  0  0  0.13931  0  1.007624  0  0  0.107052  0.132993  0  1.012231  0
H  H18  1  0.46287961  0.58600900  0.22654271  1  0  0.124946  0  0.946555  0  0  0.136702  0  1.005062  0  0  0.140101  0  1.003417  0  0  0.105247  0.134264  0  1.006315  0
H  H19  1  0.53711666  0.41398171  0.77346017  1  0  0.124985  0  0.946807  0  0  0.136717  0  1.005316  0  0  0.140123  0  1.003666  0  0  0.105244  0.134279  0  1.006569  0
C  C20  1  0.55467966  0.36389456  0.22084907  1  0  0.056426  0  3.804031  0  0  0.070309  0  4.059345  0  0  0.073515  0  4.082867  0  0  -0.015349  0.068093  0  4.043299  0
C  C21  1  0.44530579  0.63607534  0.77914056  1  0  0.056536  0  3.803474  0  0  0.070301  0  4.058914  0  0  0.073505  0  4.082434  0  0  -0.015464  0.068087  0  4.042866  0
C  C22  1  0.64696046  0.62214211  0.42192899  1  0  0.182841  0  3.824188  0  0  0.182417  0  4.073595  0  0  0.187285  0  4.093437  0  0  0.103553  0.179158  0  4.060175  0
C  C23  1  0.35304152  0.37784702  0.57806049  1  0  0.183216  0  3.823601  0  0  0.182711  0  4.073028  0  0  0.187582  0  4.09287  0  0  0.103792  0.179447  0  4.059606  0
C  C24  1  0.75901615  0.54708373  0.49574971  1  0  0.169745  0  3.817971  0  0  0.168581  0  4.071868  0  0  0.172182  0  4.091974  0  0  0.101571  0.166019  0  4.058314  0
C  C25  1  0.24098488  0.45293254  0.50425263  1  0  0.169575  0  3.817982  0  0  0.168555  0  4.071698  0  0  0.172158  0  4.091801  0  0  0.101603  0.165997  0  4.05814  0
C  C26  1  0.54467121  0.52845923  0.28328116  1  0  -0.187911  0  3.681782  0  0  -0.21274  0  3.931163  0  0  -0.216675  0  3.948621  0  0  -0.101812  -0.210049  0  3.919375  0
C  C27  1  0.45534221  0.47152266  0.71672522  1  0  -0.187932  0  3.681364  0  0  -0.21269  0  3.930741  0  0  -0.216633  0  3.948202  0  0  -0.101789  -0.209999  0  3.918953  0
C  C28  1  0.66315145  0.28910783  0.29700801  1  0  0.050901  0  3.814326  0  0  0.064727  0  4.070016  0  0  0.066495  0  4.093212  0  0  -0.014498  0.063413  0  4.054238  0
C  C29  1  0.33685048  0.71088745  0.70298313  1  0  0.050977  0  3.814048  0  0  0.064882  0  4.06971  0  0  0.06665  0  4.092906  0  0  -0.014369  0.063564  0  4.053934  0
C  C30  1  0.76562217  0.37932404  0.43176406  1  0  -0.159373  0  3.675318  0  0  -0.186293  0  3.92834  0  0  -0.188244  0  3.944033  0  0  -0.093134  -0.184846  0  3.91773  0
C  C31  1  0.23437366  0.62067615  0.56822231  1  0  -0.159522  0  3.6755  0  0  -0.186507  0  3.928481  0  0  -0.188461  0  3.944175  0  0  -0.093259  -0.185059  0  3.917871  0
C  C32  1  0.77934897  0.21610194  0.81390868  1  0  0.385276  0  3.868159  0  0  0.313832  0  4.161221  0  0  0.341878  0  4.159039  0  0  0.159324  0.295151  0  4.162184  0
C  C33  1  0.22064979  0.78391608  0.18611971  1  0  0.385081  0  3.86859  0  0  0.313736  0  4.161598  0  0  0.341775  0  4.159415  0  0  0.159192  0.295056  0  4.162569  0
C  C34  1  0.99982578  0.29303567  0.02674474  1  0  -0.178262  0  3.682423  0  0  -0.280999  0  3.938355  0  0  -0.276928  0  3.948502  0  0  -0.141826  -0.283431  0  3.931327  0
C  C35  1  0.00018089  0.70697923  0.97325546  1  0  -0.178219  0  3.682502  0  0  -0.280944  0  3.938495  0  0  -0.276862  0  3.94863  0  0  -0.141819  -0.283377  0  3.931456  0
C  C36  1  0.05272077  0.24302939  0.74912852  1  0  -0.169819  0  3.654915  0  0  -0.270581  0  3.901558  0  0  -0.26733  0  3.912732  0  0  -0.139995  -0.272462  0  3.893934  0
C  C37  1  0.94727094  0.75694900  0.25086393  1  0  -0.169939  0  3.654944  0  0  -0.270666  0  3.901571  0  0  -0.267411  0  3.912751  0  0  -0.140008  -0.272545  0  3.893951  0
S  S38  1  0.43568684  0.24393320  0.04529944  1  0  -0.238105  0  2.260686  0  0  -0.236704  0  2.641237  0  0  -0.250139  0  2.636341  0  0  -0.156513  -0.227452  0  2.644656  0
S  S39  1  0.56430059  0.75605383  0.95469388  1  0  -0.238248  0  2.260594  0  0  -0.236783  0  2.641143  0  0  -0.250216  0  2.636245  0  0  -0.156504  -0.227531  0  2.644562  0
S  S40  1  0.66349133  0.07872505  0.21893058  1  0  -0.274318  0  2.264755  0  0  -0.272833  0  2.65105  0  0  -0.282877  0  2.642239  0  0  -0.165215  -0.266054  0  2.657305  0
S  S41  1  0.33653517  0.92127589  0.78106187  1  0  -0.274293  0  2.264913  0  0  -0.27281  0  2.651153  0  0  -0.282848  0  2.642339  0  0  -0.165211  -0.266032  0  2.657408  0
S  S42  1  0.79918116  0.83023458  0.64594779  1  0  0.433181  0  3.039988  0  0  0.422061  0  3.428973  0  0  0.434089  0  3.431829  0  0  0.3748  0.412908  0  3.427656  0
S  S43  1  0.20081587  0.16976742  0.35407165  1  0  0.433155  0  3.040477  0  0  0.422033  0  3.429464  0  0  0.434064  0  3.432323  0  0  0.37477  0.412876  0  3.428148  0
N  N44  1  0.85162220  0.65387536  0.62469596  1  0  -0.388821  0  2.887075  0  0  -0.35533  0  3.170157  0  0  -0.363594  0  3.181193  0  0  -0.308366  -0.349488  0  3.162806  0
N  N45  1  0.14837758  0.34611529  0.37530719  1  0  -0.388818  0  2.88716  0  0  -0.355348  0  3.170193  0  0  -0.363615  0  3.181234  0  0  -0.308398  -0.349507  0  3.162843  0
N  N46  1  0.65857127  0.78453274  0.49761664  1  0  -0.474191  0  2.941987  0  0  -0.434239  0  3.230945  0  0  -0.442676  0  3.239348  0  0  -0.387726  -0.428515  0  3.2256  0
N  N47  1  0.34143074  0.21547617  0.50238491  1  0  -0.474358  0  2.94249  0  0  -0.43439  0  3.231468  0  0  -0.442831  0  3.239874  0  0  -0.387845  -0.428662  0  3.22612  0
N  N48  1  0.93718386  0.25101453  0.86107777  1  0  -0.100865  0  3.521675  0  0  0.005921  0  3.74765  0  0  -0.014945  0  3.773753  0  0  -0.289835  0.019947  0  3.729415  0
N  N49  1  0.06280572  0.74899704  0.13892236  1  0  -0.100835  0  3.521768  0  0  0.005878  0  3.747794  0  0  -0.014993  0  3.773901  0  0  -0.289802  0.019904  0  3.729559  0
O  O50  1  0.71583524  0.17034650  0.67371051  1  0  -0.589744  0  2.030509  0  0  -0.542967  0  2.285763  0  0  -0.564265  0  2.278186  0  0  -0.380235  -0.528077  0  2.290288  0
O  O51  1  0.28414041  0.82967278  0.32629616  1  0  -0.589489  0  2.03108  0  0  -0.542755  0  2.286331  0  0  -0.564072  0  2.278819  0  0  -0.380116  -0.527856  0  2.29082  0
