# generated using pymatgen
data_AlH5C8S2N2O5
_symmetry_space_group_name_H-M   'P 1'
_cell_length_a   6.72663032
_cell_length_b   14.41191508
_cell_length_c   19.88145732
_cell_angle_alpha   90.28775420
_cell_angle_beta   89.57278874
_cell_angle_gamma   93.22154017
_symmetry_Int_Tables_number   1
_chemical_formula_structural   AlH5C8S2N2O5
_chemical_formula_sum   'Al4 H20 C32 S8 N8 O20'
_cell_volume   1924.26077326
_cell_formula_units_Z   4
loop_
 _symmetry_equiv_pos_site_id
 _symmetry_equiv_pos_as_xyz
  1  'x, y, z'
loop_
 _atom_site_type_symbol
 _atom_site_label
 _atom_site_symmetry_multiplicity
 _atom_site_fract_x
 _atom_site_fract_y
 _atom_site_fract_z
 _atom_site_occupancy
 _atom_site_pbe_bader_charge
 _atom_site_pbe_bader_spin_density
 _atom_site_pbe_cm5_charge
 _atom_site_pbe_ddec_charge
 _atom_site_pbe_ddec_spin_density
 _atom_site_pbe_ddec_sum_bond_order
 _atom_site_pbe_magmom
Al  Al0  1  0.02458386  0.99683950  0.49997291  1  2.503887  0  0.390193  1.65444  0  2.584016  0
Al  Al1  1  0.52505426  0.00404145  0.49925375  1  2.502276  0  0.394763  1.647033  0  2.560201  0
Al  Al2  1  0.97503882  0.49604592  0.00056635  1  2.502886  0  0.395021  1.646556  0  2.560847  0
Al  Al3  1  0.47553617  0.50310265  0.99993876  1  2.505339  0  0.390256  1.654622  0  2.585113  0
H  H4  1  0.79600101  0.12460726  0.50107117  1  0.646731  0  0.355117  0.435168  0  0.843385  0
H  H5  1  0.27114439  0.87676716  0.50638263  1  0.59984  0  0.355013  0.435788  0  0.843738  0
H  H6  1  0.70439074  0.37528782  0.00012609  1  0.645681  0  0.355438  0.435382  0  0.843202  0
H  H7  1  0.22933132  0.62341580  0.99524173  1  0.600134  0  0.355149  0.435678  0  0.844854  0
H  H8  1  0.80318338  0.14967104  0.70607190  1  0.458585  0  0.284481  0.272699  0  1.026301  0
H  H9  1  0.90391332  0.10077550  0.63460676  1  0.504247  0  0.312337  0.31941  0  0.957207  0
H  H10  1  0.69682406  0.35095669  0.79325796  1  0.475922  0  0.283894  0.271656  0  1.028019  0
H  H11  1  0.59640375  0.39962531  0.86482914  1  0.483319  0  0.312156  0.31981  0  0.955472  0
H  H12  1  0.31234379  0.85086561  0.27580883  1  0.466706  0  0.29391  0.284981  0  0.989185  0
H  H13  1  0.40296001  0.90338370  0.34885904  1  0.50581  0  0.310655  0.322941  0  0.950717  0
H  H14  1  0.18792152  0.64814370  0.22469340  1  0.4582  0  0.293706  0.284544  0  0.98985  0
H  H15  1  0.09714890  0.59583112  0.15161120  1  0.506781  0  0.310285  0.322438  0  0.951623  0
H  H16  1  0.20948512  0.85128076  0.72067108  1  0.458002  0  0.288002  0.275964  0  1.011872  0
H  H17  1  0.12315280  0.90712515  0.65054891  1  0.499539  0  0.310841  0.322144  0  0.952782  0
H  H18  1  0.29050091  0.65002407  0.78002673  1  0.464822  0  0.288311  0.277053  0  1.00976  0
H  H19  1  0.37672318  0.59410954  0.85013446  1  0.491029  0  0.310783  0.322206  0  0.952978  0
H  H20  1  0.80151269  0.14590358  0.28911385  1  0.44828  0  0.283907  0.270816  0  1.024541  0
H  H21  1  0.90173935  0.09062891  0.35735335  1  0.491174  0  0.310933  0.32158  0  0.956535  0
H  H22  1  0.69790570  0.35287841  0.21026667  1  0.451861  0  0.284038  0.271703  0  1.023461  0
H  H23  1  0.59783269  0.40846489  0.14210527  1  0.512566  0  0.310978  0.32168  0  0.956741  0
C  C24  1  0.27908008  0.10344364  0.40362309  1  1.52283  0  0.241515  0.647151  0  4.159196  0
C  C25  1  0.29012917  0.11192910  0.59111394  1  1.532787  0  0.243441  0.654142  0  4.150374  0
C  C26  1  0.75921491  0.89676545  0.59551889  1  1.535582  0  0.242526  0.648628  0  4.156211  0
C  C27  1  0.75863465  0.89030047  0.40844543  1  1.529207  0  0.242986  0.64785  0  4.154061  0
C  C28  1  0.22051852  0.39552765  0.09564610  1  1.536976  0  0.241303  0.647097  0  4.159976  0
C  C29  1  0.21006456  0.38886829  0.90821268  1  1.548809  0  0.242384  0.651138  0  4.155464  0
C  C30  1  0.74100066  0.60421801  0.90501143  1  1.531107  0  0.242993  0.648758  0  4.154313  0
C  C31  1  0.74145286  0.60904533  0.09205430  1  1.528774  0  0.243415  0.648893  0  4.153645  0
C  C32  1  0.10536298  0.17486482  0.69193754  1  0.54902  0  0.110098  0.287751  0  4.113534  0
C  C33  1  0.39463839  0.32599394  0.80735745  1  0.558932  0  0.109164  0.287084  0  4.115167  0
C  C34  1  0.27747484  0.16627931  0.65211011  1  -0.12694  0  -0.050413  -0.273736  0  3.94618  0
C  C35  1  0.22254522  0.33456927  0.84718482  1  -0.145266  0  -0.04995  -0.272911  0  3.946065  0
C  C36  1  0.34901407  0.26746277  0.75067271  1  -0.107702  0  -0.028689  -0.104825  0  4.075578  0
C  C37  1  0.15098093  0.23345898  0.74859776  1  -0.178016  0  -0.028174  -0.103773  0  4.074318  0
C  C38  1  0.60227799  0.82718285  0.30018721  1  0.536493  0  0.106523  0.28439  0  4.115584  0
C  C39  1  0.89793875  0.67197536  0.20039691  1  0.517953  0  0.106935  0.285501  0  4.114641  0
C  C40  1  0.75713836  0.83567008  0.34747799  1  -0.124793  0  -0.048175  -0.27137  0  3.954168  0
C  C41  1  0.74310784  0.66357660  0.15309161  1  -0.115663  0  -0.048978  -0.271882  0  3.956197  0
C  C42  1  0.84416977  0.73204115  0.25406859  1  -0.113496  0  -0.030164  -0.109312  0  4.081482  0
C  C43  1  0.65609372  0.76701175  0.24659774  1  -0.198997  0  -0.031215  -0.110809  0  4.08408  0
C  C44  1  0.91040530  0.83002447  0.70021470  1  0.567728  0  0.107876  0.285535  0  4.113551  0
C  C45  1  0.58942391  0.67141135  0.80059037  1  0.541387  0  0.108169  0.286877  0  4.1116  0
C  C46  1  0.75139070  0.84090585  0.65567689  1  -0.153558  0  -0.049386  -0.273083  0  3.945942  0
C  C47  1  0.74854337  0.66049427  0.84507306  1  -0.113352  0  -0.049085  -0.272031  0  3.946546  0
C  C48  1  0.65122391  0.73356534  0.74777764  1  -0.188664  0  -0.029407  -0.106675  0  4.076877  0
C  C49  1  0.84852297  0.76800301  0.75309374  1  -0.104982  0  -0.0299  -0.107375  0  4.07797  0
C  C50  1  0.10330306  0.16865909  0.30320443  1  0.500717  0  0.108655  0.28627  0  4.108301  0
C  C51  1  0.39626160  0.32987027  0.19588205  1  0.573253  0  0.108652  0.286444  0  4.110589  0
C  C52  1  0.27228944  0.15942032  0.34376717  1  -0.100174  0  -0.049526  -0.274115  0  3.950607  0
C  C53  1  0.22727335  0.33929038  0.15536487  1  -0.157493  0  -0.049644  -0.273984  0  3.951017  0
C  C54  1  0.34807273  0.26727360  0.24978934  1  -0.174283  0  -0.028257  -0.104736  0  4.077156  0
C  C55  1  0.15153950  0.23101970  0.24913569  1  -0.103615  0  -0.028818  -0.104668  0  4.075679  0
S  S56  1  0.48694420  0.22903727  0.68381595  1  0.194027  0  0.059582  0.096914  0  2.870467  0
S  S57  1  0.01308228  0.27188833  0.81545042  1  0.198931  0  0.059985  0.097089  0  2.871254  0
S  S58  1  0.96214485  0.77168145  0.32624334  1  0.203407  0  0.060038  0.10531  0  2.838959  0
S  S59  1  0.53805610  0.72741724  0.17443629  1  0.208343  0  0.059867  0.105038  0  2.843363  0
S  S60  1  0.53388113  0.77599535  0.67849505  1  0.182914  0  0.059425  0.101459  0  2.850364  0
S  S61  1  0.96603493  0.72540255  0.82227807  1  0.195066  0  0.060022  0.101975  0  2.848694  0
S  S62  1  0.48149439  0.22672394  0.31614347  1  0.204262  0  0.061103  0.101005  0  2.858867  0
S  S63  1  0.01806246  0.27182168  0.18286458  1  0.195682  0  0.06069  0.100137  0  2.857157  0
N  N64  1  0.92555962  0.13082176  0.68048439  1  -1.2843  0  -0.58084  -0.575181  0  3.373158  0
N  N65  1  0.57454588  0.36996748  0.81882840  1  -1.284436  0  -0.579771  -0.573995  0  3.369786  0
N  N66  1  0.43124485  0.87270377  0.30383272  1  -1.268453  0  -0.580913  -0.585621  0  3.358446  0
N  N67  1  0.06892269  0.62640504  0.19668298  1  -1.268199  0  -0.580627  -0.585527  0  3.359388  0
N  N68  1  0.09272764  0.87468630  0.69509760  1  -1.266929  0  -0.581953  -0.579654  0  3.369746  0
N  N69  1  0.40723334  0.62662246  0.80561990  1  -1.272024  0  -0.581711  -0.581238  0  3.36918  0
N  N70  1  0.92332887  0.12312626  0.31235401  1  -1.240194  0  -0.579715  -0.573175  0  3.356319  0
N  N71  1  0.57617347  0.37554810  0.18692957  1  -1.288654  0  -0.579688  -0.574354  0  3.357131  0
O  O72  1  0.10948221  0.06704329  0.42371698  1  -1.272153  0  -0.245123  -0.610998  0  2.375382  0
O  O73  1  0.46150104  0.08847293  0.57032554  1  -1.27026  0  -0.253865  -0.61046  0  2.309927  0
O  O74  1  0.59774824  0.91147977  0.56445388  1  -1.264849  0  -0.253912  -0.610884  0  2.319947  0
O  O75  1  0.92134997  0.90014682  0.44177798  1  -1.267782  0  -0.253878  -0.615242  0  2.32704  0
O  O76  1  0.93452176  0.92850036  0.57714777  1  -1.268818  0  -0.246361  -0.613614  0  2.368383  0
O  O77  1  0.59373370  0.92582447  0.42532199  1  -1.262845  0  -0.243176  -0.602042  0  2.345007  0
O  O78  1  0.44567700  0.09298252  0.43283471  1  -1.263845  0  -0.253839  -0.607727  0  2.307235  0
O  O79  1  0.12389163  0.09052111  0.56164375  1  -1.266379  0  -0.24714  -0.6144  0  2.356921  0
O  O80  1  0.78395360  0.05746885  0.49804649  1  -1.45265  0  -0.449543  -0.9961  0  2.194836  0
O  O81  1  0.27091620  0.94359339  0.50182843  1  -1.405276  0  -0.44956  -0.996894  0  2.192417  0
O  O82  1  0.05391518  0.40640287  0.06655184  1  -1.264586  0  -0.253504  -0.607715  0  2.309242  0
O  O83  1  0.37645105  0.41034771  0.93754784  1  -1.269661  0  -0.246492  -0.612153  0  2.359283  0
O  O84  1  0.56576638  0.57250215  0.92340956  1  -1.272435  0  -0.245901  -0.612897  0  2.369196  0
O  O85  1  0.90642263  0.57375728  0.07494003  1  -1.26453  0  -0.243998  -0.602839  0  2.345122  0
O  O86  1  0.90259916  0.58909562  0.93586321  1  -1.264282  0  -0.254032  -0.611121  0  2.318277  0
O  O87  1  0.57843250  0.59912925  0.05889739  1  -1.267788  0  -0.254295  -0.616707  0  2.326456  0
O  O88  1  0.39032877  0.43173698  0.07556045  1  -1.273669  0  -0.245581  -0.611968  0  2.37657  0
O  O89  1  0.03876539  0.41220716  0.92913099  1  -1.268595  0  -0.25313  -0.608357  0  2.311414  0
O  O90  1  0.71621264  0.44252626  0.00155650  1  -1.451391  0  -0.449751  -0.99619  0  2.195468  0
O  O91  1  0.22923032  0.55641982  0.99842179  1  -1.405825  0  -0.449433  -0.996392  0  2.193975  0
