# generated using pymatgen
data_CdH8C12S2N2O3
_symmetry_space_group_name_H-M   'P 1'
_cell_length_a   6.51554127
_cell_length_b   10.08100199
_cell_length_c   18.88369416
_cell_angle_alpha   90.00028116
_cell_angle_beta   90.00000818
_cell_angle_gamma   90.00002084
_symmetry_Int_Tables_number   1
_chemical_formula_structural   CdH8C12S2N2O3
_chemical_formula_sum   'Cd4 H32 C48 S8 N8 O12'
_cell_volume   1240.34116811
_cell_formula_units_Z   4
loop_
 _symmetry_equiv_pos_site_id
 _symmetry_equiv_pos_as_xyz
  1  'x, y, z'
loop_
 _atom_site_type_symbol
 _atom_site_label
 _atom_site_symmetry_multiplicity
 _atom_site_fract_x
 _atom_site_fract_y
 _atom_site_fract_z
 _atom_site_occupancy
 _atom_site_hle17_bader_spin_density
 _atom_site_hle17_ddec_charge
 _atom_site_hle17_ddec_spin_density
 _atom_site_hle17_ddec_sum_bond_order
 _atom_site_hle17_magmom
 _atom_site_hse06_10hf_bader_spin_density
 _atom_site_hse06_10hf_ddec_charge
 _atom_site_hse06_10hf_ddec_spin_density
 _atom_site_hse06_10hf_ddec_sum_bond_order
 _atom_site_hse06_10hf_magmom
 _atom_site_hse06_bader_spin_density
 _atom_site_hse06_ddec_charge
 _atom_site_hse06_ddec_spin_density
 _atom_site_hse06_ddec_sum_bond_order
 _atom_site_hse06_magmom
 _atom_site_pbe_bader_spin_density
 _atom_site_pbe_cm5_charge
 _atom_site_pbe_ddec_charge
 _atom_site_pbe_ddec_spin_density
 _atom_site_pbe_ddec_sum_bond_order
 _atom_site_pbe_magmom
Cd  Cd0  1  0.69138865  0.35004769  0.44835502  1  0  0.951624  0  1.862898  0  0  0.769416  0  2.31934  0  0  0.816733  0  2.278447  0  0  0.662163  0.735677  0  2.346692  0
Cd  Cd1  1  0.80861165  0.64995371  0.94836086  1  0  0.951588  0  1.862868  0  0  0.769384  0  2.319288  0  0  0.816703  0  2.278398  0  0  0.662104  0.735652  0  2.34664  0
Cd  Cd2  1  0.30861772  0.85004871  0.05164145  1  0  0.951619  0  1.862968  0  0  0.769426  0  2.319398  0  0  0.816743  0  2.278505  0  0  0.662134  0.735691  0  2.346746  0
Cd  Cd3  1  0.19138565  0.14995291  0.55164068  1  0  0.951544  0  1.862872  0  0  0.769349  0  2.319272  0  0  0.816671  0  2.278381  0  0  0.6621  0.735607  0  2.346622  0
H  H4  1  0.67579372  0.67864211  0.46882708  1  0  0.095544  0  0.923984  0  0  0.106296  0  0.982058  0  0  0.108896  0  0.9792  0  0  0.122408  0.104289  0  0.984356  0
H  H5  1  0.82420198  0.32136147  0.96882888  1  0  0.095451  0  0.92403  0  0  0.106228  0  0.982081  0  0  0.108826  0  0.979225  0  0  0.122391  0.104229  0  0.98437  0
H  H6  1  0.32421103  0.17863818  0.03117370  1  0  0.095468  0  0.924057  0  0  0.106235  0  0.982113  0  0  0.108834  0  0.979256  0  0  0.122401  0.104234  0  0.984411  0
H  H7  1  0.17579233  0.82136227  0.53117417  1  0  0.095504  0  0.924051  0  0  0.106255  0  0.982109  0  0  0.108853  0  0.979251  0  0  0.122411  0.104247  0  0.984402  0
H  H8  1  0.70371622  0.88215925  0.39605504  1  0  0.109529  0  0.966973  0  0  0.115908  0  1.033547  0  0  0.119004  0  1.032538  0  0  0.104081  0.11316  0  1.035149  0
H  H9  1  0.79627638  0.11784366  0.89605790  1  0  0.10957  0  0.966907  0  0  0.115945  0  1.033484  0  0  0.119042  0  1.032475  0  0  0.104078  0.113199  0  1.035089  0
H  H10  1  0.29629477  0.38215598  0.10394680  1  0  0.10958  0  0.966959  0  0  0.115933  0  1.03356  0  0  0.119027  0  1.032549  0  0  0.104112  0.113195  0  1.035151  0
H  H11  1  0.20371016  0.61784216  0.60394250  1  0  0.109478  0  0.967033  0  0  0.115862  0  1.033614  0  0  0.118955  0  1.032608  0  0  0.104054  0.113123  0  1.035199  0
H  H12  1  0.74867331  0.85939008  0.26338764  1  0  0.099548  0  0.938521  0  0  0.114192  0  0.994691  0  0  0.116751  0  0.993306  0  0  0.10998  0.112699  0  0.994989  0
H  H13  1  0.75133150  0.14061162  0.76339056  1  0  0.099488  0  0.938601  0  0  0.114202  0  0.994691  0  0  0.116759  0  0.993304  0  0  0.109972  0.112715  0  0.994988  0
H  H14  1  0.25132693  0.35939098  0.23661467  1  0  0.099521  0  0.93848  0  0  0.114166  0  0.994656  0  0  0.116723  0  0.993272  0  0  0.109985  0.112676  0  0.994953  0
H  H15  1  0.24867193  0.64060439  0.73661043  1  0  0.099463  0  0.938519  0  0  0.114179  0  0.994623  0  0  0.116737  0  0.993233  0  0  0.109975  0.112689  0  0.994926  0
H  H16  1  0.78806061  0.71281588  0.15863729  1  0  0.120296  0  0.956876  0  0  0.131847  0  1.015903  0  0  0.134546  0  1.015051  0  0  0.103738  0.12989  0  1.016901  0
H  H17  1  0.71195029  0.28718189  0.65863900  1  0  0.120317  0  0.95685  0  0  0.131863  0  1.015887  0  0  0.134565  0  1.01504  0  0  0.10373  0.129905  0  1.016885  0
H  H18  1  0.21193648  0.21281277  0.34136570  1  0  0.120334  0  0.956845  0  0  0.131886  0  1.015869  0  0  0.134586  0  1.015016  0  0  0.103753  0.129918  0  1.016897  0
H  H19  1  0.28805628  0.78718654  0.84136449  1  0  0.120335  0  0.956866  0  0  0.131887  0  1.015891  0  0  0.134587  0  1.015037  0  0  0.103747  0.129928  0  1.016898  0
H  H20  1  0.81278297  0.48520634  0.10883635  1  0  0.111709  0  0.950012  0  0  0.12398  0  1.008057  0  0  0.126555  0  1.007121  0  0  0.102166  0.122085  0  1.00882  0
H  H21  1  0.68722023  0.51478999  0.60883707  1  0  0.111711  0  0.949964  0  0  0.124008  0  1.007986  0  0  0.126587  0  1.007053  0  0  0.102163  0.122106  0  1.008743  0
H  H22  1  0.18721119  0.98519951  0.39116206  1  0  0.111732  0  0.949936  0  0  0.123963  0  1.00804  0  0  0.126535  0  1.007103  0  0  0.102147  0.122066  0  1.008795  0
H  H23  1  0.31278467  0.01479430  0.89116146  1  0  0.11173  0  0.949981  0  0  0.123986  0  1.008046  0  0  0.126565  0  1.007112  0  0  0.102159  0.122089  0  1.008805  0
H  H24  1  0.79418430  0.23879440  0.12612078  1  0  0.12005  0  0.958534  0  0  0.130316  0  1.016227  0  0  0.133294  0  1.014449  0  0  0.112071  0.12802  0  1.01785  0
H  H25  1  0.70582044  0.76120605  0.62612321  1  0  0.120041  0  0.95859  0  0  0.130348  0  1.016214  0  0  0.133332  0  1.014435  0  0  0.112083  0.128051  0  1.017834  0
H  H26  1  0.20581741  0.73878742  0.37387486  1  0  0.120055  0  0.958572  0  0  0.130368  0  1.016204  0  0  0.133357  0  1.014414  0  0  0.112076  0.128065  0  1.017831  0
H  H27  1  0.29418305  0.26120921  0.87387862  1  0  0.120087  0  0.958499  0  0  0.130309  0  1.016238  0  0  0.133286  0  1.01446  0  0  0.112079  0.128022  0  1.017858  0
H  H28  1  0.76105425  0.04908744  0.20779311  1  0  0.112524  0  0.957026  0  0  0.121096  0  1.020267  0  0  0.124737  0  1.018574  0  0  0.105023  0.118499  0  1.021594  0
H  H29  1  0.73894593  0.95091475  0.70779657  1  0  0.112554  0  0.956986  0  0  0.121127  0  1.020227  0  0  0.12477  0  1.018531  0  0  0.105053  0.118526  0  1.021566  0
H  H30  1  0.23895350  0.54908567  0.29219938  1  0  0.112548  0  0.957052  0  0  0.121138  0  1.020259  0  0  0.124782  0  1.018564  0  0  0.105039  0.118534  0  1.021604  0
H  H31  1  0.26104539  0.45091716  0.79220523  1  0  0.112599  0  0.956892  0  0  0.121144  0  1.020153  0  0  0.12479  0  1.018451  0  0  0.105034  0.118534  0  1.021508  0
H  H32  1  0.72242665  0.09388814  0.33971068  1  0  0.073831  0  0.950719  0  0  0.083187  0  1.016768  0  0  0.084852  0  1.015486  0  0  0.109335  0.081277  0  1.01889  0
H  H33  1  0.77756745  0.90611227  0.83971297  1  0  0.073718  0  0.950764  0  0  0.083084  0  1.016816  0  0  0.084749  0  1.015533  0  0  0.109283  0.081177  0  1.018934  0
H  H34  1  0.27756577  0.59389014  0.16028405  1  0  0.073872  0  0.950619  0  0  0.083198  0  1.016701  0  0  0.084863  0  1.015416  0  0  0.109307  0.081241  0  1.018874  0
H  H35  1  0.22242844  0.40610950  0.66028872  1  0  0.073786  0  0.950749  0  0  0.083145  0  1.016797  0  0  0.08481  0  1.015515  0  0  0.109316  0.081238  0  1.018915  0
C  C36  1  0.69700452  0.67083905  0.41179374  1  0  0.176585  0  3.65118  0  0  0.138219  0  3.910747  0  0  0.148433  0  3.92498  0  0  0.067177  0.13124  0  3.899914  0
C  C37  1  0.80299115  0.32916301  0.91179503  1  0  0.17669  0  3.651144  0  0  0.138309  0  3.910728  0  0  0.148524  0  3.924962  0  0  0.067196  0.131327  0  3.899904  0
C  C38  1  0.30299715  0.17084060  0.08820967  1  0  0.17657  0  3.651314  0  0  0.138225  0  3.910874  0  0  0.14844  0  3.925105  0  0  0.0671  0.131238  0  3.900058  0
C  C39  1  0.19700470  0.82916037  0.58820698  1  0  0.176605  0  3.651165  0  0  0.138295  0  3.910695  0  0  0.148511  0  3.924922  0  0  0.067178  0.131317  0  3.899857  0
C  C40  1  0.71204090  0.78596929  0.37009548  1  0  -0.104611  0  3.700338  0  0  -0.117085  0  3.95559  0  0  -0.12402  0  3.975704  0  0  -0.077486  -0.11053  0  3.940768  0
C  C41  1  0.78795782  0.21403339  0.87009753  1  0  -0.104625  0  3.700386  0  0  -0.117105  0  3.955657  0  0  -0.124041  0  3.975772  0  0  -0.077422  -0.110547  0  3.940837  0
C  C42  1  0.28795776  0.28596823  0.12990664  1  0  -0.104611  0  3.700413  0  0  -0.117055  0  3.955659  0  0  -0.123986  0  3.97577  0  0  -0.077428  -0.110501  0  3.940847  0
C  C43  1  0.21203797  0.71402617  0.62990365  1  0  -0.104497  0  3.70028  0  0  -0.117012  0  3.955564  0  0  -0.123944  0  3.975676  0  0  -0.077418  -0.110449  0  3.940731  0
C  C44  1  0.73683084  0.77300398  0.29784530  1  0  -0.045723  0  3.696387  0  0  -0.071403  0  3.944656  0  0  -0.068959  0  3.963553  0  0  -0.063019  -0.072595  0  3.931078  0
C  C45  1  0.76316478  0.22699804  0.79784791  1  0  -0.045695  0  3.696543  0  0  -0.071485  0  3.944775  0  0  -0.069039  0  3.963675  0  0  -0.063085  -0.07267  0  3.931194  0
C  C46  1  0.26315861  0.27300358  0.20215732  1  0  -0.045611  0  3.696257  0  0  -0.071327  0  3.944519  0  0  -0.068885  0  3.963418  0  0  -0.063019  -0.07252  0  3.930947  0
C  C47  1  0.23683716  0.72699446  0.70215330  1  0  -0.045662  0  3.696239  0  0  -0.071422  0  3.944522  0  0  -0.068979  0  3.963425  0  0  -0.063053  -0.072619  0  3.930947  0
C  C48  1  0.74781837  0.64560083  0.26711386  1  0  0.02021  0  3.809172  0  0  0.037461  0  4.038971  0  0  0.034582  0  4.06428  0  0  -0.003305  0.038002  0  4.023558  0
C  C49  1  0.75218030  0.35439991  0.76711680  1  0  0.020035  0  3.809358  0  0  0.037457  0  4.03891  0  0  0.03458  0  4.06422  0  0  -0.003266  0.037999  0  4.023504  0
C  C50  1  0.25216333  0.14559872  0.23288736  1  0  0.020038  0  3.809394  0  0  0.037408  0  4.039107  0  0  0.034528  0  4.064419  0  0  -0.003285  0.037949  0  4.0237  0
C  C51  1  0.24783398  0.85439761  0.73288581  1  0  0.020192  0  3.809174  0  0  0.037564  0  4.038901  0  0  0.034685  0  4.064213  0  0  -0.003187  0.038104  0  4.023494  0
C  C52  1  0.77665863  0.62569077  0.19275762  1  0  -0.102234  0  3.729811  0  0  -0.123656  0  3.981621  0  0  -0.127187  0  4.005268  0  0  -0.087821  -0.12139  0  3.967192  0
C  C53  1  0.72334308  0.37430930  0.69276115  1  0  -0.102255  0  3.729795  0  0  -0.123712  0  3.98154  0  0  -0.12725  0  4.005195  0  0  -0.087841  -0.121452  0  3.967101  0
C  C54  1  0.22333075  0.12568636  0.30724196  1  0  -0.102299  0  3.729877  0  0  -0.123743  0  3.981679  0  0  -0.127274  0  4.005327  0  0  -0.08786  -0.121488  0  3.967254  0
C  C55  1  0.27666814  0.87430768  0.80724046  1  0  -0.102432  0  3.729955  0  0  -0.123873  0  3.981763  0  0  -0.127405  0  4.005414  0  0  -0.087942  -0.121606  0  3.967325  0
C  C56  1  0.78867447  0.50053642  0.16531208  1  0  -0.097028  0  3.734444  0  0  -0.118976  0  3.985945  0  0  -0.122713  0  4.009522  0  0  -0.086021  -0.117253  0  3.97153  0
C  C57  1  0.71132415  0.49946439  0.66531435  1  0  -0.096969  0  3.734456  0  0  -0.118966  0  3.985941  0  0  -0.122712  0  4.009527  0  0  -0.086009  -0.117227  0  3.971491  0
C  C58  1  0.21131330  0.00053027  0.33468505  1  0  -0.097053  0  3.734642  0  0  -0.119027  0  3.986134  0  0  -0.122761  0  4.009707  0  0  -0.086104  -0.117274  0  3.971664  0
C  C59  1  0.28868407  0.99946501  0.83468493  1  0  -0.096987  0  3.734647  0  0  -0.118969  0  3.98613  0  0  -0.122713  0  4.009714  0  0  -0.08603  -0.117234  0  3.971684  0
C  C60  1  0.76998069  0.38662433  0.20985618  1  0  0.018015  0  3.804025  0  0  0.036335  0  4.034858  0  0  0.033481  0  4.059806  0  0  -0.003844  0.037847  0  4.018267  0
C  C61  1  0.73001335  0.61337589  0.70985822  1  0  0.017877  0  3.803972  0  0  0.036243  0  4.034784  0  0  0.03339  0  4.059734  0  0  -0.003889  0.037756  0  4.018181  0
C  C62  1  0.23000267  0.88662155  0.29013932  1  0  0.017754  0  3.804381  0  0  0.036249  0  4.035041  0  0  0.033394  0  4.059991  0  0  -0.003841  0.037759  0  4.018439  0
C  C63  1  0.26999467  0.11337530  0.79014163  1  0  0.01795  0  3.804325  0  0  0.036389  0  4.034993  0  0  0.033534  0  4.059942  0  0  -0.003739  0.0379  0  4.018398  0
C  C64  1  0.77524959  0.25605782  0.18278133  1  0  -0.039193  0  3.669728  0  0  -0.063956  0  3.916771  0  0  -0.061367  0  3.934775  0  0  -0.060733  -0.066332  0  3.906176  0
C  C65  1  0.72474904  0.74394314  0.68278213  1  0  -0.039075  0  3.66971  0  0  -0.063858  0  3.916687  0  0  -0.061276  0  3.934693  0  0  -0.060685  -0.066225  0  3.906075  0
C  C66  1  0.22474138  0.75605628  0.31721542  1  0  -0.039066  0  3.669854  0  0  -0.063927  0  3.916849  0  0  -0.061349  0  3.934866  0  0  -0.060737  -0.0663  0  3.906242  0
C  C67  1  0.27526058  0.24394181  0.81721913  1  0  -0.039097  0  3.669647  0  0  -0.063842  0  3.91661  0  0  -0.061254  0  3.934614  0  0  -0.060693  -0.066217  0  3.906016  0
C  C68  1  0.75722037  0.14989100  0.22853971  1  0  -0.119916  0  3.730493  0  0  -0.137495  0  3.993006  0  0  -0.144621  0  4.013761  0  0  -0.086487  -0.133036  0  3.980359  0
C  C69  1  0.74277981  0.85010939  0.72854238  1  0  -0.11996  0  3.730424  0  0  -0.13756  0  3.992958  0  0  -0.144688  0  4.013716  0  0  -0.086519  -0.133101  0  3.980305  0
C  C70  1  0.24277361  0.64989302  0.27145622  1  0  -0.11998  0  3.730714  0  0  -0.137565  0  3.993222  0  0  -0.144694  0  4.013982  0  0  -0.086497  -0.133106  0  3.980555  0
C  C71  1  0.25722526  0.35010962  0.77145969  1  0  -0.120066  0  3.730287  0  0  -0.137612  0  3.992767  0  0  -0.144739  0  4.013522  0  0  -0.086522  -0.133144  0  3.980129  0
C  C72  1  0.73585303  0.17441766  0.30138884  1  0  0.146436  0  3.714983  0  0  0.113907  0  3.970391  0  0  0.122936  0  3.988295  0  0  0.054797  0.107914  0  3.959447  0
C  C73  1  0.76414566  0.82557843  0.80139144  1  0  0.146511  0  3.715032  0  0  0.113983  0  3.970449  0  0  0.12301  0  3.988354  0  0  0.054829  0.107988  0  3.959497  0
C  C74  1  0.26413637  0.67442199  0.19860610  1  0  0.14645  0  3.715031  0  0  0.113964  0  3.970402  0  0  0.122994  0  3.988304  0  0  0.054866  0.108006  0  3.959468  0
C  C75  1  0.23585786  0.32557700  0.69860897  1  0  0.146499  0  3.714991  0  0  0.113973  0  3.970381  0  0  0.123002  0  3.988286  0  0  0.05486  0.107981  0  3.959423  0
C  C76  1  0.74413482  0.40250106  0.28407632  1  0  0.132677  0  3.741893  0  0  0.12298  0  3.980808  0  0  0.127842  0  4.002411  0  0  0.115136  0.120763  0  3.964824  0
C  C77  1  0.75585773  0.59749884  0.78407991  1  0  0.132803  0  3.741596  0  0  0.123071  0  3.980531  0  0  0.127934  0  4.002134  0  0  0.115289  0.120852  0  3.964546  0
C  C78  1  0.25584702  0.90249960  0.21592240  1  0  0.132902  0  3.741605  0  0  0.123157  0  3.980572  0  0  0.128023  0  4.002173  0  0  0.11523  0.120934  0  3.964591  0
C  C79  1  0.24415182  0.09750253  0.71592414  1  0  0.132804  0  3.741588  0  0  0.123089  0  3.980535  0  0  0.127952  0  4.002138  0  0  0.115132  0.120874  0  3.964544  0
C  C80  1  0.73266536  0.53475392  0.31338644  1  0  0.133074  0  3.741273  0  0  0.1262  0  3.978633  0  0  0.130867  0  4.000522  0  0  0.117791  0.123127  0  3.963562  0
C  C81  1  0.76732873  0.46524823  0.81338915  1  0  0.133269  0  3.741182  0  0  0.126369  0  3.978478  0  0  0.131037  0  4.000368  0  0  0.117744  0.123297  0  3.963409  0
C  C82  1  0.26731476  0.03475239  0.18661343  1  0  0.133228  0  3.741244  0  0  0.126225  0  3.978759  0  0  0.130891  0  4.00065  0  0  0.117782  0.123154  0  3.963687  0
C  C83  1  0.23268714  0.96524650  0.68661270  1  0  0.133158  0  3.741021  0  0  0.126135  0  3.978567  0  0  0.130799  0  4.00046  0  0  0.117755  0.123061  0  3.963492  0
S  S84  1  0.00464604  0.37237313  0.52839340  1  0  -0.554181  0  2.06224  0  0  -0.497264  0  2.472021  0  0  -0.515746  0  2.449166  0  0  -0.212491  -0.483672  0  2.487045  0
S  S85  1  0.49535272  0.62763523  0.02839888  1  0  -0.554277  0  2.062333  0  0  -0.497295  0  2.47198  0  0  -0.515775  0  2.449122  0  0  -0.212502  -0.483685  0  2.48699  0
S  S86  1  0.99535905  0.87236824  0.97160661  1  0  -0.554226  0  2.062344  0  0  -0.497264  0  2.472028  0  0  -0.515745  0  2.449175  0  0  -0.212485  -0.483668  0  2.487051  0
S  S87  1  0.50465047  0.12763139  0.47160123  1  0  -0.554197  0  2.062216  0  0  -0.497223  0  2.471861  0  0  -0.515701  0  2.449003  0  0  -0.212472  -0.483629  0  2.486879  0
S  S88  1  0.22527852  0.47525154  0.46683831  1  0  1.29022  0  5.678465  0  0  1.201479  0  6.21991  0  0  1.251244  0  6.199131  0  0  0.478458  1.166954  0  6.233144  0
S  S89  1  0.27472505  0.52474593  0.96684701  1  0  1.290554  0  5.678435  0  0  1.201878  0  6.219805  0  0  1.251643  0  6.19902  0  0  0.478661  1.167351  0  6.23304  0
S  S90  1  0.77473558  0.97525549  0.03315901  1  0  1.290503  0  5.678138  0  0  1.201803  0  6.219539  0  0  1.251563  0  6.198762  0  0  0.478656  1.167277  0  6.232768  0
S  S91  1  0.72527679  0.02474709  0.53315473  1  0  1.290323  0  5.678722  0  0  1.201618  0  6.220134  0  0  1.251385  0  6.199349  0  0  0.478495  1.167095  0  6.233368  0
N  N92  1  0.70661382  0.54957321  0.38419569  1  0  -0.344727  0  3.257657  0  0  -0.273649  0  3.524683  0  0  -0.293392  0  3.543409  0  0  -0.325236  -0.258456  0  3.510407  0
N  N93  1  0.79338184  0.45043059  0.88419890  1  0  -0.344783  0  3.257443  0  0  -0.273722  0  3.524486  0  0  -0.293463  0  3.543201  0  0  -0.325207  -0.258522  0  3.510214  0
N  N94  1  0.29338165  0.04957302  0.11580580  1  0  -0.344751  0  3.257588  0  0  -0.273651  0  3.524614  0  0  -0.293393  0  3.543335  0  0  -0.325207  -0.258457  0  3.510342  0
N  N95  1  0.20662175  0.95042721  0.61580450  1  0  -0.344804  0  3.257647  0  0  -0.273706  0  3.524683  0  0  -0.29345  0  3.543408  0  0  -0.325261  -0.258511  0  3.510403  0
N  N96  1  0.72938238  0.29651676  0.32809670  1  0  -0.346707  0  3.260716  0  0  -0.271808  0  3.522453  0  0  -0.291706  0  3.541313  0  0  -0.328825  -0.258161  0  3.509562  0
N  N97  1  0.77060865  0.70348355  0.82810057  1  0  -0.346801  0  3.260713  0  0  -0.271906  0  3.522457  0  0  -0.291802  0  3.541312  0  0  -0.328905  -0.258275  0  3.509603  0
N  N98  1  0.27059940  0.79651986  0.17189910  1  0  -0.346803  0  3.26066  0  0  -0.27191  0  3.522408  0  0  -0.291808  0  3.541264  0  0  -0.328913  -0.258278  0  3.509529  0
N  N99  1  0.22939481  0.20348088  0.67190059  1  0  -0.346748  0  3.260599  0  0  -0.271839  0  3.522326  0  0  -0.291736  0  3.541182  0  0  -0.328873  -0.258203  0  3.509462  0
O  O100  1  0.24426693  0.40827475  0.39809744  1  0  -0.652426  0  1.931166  0  0  -0.60815  0  2.185984  0  0  -0.629062  0  2.173708  0  0  -0.344992  -0.593541  0  2.19422  0
O  O101  1  0.25572739  0.59172110  0.89810578  1  0  -0.652516  0  1.931143  0  0  -0.60831  0  2.185994  0  0  -0.629217  0  2.173709  0  0  -0.345072  -0.593722  0  2.194284  0
O  O102  1  0.75574100  0.90828726  0.10190236  1  0  -0.652504  0  1.931071  0  0  -0.60828  0  2.185921  0  0  -0.62919  0  2.173645  0  0  -0.345115  -0.593679  0  2.194173  0
O  O103  1  0.74427448  0.09172190  0.60189561  1  0  -0.652371  0  1.931285  0  0  -0.608161  0  2.186172  0  0  -0.629074  0  2.173899  0  0  -0.344992  -0.593573  0  2.194437  0
O  O104  1  0.15033774  0.61139672  0.46356053  1  0  -0.620606  0  1.950784  0  0  -0.570687  0  2.191218  0  0  -0.592526  0  2.180578  0  0  -0.326903  -0.555271  0  2.197915  0
O  O105  1  0.34966429  0.38860271  0.96357205  1  0  -0.620678  0  1.950736  0  0  -0.570771  0  2.191168  0  0  -0.592613  0  2.18053  0  0  -0.326939  -0.555348  0  2.197855  0
O  O106  1  0.84967925  0.11139793  0.03643265  1  0  -0.620703  0  1.950675  0  0  -0.570779  0  2.191079  0  0  -0.592617  0  2.180441  0  0  -0.326953  -0.55536  0  2.197773  0
O  O107  1  0.65033619  0.88860368  0.53643118  1  0  -0.62063  0  1.950783  0  0  -0.570717  0  2.191197  0  0  -0.592566  0  2.180571  0  0  -0.326904  -0.555295  0  2.197878  0
O  O108  1  0.41486216  0.46152496  0.51055485  1  0  -0.684491  0  1.991428  0  0  -0.618706  0  2.257167  0  0  -0.643463  0  2.243625  0  0  -0.357162  -0.601233  0  2.266151  0
O  O109  1  0.08514579  0.53847729  0.01056538  1  0  -0.684595  0  1.991503  0  0  -0.618838  0  2.25722  0  0  -0.643605  0  2.24369  0  0  -0.3572  -0.601346  0  2.266178  0
O  O110  1  0.58514603  0.96152706  0.98944275  1  0  -0.684536  0  1.991269  0  0  -0.618772  0  2.256985  0  0  -0.643532  0  2.243447  0  0  -0.357179  -0.601303  0  2.265982  0
O  O111  1  0.91485735  0.03847472  0.48943608  1  0  -0.684577  0  1.99152  0  0  -0.618806  0  2.257237  0  0  -0.643569  0  2.243703  0  0  -0.357209  -0.601315  0  2.266187  0
