# generated using pymatgen
data_CuH7C11NO3
_symmetry_space_group_name_H-M   'P 1'
_cell_length_a   9.89181785
_cell_length_b   10.01542591
_cell_length_c   10.78914420
_cell_angle_alpha   75.61854407
_cell_angle_beta   76.03104749
_cell_angle_gamma   87.00383223
_symmetry_Int_Tables_number   1
_chemical_formula_structural   CuH7C11NO3
_chemical_formula_sum   'Cu4 H28 C44 N4 O12'
_cell_volume   1004.74004747
_cell_formula_units_Z   4
loop_
 _symmetry_equiv_pos_site_id
 _symmetry_equiv_pos_as_xyz
  1  'x, y, z'
loop_
 _atom_site_type_symbol
 _atom_site_label
 _atom_site_symmetry_multiplicity
 _atom_site_fract_x
 _atom_site_fract_y
 _atom_site_fract_z
 _atom_site_occupancy
 _atom_site_pbe_cm5_charge
 _atom_site_pbe_ddec_charge
 _atom_site_pbe_ddec_spin_density
 _atom_site_pbe_ddec_sum_bond_order
 _atom_site_pbe_magmom
Cu  Cu0  1  0.32863771  0.91764283  0.12357348  1  0.585706  0.570115  0.457569  2.396182  0.377
Cu  Cu1  1  0.67132013  0.08233988  0.87644570  1  0.585723  0.570049  -0.457617  2.395813  -0.377
Cu  Cu2  1  0.50349260  0.72757591  0.13149900  1  0.581268  0.565631  0.4517  2.356921  0.373
Cu  Cu3  1  0.49648640  0.27247283  0.86848340  1  0.581471  0.565905  -0.451681  2.357531  -0.373
H  H4  1  0.57081023  0.66187369  0.74435481  1  0.105849  0.115026  9.2e-05  1.019431  0.0
H  H5  1  0.42921499  0.33815637  0.25563611  1  0.105848  0.115141  -9.1e-05  1.019219  0.0
H  H6  1  0.57166868  0.66468431  0.51300496  1  0.105252  0.108977  7e-05  1.010433  0.0
H  H7  1  0.42836565  0.33534875  0.48696918  1  0.105157  0.10882  -7e-05  1.010416  0.0
H  H8  1  0.27248586  0.99167773  0.50433480  1  0.104039  0.107043  0.000107  1.004831  0.0
H  H9  1  0.72751937  0.00833733  0.49564685  1  0.10398  0.106953  -0.000108  1.005022  0.0
H  H10  1  0.27344250  0.99172521  0.73587733  1  0.105185  0.113706  5.9e-05  0.994422  0.0
H  H11  1  0.72656695  0.00828582  0.26410615  1  0.105171  0.113674  -6e-05  0.994496  0.0
H  H12  1  0.22293090  0.38730281  0.42058865  1  0.101403  0.103764  1.1e-05  1.034758  0.0
H  H13  1  0.77705546  0.61270254  0.57938958  1  0.101408  0.103662  -1.1e-05  1.034752  0.0
H  H14  1  0.95493972  0.73725006  0.37816202  1  0.103265  0.113273  1e-06  0.995799  0.0
H  H15  1  0.04504744  0.26274784  0.62180115  1  0.103273  0.113154  -1e-06  0.996021  0.0
H  H16  1  0.21882250  0.11442296  0.29219456  1  0.117667  0.093756  0.000469  1.012525  0.001
H  H17  1  0.78123239  0.88560382  0.70781800  1  0.117694  0.093791  -0.000469  1.012838  -0.001
H  H18  1  0.03588166  0.29223912  0.30580203  1  0.104211  0.109654  0.000238  1.041073  0.0
H  H19  1  0.96413203  0.70778138  0.69418650  1  0.104258  0.109737  -0.000238  1.040884  0.0
H  H20  1  0.96344576  0.23024741  0.94230279  1  0.109664  0.130639  0.000228  1.039237  0.0
H  H21  1  0.03656836  0.76973304  0.05770465  1  0.109651  0.130707  -0.000228  1.039283  0.0
H  H22  1  0.15264192  0.05936494  0.94471023  1  0.117092  0.093893  0.000507  1.004561  0.001
H  H23  1  0.84740107  0.94062084  0.05527337  1  0.117113  0.093722  -0.000506  1.004833  -0.001
H  H24  1  0.69264344  0.60249816  0.30692626  1  0.117853  0.095157  0.000482  1.015311  0.001
H  H25  1  0.30730429  0.39746913  0.69311109  1  0.117905  0.095125  -0.000481  1.015548  -0.001
H  H26  1  0.87920145  0.42921083  0.31413334  1  0.105958  0.110162  0.000246  1.033405  0.0
H  H27  1  0.12080001  0.57077655  0.68586889  1  0.10598  0.110226  -0.000246  1.033633  0.0
H  H28  1  0.82013889  0.37126257  0.94548798  1  0.108412  0.12143  0.000242  1.052578  0.0
H  H29  1  0.17987506  0.62871979  0.05450976  1  0.108549  0.121746  -0.000242  1.052652  0.0
H  H30  1  0.63901693  0.54888482  0.95357405  1  0.120042  0.101277  0.00054  1.00925  0.001
H  H31  1  0.36095516  0.45107603  0.04641928  1  0.120015  0.101345  -0.000538  1.009332  -0.001
C  C32  1  0.42464454  0.82967400  0.75322923  1  -0.01499  -0.021372  0.00076  3.950485  0.0
C  C33  1  0.57535679  0.17034643  0.24676964  1  -0.0149  -0.021252  -0.000759  3.950518  0.0
C  C34  1  0.50759418  0.73600935  0.69104265  1  -0.081158  -0.091062  0.000466  3.948278  0.001
C  C35  1  0.49242495  0.26400416  0.30895650  1  -0.081199  -0.091333  -0.000465  3.948804  -0.001
C  C36  1  0.50769699  0.73699887  0.56200348  1  -0.080679  -0.09234  0.000722  3.955577  0.001
C  C37  1  0.49233751  0.26301776  0.43797833  1  -0.080437  -0.091946  -0.00072  3.955736  -0.001
C  C38  1  0.42505679  0.83096873  0.49333487  1  -0.011305  -0.02308  0.000444  3.96602  0.0
C  C39  1  0.57496634  0.16905196  0.50665511  1  -0.011521  -0.02342  -0.000445  3.966247  0.0
C  C40  1  0.33771244  0.92028776  0.55763289  1  -0.082779  -0.090928  0.000579  3.970275  0.001
C  C41  1  0.66230029  0.07972346  0.44235905  1  -0.0827  -0.090673  -0.000579  3.969936  -0.001
C  C42  1  0.33806584  0.92018263  0.68632771  1  -0.079934  -0.086381  0.000407  3.954379  0.001
C  C43  1  0.66193951  0.07982321  0.31365985  1  -0.079944  -0.086473  -0.000408  3.954188  -0.001
C  C44  1  0.42847094  0.83368932  0.88923845  1  0.209159  0.556413  0.000944  4.187604  -0.001
C  C45  1  0.57153276  0.16630860  0.11077367  1  0.209257  0.556754  -0.000947  4.187281  0.001
C  C46  1  0.20485926  0.64380911  0.27046577  1  0.191086  0.557968  -0.000874  4.237433  -0.001
C  C47  1  0.79513300  0.35619073  0.72955043  1  0.191166  0.558066  0.000873  4.238462  0.001
C  C48  1  0.09841943  0.56871774  0.38851635  1  -0.019513  -0.026944  0.000198  3.970611  0.0
C  C49  1  0.90153351  0.43125378  0.61152060  1  -0.019295  -0.026697  -0.000197  3.971193  0.0
C  C50  1  0.12469018  0.43514188  0.45664319  1  -0.091367  -0.113955  -0.000144  4.000693  0.0
C  C51  1  0.87528879  0.56483415  0.54338748  1  -0.091445  -0.113821  0.000144  4.000665  0.0
C  C52  1  0.97299440  0.63331114  0.43268251  1  -0.08871  -0.103804  -0.000174  3.987761  0.0
C  C53  1  0.02696142  0.36668923  0.56734397  1  -0.088869  -0.103724  0.000175  3.988029  0.0
C  C54  1  0.15937379  0.14481620  0.21689385  1  0.048852  0.104065  0.000146  3.920481  0.0
C  C55  1  0.84064002  0.85521165  0.78310214  1  0.048755  0.104016  -0.000146  3.921229  0.0
C  C56  1  0.05595931  0.24366683  0.22347999  1  -0.082855  -0.171842  0.002023  3.936271  0.003
C  C57  1  0.94403513  0.75637782  0.77648772  1  -0.082814  -0.17192  -0.002022  3.936254  -0.003
C  C58  1  0.98088182  0.27921456  0.12496540  1  0.014438  0.105456  -0.00124  3.968001  -0.001
C  C59  1  0.01909203  0.72082793  0.87502065  1  0.014291  0.105463  0.001241  3.965975  0.001
C  C60  1  0.01658928  0.21079005  0.02258560  1  -0.080392  -0.167604  0.00202  3.902385  0.003
C  C61  1  0.98340511  0.78922853  0.97743574  1  -0.080251  -0.167854  -0.002019  3.902829  -0.003
C  C62  1  0.12201575  0.11364251  0.02297539  1  0.049739  0.098139  0.00018  3.925397  0.0
C  C63  1  0.87800151  0.88635561  0.97703442  1  0.049683  0.098529  -0.000181  3.92603  0.0
C  C64  1  0.43328845  0.83843832  0.35223930  1  0.209325  0.563194  0.000598  4.167713  -0.001
C  C65  1  0.56673348  0.16156354  0.64773885  1  0.209465  0.56353  -0.000601  4.168324  0.001
C  C66  1  0.72595167  0.54908411  0.22830539  1  0.045186  0.091814  0.000145  3.939727  0.0
C  C67  1  0.27400989  0.45089722  0.77168728  1  0.04513  0.091965  -0.000144  3.939665  0.0
C  C68  1  0.83060967  0.45130199  0.23091366  1  -0.078686  -0.162388  0.002027  3.930565  0.003
C  C69  1  0.16937152  0.54867534  0.76906426  1  -0.078736  -0.162469  -0.002027  3.931216  -0.003
C  C70  1  0.87011050  0.38399399  0.12804155  1  0.011053  0.096835  -0.001309  3.974056  -0.001
C  C71  1  0.12991608  0.61595964  0.87195650  1  0.011112  0.096835  0.001312  3.972522  0.001
C  C72  1  0.79864316  0.42071482  0.02709945  1  -0.080118  -0.159694  0.00212  3.911017  0.003
C  C73  1  0.20136618  0.57927008  0.97293399  1  -0.080308  -0.160052  -0.002118  3.911665  -0.003
C  C74  1  0.69532965  0.51974316  0.03127045  1  0.04907  0.103759  6.4e-05  3.909387  0.0
C  C75  1  0.30464899  0.48025123  0.96874378  1  0.049042  0.103795  -6.4e-05  3.909416  0.0
N  N76  1  0.19250423  0.07998147  0.11840025  1  -0.344979  -0.204362  0.029013  3.561592  0.038
N  N77  1  0.80752118  0.92002906  0.88159907  1  -0.344894  -0.204286  -0.029019  3.561093  -0.038
N  N78  1  0.65920484  0.58418541  0.12990343  1  -0.344575  -0.206915  0.02903  3.561312  0.039
N  N79  1  0.34075897  0.41578158  0.87009592  1  -0.344615  -0.207071  -0.029015  3.560631  -0.039
O  O80  1  0.35484958  0.92455795  0.93921144  1  -0.32037  -0.538029  0.027584  2.533873  0.039
O  O81  1  0.64511475  0.07541160  0.06081867  1  -0.320525  -0.538261  -0.027586  2.533775  -0.039
O  O82  1  0.50558896  0.74706954  0.94827075  1  -0.319789  -0.522852  0.025927  2.513347  0.037
O  O83  1  0.49444343  0.25292111  0.05170582  1  -0.319894  -0.523245  -0.025913  2.513821  -0.037
O  O84  1  0.16668613  0.75694891  0.20340150  1  -0.342815  -0.573332  0.000916  2.314056  0.002
O  O85  1  0.83327230  0.24305518  0.79659472  1  -0.342952  -0.573271  -0.000911  2.314703  -0.002
O  O86  1  0.32490789  0.59023779  0.24656619  1  -0.336688  -0.556668  -0.000221  2.271164  0.0
O  O87  1  0.67510983  0.40976699  0.75347157  1  -0.336751  -0.556801  0.000212  2.271178  0.0
O  O88  1  0.34869179  0.91866614  0.29692936  1  -0.320768  -0.510101  0.028312  2.475863  0.041
O  O89  1  0.65129189  0.08131055  0.70307130  1  -0.320866  -0.510201  -0.028318  2.476066  -0.041
O  O90  1  0.52505791  0.76618572  0.29371244  1  -0.31824  -0.507618  0.025711  2.455103  0.037
O  O91  1  0.47498739  0.23381067  0.70628566  1  -0.318241  -0.507817  -0.025702  2.455653  -0.037
