# generated using pymatgen
data_AgH10C16S2N4O2F3
_symmetry_space_group_name_H-M   'P 1'
_cell_length_a   8.12277489
_cell_length_b   9.57177251
_cell_length_c   12.89158928
_cell_angle_alpha   71.73567238
_cell_angle_beta   82.74377062
_cell_angle_gamma   72.18953253
_symmetry_Int_Tables_number   1
_chemical_formula_structural   AgH10C16S2N4O2F3
_chemical_formula_sum   'Ag2 H20 C32 S4 N8 O4 F6'
_cell_volume   905.68577022
_cell_formula_units_Z   2
loop_
 _symmetry_equiv_pos_site_id
 _symmetry_equiv_pos_as_xyz
  1  'x, y, z'
loop_
 _atom_site_type_symbol
 _atom_site_label
 _atom_site_symmetry_multiplicity
 _atom_site_fract_x
 _atom_site_fract_y
 _atom_site_fract_z
 _atom_site_occupancy
 _atom_site_pbe_bader_spin_density
 _atom_site_pbe_cm5_charge
 _atom_site_pbe_ddec_charge
 _atom_site_pbe_ddec_spin_density
 _atom_site_pbe_ddec_sum_bond_order
 _atom_site_pbe_magmom
Ag  Ag0  1  0.35316405  0.58666009  0.92600525  1  0  0.455685  0.291716  0  2.113329  0
Ag  Ag1  1  0.64683479  0.41333721  0.07399400  1  0  0.455696  0.291736  0  2.113276  0
H  H2  1  0.17722930  0.40189659  0.15506209  1  0  0.127225  0.101681  0  1.031831  0
H  H3  1  0.82276920  0.59810187  0.84493847  1  0  0.127193  0.101655  0  1.031842  0
H  H4  1  0.05564075  0.14593785  0.97529613  1  0  0.131109  0.140443  0  0.98623  0
H  H5  1  0.94436399  0.85406056  0.02470545  1  0  0.131101  0.140446  0  0.9862  0
H  H6  1  0.23030300  0.34890453  0.83872308  1  0  0.118492  0.120231  0  1.01104  0
H  H7  1  0.76969867  0.65109161  0.16127542  1  0  0.118489  0.12021  0  1.011085  0
H  H8  1  0.09711296  0.93471869  0.18387247  1  0  0.105303  0.14414  0  1.041178  0
H  H9  1  0.90287791  0.06528440  0.81612764  1  0  0.105311  0.144121  0  1.041175  0
H  H10  1  0.90585413  0.87222015  0.36309973  1  0  0.101037  0.12436  0  1.008217  0
H  H11  1  0.09413997  0.12778064  0.63690298  1  0  0.101044  0.124364  0  1.008279  0
H  H12  1  0.60424837  0.36067194  0.43270131  1  0  0.105121  0.137995  0  0.998895  0
H  H13  1  0.39575481  0.63932764  0.56730323  1  0  0.105145  0.138015  0  0.998968  0
H  H14  1  0.44991667  0.28625377  0.62711409  1  0  0.113932  0.144194  0  0.978304  0
H  H15  1  0.55008740  0.71373894  0.37289200  1  0  0.113913  0.144173  0  0.978298  0
H  H16  1  0.51269967  0.76443316  0.70201555  1  0  0.127544  0.107291  0  1.04208  0
H  H17  1  0.48730357  0.23556182  0.29798076  1  0  0.127535  0.107263  0  1.042117  0
H  H18  1  0.38834183  0.88759293  0.99476949  1  0  0.116935  0.125474  0  1.039417  0
H  H19  1  0.61165641  0.11240208  0.00522647  1  0  0.117015  0.125596  0  1.039252  0
H  H20  1  0.51056627  0.11712311  0.83712013  1  0  0.123254  0.135536  0  1.037804  0
H  H21  1  0.48943415  0.88287304  0.16287847  1  0  0.123249  0.135509  0  1.03782  0
C  C22  1  0.16805624  0.36334894  0.08609950  1  0  0.135817  0.092268  0  3.897631  0
C  C23  1  0.83194352  0.63664951  0.91390172  1  0  0.135843  0.092215  0  3.897635  0
C  C24  1  0.10906542  0.22757562  0.99108582  1  0  0.00659  -0.088635  0  3.886464  0
C  C25  1  0.89094180  0.77242277  0.00891477  1  0  0.006649  -0.088699  0  3.886365  0
C  C26  1  0.19236124  0.32960723  0.92449698  1  0  -0.001709  -0.041186  0  3.991987  0
C  C27  1  0.80764100  0.67039119  0.07550326  1  0  -0.00172  -0.041138  0  3.992036  0
C  C28  1  0.01617098  0.17255850  0.18892349  1  0  0.073404  0.046459  0  4.056622  0
C  C29  1  0.98382841  0.82744110  0.81107672  1  0  0.07338  0.046404  0  4.056628  0
C  C30  1  0.02021537  0.02017231  0.22371920  1  0  -0.109904  -0.175347  0  4.009764  0
C  C31  1  0.97977994  0.97982846  0.77628185  1  0  -0.109889  -0.17529  0  4.009636  0
C  C32  1  0.91998643  0.98617406  0.32148249  1  0  -0.110671  -0.14199  0  4.001651  0
C  C33  1  0.08001226  0.01382783  0.67851800  1  0  -0.11071  -0.142088  0  4.001719  0
C  C34  1  0.84190836  0.11157192  0.36035940  1  0  -0.022925  -0.012813  0  4.082602  0
C  C35  1  0.15809694  0.88842878  0.63964315  1  0  -0.022908  -0.012776  0  4.082665  0
C  C36  1  0.73516912  0.11790518  0.45796194  1  0  -0.024858  -0.016819  0  4.068852  0
C  C37  1  0.26483495  0.88209554  0.54204148  1  0  -0.024816  -0.016826  0  4.068899  0
C  C38  1  0.62614322  0.24395232  0.48684217  1  0  -0.107388  -0.136695  0  3.995632  0
C  C39  1  0.37386373  0.75604724  0.51316360  1  0  -0.107414  -0.136637  0  3.995704  0
C  C40  1  0.54106671  0.20417794  0.59003478  1  0  -0.106047  -0.178501  0  4.020421  0
C  C41  1  0.45893789  0.79581705  0.40996994  1  0  -0.106047  -0.178473  0  4.020395  0
C  C42  1  0.58593213  0.04783726  0.63792223  1  0  0.084052  0.068527  0  4.044985  0
C  C43  1  0.41407121  0.95215774  0.36208105  1  0  0.084051  0.068516  0  4.044991  0
C  C44  1  0.49387565  0.82836847  0.76073952  1  0  0.130991  0.074517  0  3.89942  0
C  C45  1  0.50612636  0.17162652  0.23925845  1  0  0.130987  0.074559  0  3.89936  0
C  C46  1  0.42978030  0.89966289  0.90985451  1  0  -0.004192  -0.039471  0  3.961194  0
C  C47  1  0.57021725  0.10033441  0.09014174  1  0  -0.004292  -0.039488  0  3.961086  0
C  C48  1  0.48677751  0.01311837  0.83344863  1  0  0.001256  -0.091545  0  3.852654  0
C  C49  1  0.51322328  0.98687663  0.16655099  1  0  0.001362  -0.091466  0  3.852605  0
C  C50  1  0.65765783  0.38406781  0.77063886  1  0  0.173318  0.412086  0  4.412529  0
C  C51  1  0.34233672  0.61594325  0.22935517  1  0  0.173205  0.412058  0  4.412615  0
C  C52  1  0.80979327  0.42764980  0.69066842  1  0  0.286114  0.57582  0  3.96133  0
C  C53  1  0.19020701  0.57235894  0.30932955  1  0  0.286124  0.575758  0  3.961043  0
S  S54  1  0.88991419  0.27484053  0.27431924  1  0  0.09671  0.11192  0  2.969145  0
S  S55  1  0.11008648  0.72515906  0.72568318  1  0  0.096712  0.111942  0  2.969147  0
S  S56  1  0.73324898  0.94872551  0.55892799  1  0  0.101039  0.105939  0  2.921671  0
S  S57  1  0.26675825  0.05127288  0.44107338  1  0  0.101034  0.105957  0  2.921613  0
N  N58  1  0.22753649  0.41345785  0.98469936  1  0  -0.379592  -0.224328  0  3.683061  0
N  N59  1  0.77246452  0.58654060  0.01530253  1  0  -0.379613  -0.2243  0  3.683004  0
N  N60  1  0.09552713  0.24913196  0.09400141  1  0  -0.227552  0.021753  0  3.862519  0
N  N61  1  0.90447350  0.75086762  0.90599792  1  0  -0.227563  0.021842  0  3.862447  0
N  N62  1  0.52652656  0.96662433  0.73896334  1  0  -0.225951  0.029473  0  3.840785  0
N  N63  1  0.47347619  0.03336837  0.26103743  1  0  -0.226015  0.029408  0  3.84083  0
N  N64  1  0.43570861  0.78584528  0.86342182  1  0  -0.380847  -0.223217  0  3.680518  0
N  N65  1  0.56429087  0.21414972  0.13657325  1  0  -0.380848  -0.223316  0  3.680672  0
O  O66  1  0.69730027  0.25618190  0.84192279  1  0  -0.330428  -0.539065  0  2.225751  0
O  O67  1  0.30268837  0.74382805  0.15806969  1  0  -0.330301  -0.538946  0  2.22596  0
O  O68  1  0.51429890  0.48478231  0.75024976  1  0  -0.346952  -0.553571  0  2.256963  0
O  O69  1  0.48569578  0.51523217  0.24974036  1  0  -0.346955  -0.553495  0  2.256816  0
F  F70  1  0.97114699  0.33890503  0.72594019  1  0  -0.107612  -0.207455  0  1.345872  0
F  F71  1  0.02884517  0.66109807  0.27406369  1  0  -0.107589  -0.207314  0  1.345856  0
F  F72  1  0.79722768  0.41525388  0.58937819  1  0  -0.111555  -0.20252  0  1.310041  0
F  F73  1  0.20277315  0.58475715  0.41061997  1  0  -0.111511  -0.202996  0  1.310763  0
F  F74  1  0.80919761  0.57677144  0.67537427  1  0  -0.116746  -0.238585  0  1.400101  0
F  F75  1  0.19080553  0.42323614  0.32462451  1  0  -0.116844  -0.238575  0  1.400057  0
