# generated using pymatgen
data_CdH16C21(NO2)2
_symmetry_space_group_name_H-M   'P 1'
_cell_length_a   8.70432136
_cell_length_b   10.55716414
_cell_length_c   10.86889152
_cell_angle_alpha   106.54168943
_cell_angle_beta   91.89363912
_cell_angle_gamma   91.40521246
_symmetry_Int_Tables_number   1
_chemical_formula_structural   CdH16C21(NO2)2
_chemical_formula_sum   'Cd2 H32 C42 N4 O8'
_cell_volume   956.31487944
_cell_formula_units_Z   2
loop_
 _symmetry_equiv_pos_site_id
 _symmetry_equiv_pos_as_xyz
  1  'x, y, z'
loop_
 _atom_site_type_symbol
 _atom_site_label
 _atom_site_symmetry_multiplicity
 _atom_site_fract_x
 _atom_site_fract_y
 _atom_site_fract_z
 _atom_site_occupancy
 _atom_site_hle17_bader_spin_density
 _atom_site_hle17_ddec_charge
 _atom_site_hle17_ddec_spin_density
 _atom_site_hle17_ddec_sum_bond_order
 _atom_site_hle17_magmom
 _atom_site_hse06_10hf_bader_spin_density
 _atom_site_hse06_10hf_ddec_charge
 _atom_site_hse06_10hf_ddec_spin_density
 _atom_site_hse06_10hf_ddec_sum_bond_order
 _atom_site_hse06_10hf_magmom
 _atom_site_hse06_bader_spin_density
 _atom_site_hse06_ddec_charge
 _atom_site_hse06_ddec_spin_density
 _atom_site_hse06_ddec_sum_bond_order
 _atom_site_hse06_magmom
 _atom_site_pbe_bader_spin_density
 _atom_site_pbe_cm5_charge
 _atom_site_pbe_ddec_charge
 _atom_site_pbe_ddec_spin_density
 _atom_site_pbe_ddec_sum_bond_order
 _atom_site_pbe_magmom
Cd  Cd0  1  0.32174105  0.82726886  0.13365755  1  0  1.055839  0  1.686184  0  0  0.853264  0  2.127372  0  0  0.913735  0  2.076603  0  0  0.765075  0.811386  0  2.160909  0
Cd  Cd1  1  0.67825968  0.17273313  0.86634606  1  0  1.055828  0  1.686179  0  0  0.853233  0  2.127356  0  0  0.913706  0  2.076586  0  0  0.765068  0.811353  0  2.160903  0
H  H2  1  0.06121757  0.19658351  0.02088319  1  0  0.103636  0  0.963701  0  0  0.111733  0  1.030535  0  0  0.115109  0  1.027908  0  0  0.102905  0.10917  0  1.032861  0
H  H3  1  0.93878088  0.80341861  0.97911210  1  0  0.10369  0  0.963652  0  0  0.111798  0  1.030474  0  0  0.115177  0  1.027839  0  0  0.102906  0.109231  0  1.032795  0
H  H4  1  0.96803881  0.42359456  0.07411554  1  0  0.104093  0  0.953351  0  0  0.113631  0  1.015652  0  0  0.117383  0  1.01372  0  0  0.099511  0.110989  0  1.017352  0
H  H5  1  0.03195274  0.57640756  0.92588416  1  0  0.104113  0  0.953246  0  0  0.11359  0  1.015623  0  0  0.117382  0  1.013642  0  0  0.099481  0.110946  0  1.017322  0
H  H6  1  0.13250531  0.49084707  0.46681892  1  0  0.0883  0  0.96615  0  0  0.100383  0  1.028157  0  0  0.10286  0  1.027918  0  0  0.097185  0.098657  0  1.028442  0
H  H7  1  0.86749648  0.50915304  0.53317681  1  0  0.088288  0  0.966159  0  0  0.100386  0  1.028154  0  0  0.102857  0  1.027923  0  0  0.097184  0.098659  0  1.028448  0
H  H8  1  0.22854419  0.26222640  0.41150790  1  0  0.091584  0  0.96426  0  0  0.100736  0  1.028757  0  0  0.103702  0  1.027224  0  0  0.099316  0.098543  0  1.0301  0
H  H9  1  0.77145881  0.73777473  0.58848539  1  0  0.091569  0  0.964241  0  0  0.100712  0  1.028747  0  0  0.103676  0  1.027215  0  0  0.099312  0.098522  0  1.03009  0
H  H10  1  0.99371187  0.66021241  0.40887153  1  0  0.1088  0  0.936771  0  0  0.123307  0  0.997827  0  0  0.125135  0  0.997701  0  0  0.099698  0.121511  0  0.9985  0
H  H11  1  0.00628291  0.33978569  0.59112894  1  0  0.10876  0  0.936782  0  0  0.123273  0  0.997837  0  0  0.125103  0  0.997708  0  0  0.099669  0.121479  0  0.99851  0
H  H12  1  0.89204818  0.62668984  0.25632597  1  0  0.111989  0  0.92182  0  0  0.126553  0  0.977575  0  0  0.12904  0  0.976633  0  0  0.099295  0.124929  0  0.978056  0
H  H13  1  0.10794911  0.37331226  0.74367204  1  0  0.112004  0  0.921833  0  0  0.126546  0  0.977611  0  0  0.129035  0  0.976668  0  0  0.099297  0.12492  0  0.978089  0
H  H14  1  0.24151379  0.85784469  0.86433744  1  0  0.088854  0  0.966308  0  0  0.095623  0  1.033081  0  0  0.097528  0  1.031847  0  0  0.117101  0.094062  0  1.03425  0
H  H15  1  0.75848914  0.14215534  0.13566290  1  0  0.088884  0  0.966423  0  0  0.095663  0  1.033182  0  0  0.097567  0  1.031948  0  0  0.117132  0.094112  0  1.034329  0
H  H16  1  0.28330363  0.75910844  0.63001694  1  0  0.116093  0  0.931772  0  0  0.127123  0  0.988227  0  0  0.130401  0  0.987774  0  0  0.112906  0.124734  0  0.988908  0
H  H17  1  0.71669929  0.24089157  0.36998523  1  0  0.116056  0  0.931755  0  0  0.127096  0  0.988196  0  0  0.130373  0  0.987744  0  0  0.112921  0.124709  0  0.988876  0
H  H18  1  0.58263332  0.48158619  0.73643843  1  0  0.119081  0  0.96514  0  0  0.12743  0  1.026845  0  0  0.130483  0  1.02668  0  0  0.109041  0.125162  0  1.027366  0
H  H19  1  0.41736966  0.51841484  0.26356219  1  0  0.119004  0  0.965179  0  0  0.127359  0  1.026887  0  0  0.130412  0  1.026724  0  0  0.109025  0.125091  0  1.027406  0
H  H20  1  0.53290974  0.59522225  0.96365715  1  0  0.068211  0  0.939449  0  0  0.079312  0  1.000609  0  0  0.081418  0  0.998819  0  0  0.114242  0.077856  0  1.001739  0
H  H21  1  0.46708963  0.40477580  0.03634436  1  0  0.068247  0  0.939454  0  0  0.079346  0  1.000616  0  0  0.081451  0  0.998826  0  0  0.114264  0.077891  0  1.001746  0
H  H22  1  0.40068733  0.60395980  0.46240798  1  0  0.104478  0  0.963452  0  0  0.112711  0  1.030028  0  0  0.116456  0  1.027384  0  0  0.105928  0.109877  0  1.032307  0
H  H23  1  0.59931430  0.39603726  0.53759239  1  0  0.104425  0  0.963475  0  0  0.112686  0  1.030014  0  0  0.116424  0  1.027378  0  0  0.105923  0.10985  0  1.032296  0
H  H24  1  0.67493402  0.87359284  0.06585964  1  0  0.080703  0  0.963538  0  0  0.086182  0  1.033166  0  0  0.088587  0  1.031378  0  0  0.112059  0.08437  0  1.034529  0
H  H25  1  0.32506211  0.12640920  0.93414293  1  0  0.080658  0  0.96353  0  0  0.086136  0  1.033166  0  0  0.088541  0  1.031377  0  0  0.112041  0.084327  0  1.034533  0
H  H26  1  0.92301773  0.95206444  0.18267832  1  0  0.119667  0  0.943787  0  0  0.129024  0  1.005207  0  0  0.132157  0  1.004183  0  0  0.112401  0.126336  0  1.006938  0
H  H27  1  0.07697852  0.04793962  0.81732116  1  0  0.119611  0  0.943885  0  0  0.128967  0  1.005315  0  0  0.1321  0  1.004292  0  0  0.11239  0.12628  0  1.00704  0
H  H28  1  0.71078157  0.92381255  0.53011518  1  0  0.127072  0  0.991051  0  0  0.134212  0  1.053357  0  0  0.138737  0  1.050473  0  0  0.108555  0.130641  0  1.056062  0
H  H29  1  0.28922240  0.07618546  0.46988737  1  0  0.127039  0  0.991145  0  0  0.134208  0  1.053414  0  0  0.138733  0  1.05053  0  0  0.108547  0.130637  0  1.056116  0
H  H30  1  0.47241038  0.83984886  0.39614289  1  0  0.09034  0  0.95393  0  0  0.100643  0  1.014447  0  0  0.103355  0  1.012122  0  0  0.116005  0.098491  0  1.016522  0
H  H31  1  0.52759024  0.16015112  0.60386288  1  0  0.090345  0  0.953937  0  0  0.100605  0  1.014504  0  0  0.103312  0  1.012173  0  0  0.116  0.098451  0  1.016571  0
H  H32  1  0.07935891  0.01015220  0.37789826  1  0  0.102888  0  0.989418  0  0  0.110941  0  1.054101  0  0  0.11388  0  1.05343  0  0  0.103324  0.108759  0  1.054645  0
H  H33  1  0.92064188  0.98985082  0.62210288  1  0  0.10288  0  0.989415  0  0  0.110937  0  1.054093  0  0  0.113877  0  1.053422  0  0  0.103326  0.108752  0  1.054637  0
C  C34  1  0.21596681  0.07982849  0.17860675  1  0  0.615181  0  3.948364  0  0  0.568172  0  4.235392  0  0  0.602857  0  4.229116  0  0  0.186785  0.545564  0  4.237128  0
C  C35  1  0.78403274  0.92017264  0.82138829  1  0  0.615225  0  3.948169  0  0  0.568218  0  4.235209  0  0  0.602902  0  4.228933  0  0  0.18683  0.545605  0  4.236946  0
C  C36  1  0.15266730  0.21487895  0.21238888  1  0  -0.081542  0  3.790669  0  0  -0.059704  0  4.025446  0  0  -0.069571  0  4.050191  0  0  -0.028542  -0.053124  0  4.007739  0
C  C37  1  0.84733105  0.78512119  0.78760675  1  0  -0.081343  0  3.790335  0  0  -0.059523  0  4.025118  0  0  -0.069389  0  4.04986  0  0  -0.028543  -0.05294  0  4.007407  0
C  C38  1  0.07778724  0.26131109  0.11835855  1  0  -0.06246  0  3.742487  0  0  -0.087337  0  3.993993  0  0  -0.085706  0  4.013945  0  0  -0.085634  -0.088047  0  3.980125  0
C  C39  1  0.92220996  0.73868906  0.88163614  1  0  -0.062712  0  3.742579  0  0  -0.087593  0  3.994081  0  0  -0.085967  0  4.01405  0  0  -0.085665  -0.088296  0  3.980201  0
C  C40  1  0.02425245  0.38922261  0.14929048  1  0  -0.133869  0  3.728037  0  0  -0.152112  0  3.975908  0  0  -0.157213  0  3.997256  0  0  -0.0972  -0.14882  0  3.961213  0
C  C41  1  0.97574014  0.61077755  0.85070684  1  0  -0.133779  0  3.727893  0  0  -0.151932  0  3.97578  0  0  -0.157063  0  3.997118  0  0  -0.097122  -0.14864  0  3.961082  0
C  C42  1  0.04411023  0.47347702  0.27485663  1  0  0.127533  0  3.747983  0  0  0.146101  0  3.984131  0  0  0.148623  0  4.007865  0  0  -0.005625  0.145423  0  3.966969  0
C  C43  1  0.95588346  0.52652214  0.72514044  1  0  0.127529  0  3.747938  0  0  0.145997  0  3.984216  0  0  0.148513  0  4.007967  0  0  -0.005663  0.14532  0  3.967049  0
C  C44  1  0.11616404  0.42577318  0.36913590  1  0  -0.141823  0  3.767429  0  0  -0.160216  0  4.018648  0  0  -0.164869  0  4.040225  0  0  -0.098687  -0.157091  0  4.003319  0
C  C45  1  0.88383425  0.57422594  0.63086129  1  0  -0.141815  0  3.767497  0  0  -0.160201  0  4.018748  0  0  -0.164849  0  4.040331  0  0  -0.098685  -0.15708  0  4.003427  0
C  C46  1  0.16975587  0.29791227  0.33852659  1  0  -0.070679  0  3.770003  0  0  -0.093908  0  4.020088  0  0  -0.092592  0  4.040736  0  0  -0.089841  -0.094033  0  4.005191  0
C  C47  1  0.83024364  0.70208788  0.66146724  1  0  -0.07071  0  3.769751  0  0  -0.093913  0  4.019834  0  0  -0.092595  0  4.040474  0  0  -0.089806  -0.094037  0  4.004938  0
C  C48  1  0.00145098  0.61623903  0.30488632  1  0  -0.304023  0  3.694117  0  0  -0.346268  0  3.933965  0  0  -0.352231  0  3.940595  0  0  -0.16206  -0.342362  0  3.929613  0
C  C49  1  0.99854500  0.38376007  0.69511355  1  0  -0.30394  0  3.694122  0  0  -0.346148  0  3.933932  0  0  -0.352113  0  3.940567  0  0  -0.162003  -0.342243  0  3.929578  0
C  C50  1  0.12968889  0.69013301  0.25752680  1  0  0.687146  0  3.882958  0  0  0.645472  0  4.175656  0  0  0.67873  0  4.170835  0  0  0.194316  0.622582  0  4.179169  0
C  C51  1  0.87031163  0.30986504  0.74247473  1  0  0.687072  0  3.882868  0  0  0.645428  0  4.175521  0  0  0.678685  0  4.170699  0  0  0.194297  0.622536  0  4.179037  0
C  C52  1  0.31607379  0.77473952  0.83081222  1  0  0.134656  0  3.712405  0  0  0.103277  0  3.961999  0  0  0.111116  0  3.981868  0  0  0.047551  0.098038  0  3.948724  0
C  C53  1  0.68392909  0.22525949  0.16918966  1  0  0.134621  0  3.712596  0  0  0.103203  0  3.962204  0  0  0.111042  0  3.982072  0  0  0.047494  0.097964  0  3.94894  0
C  C54  1  0.33952286  0.71881658  0.70112866  1  0  -0.147172  0  3.660954  0  0  -0.164135  0  3.903878  0  0  -0.172247  0  3.924242  0  0  -0.074614  -0.159163  0  3.890545  0
C  C55  1  0.66047766  0.28118148  0.29887196  1  0  -0.147113  0  3.661043  0  0  -0.16405  0  3.903981  0  0  -0.172159  0  3.924344  0  0  -0.074582  -0.159081  0  3.89065  0
C  C56  1  0.43525208  0.61041363  0.66180293  1  0  0.142457  0  3.780741  0  0  0.158103  0  4.0091  0  0  0.163955  0  4.031009  0  0  0.014041  0.154508  0  3.994125  0
C  C57  1  0.56475194  0.38958538  0.33819899  1  0  0.142461  0  3.780617  0  0  0.158043  0  4.009076  0  0  0.163892  0  4.030987  0  0  0.01402  0.154452  0  3.994097  0
C  C58  1  0.50525452  0.56409110  0.75903467  1  0  -0.150762  0  3.673997  0  0  -0.165822  0  3.912847  0  0  -0.174081  0  3.935407  0  0  -0.076836  -0.160551  0  3.897705  0
C  C59  1  0.49474955  0.43590891  0.24096662  1  0  -0.15067  0  3.673968  0  0  -0.165723  0  3.912841  0  0  -0.173983  0  3.935407  0  0  -0.076825  -0.160451  0  3.8977  0
C  C60  1  0.47746327  0.62683729  0.88630591  1  0  0.115806  0  3.753676  0  0  0.085253  0  4.004501  0  0  0.091918  0  4.025045  0  0  0.039999  0.081011  0  3.990341  0
C  C61  1  0.52253736  0.37316273  0.11369620  1  0  0.115783  0  3.75382  0  0  0.08523  0  4.004632  0  0  0.091896  0  4.025176  0  0  0.039998  0.080985  0  3.990477  0
C  C62  1  0.45806438  0.55360522  0.52537630  1  0  -0.095109  0  3.690911  0  0  -0.114691  0  3.938783  0  0  -0.118053  0  3.958558  0  0  -0.074015  -0.11249  0  3.925507  0
C  C63  1  0.54193959  0.44639279  0.47462625  1  0  -0.095117  0  3.690854  0  0  -0.114684  0  3.938721  0  0  -0.118042  0  3.958495  0  0  -0.074015  -0.112485  0  3.925444  0
C  C64  1  0.68767376  0.88300805  0.16826548  1  0  0.121195  0  3.73217  0  0  0.089941  0  3.984622  0  0  0.09788  0  4.003008  0  0  0.041493  0.085014  0  3.971783  0
C  C65  1  0.31232561  0.11699000  0.83173694  1  0  0.121279  0  3.732093  0  0  0.090019  0  3.984552  0  0  0.097958  0  4.00294  0  0  0.041543  0.085088  0  3.971718  0
C  C66  1  0.82643065  0.92884623  0.23467834  1  0  -0.149973  0  3.670457  0  0  -0.167827  0  3.919214  0  0  -0.175281  0  3.93874  0  0  -0.077156  -0.162953  0  3.90651  0
C  C67  1  0.17356883  0.07115383  0.76532191  1  0  -0.149962  0  3.670556  0  0  -0.167819  0  3.919312  0  0  -0.175275  0  3.93884  0  0  -0.077157  -0.16294  0  3.906602  0
C  C68  1  0.84062142  0.94445938  0.36751338  1  0  0.14111  0  3.787534  0  0  0.155  0  4.018561  0  0  0.160883  0  4.040794  0  0  0.010617  0.151192  0  4.003001  0
C  C69  1  0.15938155  0.05554163  0.63248816  1  0  0.141076  0  3.787675  0  0  0.154985  0  4.018669  0  0  0.16087  0  4.040904  0  0  0.010574  0.151176  0  4.003108  0
C  C70  1  0.70958172  0.91241715  0.42709694  1  0  -0.170497  0  3.675662  0  0  -0.18389  0  3.915702  0  0  -0.192475  0  3.935887  0  0  -0.082687  -0.178131  0  3.902434  0
C  C71  1  0.29041990  0.08757992  0.57290342  1  0  -0.17046  0  3.675688  0  0  -0.183869  0  3.915694  0  0  -0.192455  0  3.935876  0  0  -0.082684  -0.178112  0  3.902429  0
C  C72  1  0.57600206  0.86616076  0.35388983  1  0  0.124325  0  3.72435  0  0  0.093036  0  3.971296  0  0  0.100497  0  3.990522  0  0  0.038159  0.088327  0  3.958285  0
C  C73  1  0.42400080  0.13383822  0.64611480  1  0  0.124312  0  3.724122  0  0  0.093043  0  3.971093  0  0  0.100514  0  3.99031  0  0  0.038188  0.088342  0  3.958071  0
C  C74  1  0.98671435  0.99092244  0.43631527  1  0  -0.097012  0  3.682479  0  0  -0.115071  0  3.928829  0  0  -0.118818  0  3.94971  0  0  -0.079562  -0.112105  0  3.913997  0
C  C75  1  0.01328763  0.00908156  0.56368619  1  0  -0.09695  0  3.682488  0  0  -0.115026  0  3.928834  0  0  -0.118774  0  3.949713  0  0  -0.07952  -0.112055  0  3.914  0
N  N76  1  0.38416255  0.73017626  0.92278861  1  0  -0.348438  0  3.272427  0  0  -0.265674  0  3.539047  0  0  -0.287571  0  3.55825  0  0  -0.334862  -0.250874  0  3.5258  0
N  N77  1  0.61583928  0.26982475  0.07721381  1  0  -0.348442  0  3.272414  0  0  -0.265652  0  3.539025  0  0  -0.287549  0  3.558229  0  0  -0.334856  -0.250854  0  3.525788  0
N  N78  1  0.56426287  0.85104002  0.22614360  1  0  -0.354553  0  3.30344  0  0  -0.271034  0  3.571393  0  0  -0.29313  0  3.590504  0  0  -0.342635  -0.256138  0  3.557492  0
N  N79  1  0.43573535  0.14895802  0.77385971  1  0  -0.354531  0  3.303317  0  0  -0.271004  0  3.571259  0  0  -0.293101  0  3.590371  0  0  -0.342637  -0.256107  0  3.557354  0
O  O80  1  0.20627992  0.00702741  0.06254372  1  0  -0.635418  0  1.941931  0  0  -0.574844  0  2.180742  0  0  -0.60218  0  2.170776  0  0  -0.330365  -0.555503  0  2.186389  0
O  O81  1  0.79372297  0.99297166  0.93745450  1  0  -0.635457  0  1.941675  0  0  -0.574885  0  2.180495  0  0  -0.602221  0  2.170532  0  0  -0.330403  -0.555541  0  2.186139  0
O  O82  1  0.27842519  0.03993814  0.26893165  1  0  -0.644189  0  2.005067  0  0  -0.578016  0  2.24379  0  0  -0.606494  0  2.233973  0  0  -0.335228  -0.557684  0  2.249075  0
O  O83  1  0.72157440  0.96006392  0.73106734  1  0  -0.644241  0  2.005203  0  0  -0.578059  0  2.243917  0  0  -0.606536  0  2.234097  0  0  -0.335237  -0.557727  0  2.249203  0
O  O84  1  0.10051984  0.72118377  0.15329955  1  0  -0.646087  0  1.972927  0  0  -0.572981  0  2.21882  0  0  -0.604514  0  2.210277  0  0  -0.334749  -0.552073  0  2.224655  0
O  O85  1  0.89948198  0.27881722  0.84670379  1  0  -0.646099  0  1.972873  0  0  -0.572968  0  2.218708  0  0  -0.604499  0  2.21016  0  0  -0.334749  -0.552061  0  2.224548  0
O  O86  1  0.25838188  0.71262664  0.31837007  1  0  -0.657431  0  1.905794  0  0  -0.603645  0  2.134781  0  0  -0.629416  0  2.12519  0  0  -0.337235  -0.586012  0  2.141403  0
O  O87  1  0.74161844  0.28736743  0.68163215  1  0  -0.657414  0  1.905726  0  0  -0.603642  0  2.134688  0  0  -0.629411  0  2.125091  0  0  -0.337255  -0.586005  0  2.141306  0
