# generated using pymatgen
data_MnH10C10(N6O)2
_symmetry_space_group_name_H-M   'P 1'
_cell_length_a   3.46804743
_cell_length_b   13.92627369
_cell_length_c   14.55721494
_cell_angle_alpha   99.22145757
_cell_angle_beta   90.00085960
_cell_angle_gamma   89.99917531
_symmetry_Int_Tables_number   1
_chemical_formula_structural   MnH10C10(N6O)2
_chemical_formula_sum   'Mn2 H20 C20 N24 O4'
_cell_volume   693.98323870
_cell_formula_units_Z   2
loop_
 _symmetry_equiv_pos_site_id
 _symmetry_equiv_pos_as_xyz
  1  'x, y, z'
loop_
 _atom_site_type_symbol
 _atom_site_label
 _atom_site_symmetry_multiplicity
 _atom_site_fract_x
 _atom_site_fract_y
 _atom_site_fract_z
 _atom_site_occupancy
 _atom_site_hle17_ddec_charge
 _atom_site_hle17_ddec_spin_density
 _atom_site_hle17_ddec_sum_bond_order
 _atom_site_hle17_magmom
 _atom_site_hse06_10hf_ddec_charge
 _atom_site_hse06_10hf_ddec_spin_density
 _atom_site_hse06_10hf_ddec_sum_bond_order
 _atom_site_hse06_10hf_magmom
 _atom_site_hse06_ddec_charge
 _atom_site_hse06_ddec_spin_density
 _atom_site_hse06_ddec_sum_bond_order
 _atom_site_hse06_magmom
 _atom_site_pbe_cm5_charge
 _atom_site_pbe_ddec_charge
 _atom_site_pbe_ddec_spin_density
 _atom_site_pbe_ddec_sum_bond_order
 _atom_site_pbe_magmom
Mn  Mn0  1  0.91236954  0.49999977  0.75000038  1  0.973648  4.746478  2.031903  4.597  0.812018  4.65113  2.54121  4.439  0.865921  4.720602  2.486501  4.527  0.635964  0.769317  4.578278  2.582166  4.348
Mn  Mn1  1  0.08763623  0.50000476  0.24999803  1  0.973618  4.746468  2.031983  4.597  0.811849  4.651145  2.541389  4.439  0.865892  4.720548  2.486622  4.527  0.635933  0.769174  4.578282  2.582311  4.348
H  H2  1  0.74042166  0.29216554  0.61704591  1  0.100722  -6.5e-05  0.957442  0.0  0.101451  0.000243  1.030996  0.0  0.104305  0.000138  1.028874  0.0  0.127177  0.099278  0.000356  1.03266  0.001
H  H3  1  0.74040633  0.70783232  0.88295532  1  0.100841  -6.4e-05  0.957383  0.0  0.101489  0.000238  1.031041  0.0  0.104339  0.000138  1.028944  0.0  0.127162  0.099313  0.000357  1.032701  0.001
H  H4  1  0.25960719  0.70783246  0.38294937  1  0.100886  -6.4e-05  0.95737  0.0  0.101523  0.000244  1.03103  0.0  0.104372  0.000135  1.028911  0.0  0.127188  0.099344  0.000357  1.03268  0.001
H  H5  1  0.25961098  0.29216777  0.11704923  1  0.100899  -6.2e-05  0.957386  0.0  0.101499  0.000245  1.031074  0.0  0.104355  0.000136  1.02894  0.0  0.127198  0.09932  0.000357  1.032726  0.001
H  H6  1  0.20287470  0.18102986  0.89755633  1  0.108865  0.000213  0.93125  0.0  0.116572  0.000282  0.989952  0.0  0.120057  0.000234  0.988264  0.0  0.124507  0.113986  0.000354  0.991418  0.0
H  H7  1  0.20288437  0.81896889  0.60244516  1  0.108911  0.000212  0.931213  0.0  0.116635  0.000298  0.9899  0.0  0.120111  0.000233  0.988222  0.0  0.124525  0.114044  0.000354  0.991371  0.0
H  H8  1  0.79712531  0.81896443  0.10244590  1  0.108872  0.000212  0.931323  0.0  0.11661  0.000289  0.989992  0.0  0.120081  0.000236  0.988318  0.0  0.124515  0.114022  0.000354  0.99146  0.0
H  H9  1  0.79711852  0.18103563  0.39755462  1  0.108866  0.000213  0.931144  0.0  0.116632  0.000299  0.989803  0.0  0.120061  0.000236  0.98818  0.0  0.124514  0.114047  0.000354  0.99128  0.0
H  H10  1  0.19217150  0.35844560  0.88565142  1  0.097012  0.000549  0.986985  0.0  0.0953  0.001249  1.065615  0.0  0.098519  0.000916  1.062348  0.0  0.121959  0.092591  0.001629  1.068554  0.001
H  H11  1  0.19216053  0.64154581  0.61435638  1  0.096952  0.000548  0.987113  0.0  0.095252  0.001245  1.065711  0.0  0.098455  0.000916  1.062471  0.0  0.121975  0.092549  0.001629  1.068648  0.001
H  H12  1  0.80781698  0.64155456  0.11434696  1  0.096932  0.000548  0.987033  0.0  0.095242  0.00125  1.065681  0.0  0.098465  0.000908  1.062391  0.0  0.121932  0.092514  0.001629  1.06862  0.001
H  H13  1  0.80783371  0.35845646  0.38564853  1  0.09697  0.000549  0.987089  0.0  0.095259  0.001243  1.065725  0.0  0.098469  0.000909  1.062468  0.0  0.121963  0.092541  0.001629  1.068669  0.001
H  H14  1  0.64954825  0.95288456  0.55688227  1  0.34504  1.6e-05  0.91474  0.0  0.325453  2.1e-05  0.976095  0.0  0.335004  1.6e-05  0.968228  0.0  0.297925  0.318673  2.9e-05  0.981693  0.0
H  H15  1  0.64955500  0.04711211  0.94311913  1  0.345115  1.6e-05  0.914643  0.0  0.325498  2.2e-05  0.976041  0.0  0.335047  1.6e-05  0.968173  0.0  0.297922  0.318712  2.9e-05  0.981641  0.0
H  H16  1  0.35045464  0.04711926  0.44311396  1  0.345071  1.6e-05  0.914706  0.0  0.325499  2.5e-05  0.976048  0.0  0.335036  1.6e-05  0.968187  0.0  0.29792  0.318709  2.9e-05  0.98166  0.0
H  H17  1  0.35045654  0.95288434  0.05688483  1  0.345067  1.6e-05  0.914717  0.0  0.325471  2.2e-05  0.976087  0.0  0.335027  1.6e-05  0.968204  0.0  0.297915  0.318693  2.9e-05  0.98168  0.0
H  H18  1  0.87121165  0.98189399  0.66838842  1  0.317266  4e-06  0.940363  0.0  0.284585  9e-06  1.033761  0.0  0.293864  3e-06  1.024938  0.0  0.293536  0.278021  -0.0  1.039968  0.0
H  H19  1  0.87123329  0.01810355  0.83160705  1  0.317297  3e-06  0.940263  0.0  0.284581  2e-06  1.033705  0.0  0.293858  3e-06  1.024883  0.0  0.293492  0.278012  -0.0  1.039923  0.0
H  H20  1  0.12876818  0.01810324  0.33161086  1  0.317273  3e-06  0.940376  0.0  0.284584  7e-06  1.033789  0.0  0.293861  3e-06  1.024967  0.0  0.293514  0.278028  -0.0  1.040005  0.0
H  H21  1  0.12876383  0.98190392  0.16838910  1  0.317288  3e-06  0.94041  0.0  0.28456  0.0  1.033871  0.0  0.293845  3e-06  1.025038  0.0  0.293499  0.278004  -0.0  1.040087  0.0
C  C22  1  0.84508840  0.26877397  0.68038117  1  0.084025  0.000644  3.632002  0.001  0.043594  0.002809  3.887371  0.003  0.048749  0.002161  3.904661  0.002  0.064781  0.039632  0.003545  3.87668  0.003
C  C23  1  0.84508505  0.73122430  0.81962120  1  0.083913  0.000661  3.632012  0.001  0.043394  0.002837  3.887404  0.003  0.048548  0.002173  3.904669  0.002  0.064742  0.039457  0.003545  3.876687  0.003
C  C24  1  0.15490584  0.73122539  0.31962327  1  0.083755  0.000656  3.632009  0.001  0.043297  0.002812  3.887523  0.003  0.04849  0.002411  3.904742  0.002  0.064693  0.039353  0.003547  3.876794  0.003
C  C25  1  0.15491784  0.26877585  0.18037787  1  0.083829  0.000635  3.632275  0.001  0.043418  0.002815  3.887762  0.003  0.048614  0.002374  3.905015  0.002  0.064729  0.039491  0.003544  3.877016  0.003
C  C26  1  0.85866395  0.16967357  0.68621002  1  0.044868  0.000238  3.748905  0.0  0.054807  0.000143  3.994569  0.0  0.050579  -0.000209  4.014711  0.0  0.116288  0.05708  0.000816  3.981499  0.001
C  C27  1  0.85868618  0.83032321  0.81379147  1  0.04481  0.000215  3.748934  0.0  0.054887  0.000123  3.99442  0.0  0.050711  -0.000226  4.014516  0.0  0.116245  0.057185  0.000816  3.981331  0.001
C  C28  1  0.14131299  0.83032581  0.31379236  1  0.04497  0.000222  3.748696  0.0  0.054957  0.000126  3.994295  0.0  0.050764  -0.000519  4.014436  0.0  0.116283  0.057234  0.000816  3.981223  0.001
C  C29  1  0.14133978  0.16967913  0.18620727  1  0.044961  0.00024  3.748901  0.0  0.054795  0.000116  3.994651  0.0  0.050605  -0.000474  4.014792  0.0  0.116169  0.057101  0.000816  3.981559  0.001
C  C30  1  0.10204870  0.20528953  0.83389171  1  0.077156  -0.000212  3.644603  0.0  0.053615  -0.000357  3.901238  0.0  0.053575  -0.000544  3.917619  0.0  0.056782  0.053458  -0.000139  3.890512  0.0
C  C31  1  0.10206376  0.79470734  0.66610910  1  0.07716  -0.000231  3.64448  0.0  0.053584  -0.0004  3.901129  0.0  0.053531  -0.000557  3.917537  0.0  0.05681  0.05341  -0.000139  3.890428  0.0
C  C32  1  0.89795419  0.79470626  0.16610664  1  0.077172  -0.000227  3.644601  0.0  0.053623  -0.000359  3.90125  0.0  0.053579  -0.000867  3.917639  0.0  0.056809  0.053463  -0.00014  3.890524  0.0
C  C33  1  0.89794201  0.20529719  0.33388931  1  0.077217  -0.000208  3.64437  0.0  0.053625  -0.000414  3.901004  0.0  0.0536  -0.000821  3.917425  0.0  0.05685  0.053454  -0.000139  3.890306  0.0
C  C34  1  0.09139699  0.30445599  0.82833953  1  0.099033  0.000981  3.640473  0.001  0.066642  0.003749  3.898477  0.003  0.071553  0.002803  3.914641  0.003  0.066611  0.062999  0.005062  3.888162  0.004
C  C35  1  0.09140376  0.69553940  0.67166512  1  0.099137  0.001002  3.640662  0.001  0.066748  0.003776  3.898627  0.003  0.071653  0.002814  3.9148  0.003  0.066572  0.063072  0.005064  3.88834  0.004
C  C36  1  0.90860590  0.69553977  0.17166019  1  0.099172  0.000997  3.640432  0.001  0.066697  0.003753  3.89856  0.003  0.071603  0.00304  3.914714  0.003  0.066636  0.063063  0.005065  3.888226  0.004
C  C37  1  0.90859913  0.30446511  0.32833535  1  0.099101  0.000978  3.640558  0.001  0.066688  0.00378  3.898606  0.003  0.071587  0.003005  3.914763  0.003  0.066582  0.063032  0.005063  3.888303  0.004
C  C38  1  0.71801085  0.09796510  0.60458274  1  0.580236  0.000254  3.872328  0.0  0.527441  0.000265  4.1644  0.0  0.556871  0.000206  4.164579  0.0  0.236125  0.507798  0.000345  4.163529  0.0
C  C39  1  0.71802824  0.90202848  0.89541634  1  0.580353  0.000255  3.872158  0.0  0.527553  0.000271  4.164161  0.0  0.556974  0.00021  4.164318  0.0  0.23615  0.507903  0.000345  4.163287  0.0
C  C40  1  0.28196897  0.90203205  0.39542340  1  0.580377  0.000254  3.872003  0.0  0.527577  0.000273  4.164079  0.0  0.556977  0.000231  4.16429  0.0  0.236171  0.50794  0.000345  4.163194  0.0
C  C41  1  0.28199195  0.09797386  0.10458240  1  0.580134  0.000251  3.872272  0.0  0.527409  0.000285  4.164285  0.0  0.556812  0.000227  4.164481  0.0  0.236108  0.50775  0.000345  4.163412  0.0
N  N42  1  0.95899715  0.33622658  0.75177941  1  -0.271698  0.024779  3.222932  0.015  -0.204094  0.028704  3.494257  0.016  -0.220513  0.025991  3.511308  0.014  -0.293006  -0.192227  0.031587  3.482741  0.018
N  N43  1  0.95899326  0.66376916  0.74822227  1  -0.271808  0.024768  3.223064  0.015  -0.204081  0.0287  3.49428  0.016  -0.220482  0.025986  3.511333  0.014  -0.292982  -0.19222  0.031588  3.482774  0.018
N  N44  1  0.04100863  0.66377281  0.24822229  1  -0.271792  0.024772  3.223037  0.015  -0.2041  0.028698  3.494384  0.016  -0.220539  0.025787  3.511432  0.013  -0.293038  -0.192233  0.031587  3.482828  0.018
N  N45  1  0.04101828  0.33623027  0.25177599  1  -0.271782  0.024783  3.22323  0.015  -0.204074  0.028702  3.494452  0.016  -0.220481  0.02582  3.511516  0.014  -0.292996  -0.192189  0.031585  3.48289  0.018
N  N46  1  0.98555713  0.13771460  0.76324540  1  -0.276123  0.000161  3.095536  0.0  -0.23876  0.001583  3.352823  0.002  -0.244109  0.00119  3.367837  0.001  -0.287889  -0.23494  0.002439  3.34285  0.003
N  N47  1  0.98558998  0.86228325  0.73675672  1  -0.276045  0.000177  3.095325  0.0  -0.238746  0.001567  3.352606  0.002  -0.244093  0.001201  3.367617  0.001  -0.287817  -0.234914  0.002439  3.342628  0.003
N  N48  1  0.01441981  0.86228190  0.23675445  1  -0.276055  0.000172  3.095346  0.0  -0.238679  0.001576  3.352629  0.002  -0.244027  0.001388  3.36764  0.002  -0.28779  -0.234862  0.00244  3.342661  0.003
N  N49  1  0.01443309  0.13772126  0.26324306  1  -0.276123  0.00016  3.095384  0.0  -0.238727  0.001585  3.35276  0.002  -0.244077  0.001361  3.367775  0.002  -0.287797  -0.23492  0.002438  3.342798  0.003
N  N50  1  0.75591407  0.00398118  0.61056379  1  -0.65171  -0.0  3.1265  0.0  -0.611405  3.6e-05  3.372218  0.0  -0.63571  1.1e-05  3.36703  0.0  -0.558163  -0.594585  9.6e-05  3.375373  0.0
N  N51  1  0.75594003  0.99601447  0.88943576  1  -0.651844  1e-06  3.126142  0.0  -0.611516  3.5e-05  3.371956  0.0  -0.635801  6e-06  3.366765  0.0  -0.558132  -0.594687  9.6e-05  3.375117  0.0
N  N52  1  0.24405134  0.99602257  0.38943862  1  -0.651873  1e-06  3.126056  0.0  -0.611583  2.9e-05  3.371776  0.0  -0.635862  -2.6e-05  3.366605  0.0  -0.55818  -0.594752  9.6e-05  3.374946  0.0
N  N53  1  0.24406287  0.00398352  0.11056158  1  -0.651743  3e-06  3.12625  0.0  -0.611423  5.1e-05  3.372032  0.0  -0.635732  -2e-05  3.366845  0.0  -0.558101  -0.59462  9.7e-05  3.375194  0.0
N  N54  1  0.41789481  0.52170332  0.84550230  1  -0.608073  0.017957  2.809727  -0.006  -0.566706  0.035989  3.144487  0.001  -0.597776  0.02015  3.148949  -0.01  -0.309218  -0.54202  0.049978  3.140264  0.012
N  N55  1  0.41789875  0.47828824  0.65449673  1  -0.60815  0.017927  2.809995  -0.006  -0.566628  0.035966  3.144669  0.001  -0.597743  0.020103  3.149154  -0.01  -0.309242  -0.541986  0.049947  3.140461  0.012
N  N56  1  0.58210232  0.47829682  0.15449677  1  -0.608109  0.017942  2.809845  -0.006  -0.566569  0.035969  3.144515  0.001  -0.597764  0.01979  3.149028  -0.011  -0.309194  -0.541944  0.049962  3.140311  0.012
N  N57  1  0.58209838  0.52171338  0.34550120  1  -0.608006  0.017908  2.809909  -0.006  -0.566499  0.035941  3.144552  0.001  -0.59762  0.01978  3.149042  -0.011  -0.3092  -0.541806  0.049937  3.140323  0.012
N  N58  1  0.38999254  0.56877230  0.92274901  1  0.398555  -0.007338  4.188995  -0.005  0.430137  0.010972  4.473511  0.011  0.446593  0.003143  4.505309  0.004  0.092045  0.418288  0.017598  4.450434  0.016
N  N59  1  0.39000016  0.43122151  0.57725235  1  0.398635  -0.007361  4.188688  -0.005  0.43015  0.010956  4.473251  0.011  0.446595  0.003126  4.505062  0.004  0.092162  0.418299  0.017595  4.450177  0.016
N  N60  1  0.60999881  0.43122491  0.07725164  1  0.398619  -0.007348  4.188773  -0.005  0.43016  0.01096  4.473311  0.011  0.446594  0.002942  4.505117  0.004  0.0921  0.4183  0.017601  4.450233  0.016
N  N61  1  0.60999120  0.56877647  0.42274568  1  0.398575  -0.007375  4.188551  -0.005  0.430101  0.010956  4.47306  0.011  0.446545  0.00294  4.504872  0.004  0.092199  0.418257  0.017597  4.449982  0.016
N  N62  1  0.35846278  0.61518421  0.99639705  1  -0.353319  0.088681  2.416779  0.089  -0.355758  0.08881  2.654706  0.083  -0.363218  0.083746  2.665987  0.08  -0.167642  -0.34933  0.097163  2.64665  0.089
N  N63  1  0.35847715  0.38480685  0.50359756  1  -0.353374  0.088726  2.416241  0.089  -0.355826  0.08884  2.654207  0.083  -0.363246  0.083794  2.665489  0.08  -0.167733  -0.349359  0.097188  2.646166  0.089
N  N64  1  0.64152569  0.38480792  0.00360208  1  -0.353379  0.088708  2.416506  0.089  -0.355875  0.08883  2.65446  0.083  -0.363246  0.084177  2.665726  0.08  -0.167727  -0.349401  0.097176  2.646403  0.089
N  N65  1  0.64151421  0.61519109  0.49640321  1  -0.353456  0.088755  2.416133  0.089  -0.355857  0.08885  2.654076  0.083  -0.363327  0.084185  2.665362  0.08  -0.167844  -0.349475  0.097199  2.646046  0.089
O  O66  1  0.56846256  0.12963767  0.53680295  1  -0.578654  -9.5e-05  1.937331  0.0  -0.528891  -5.6e-05  2.157216  0.0  -0.551299  -8.4e-05  2.150989  0.0  -0.299785  -0.513355  4e-06  2.160877  0.0
O  O67  1  0.56848604  0.87035855  0.96319602  1  -0.57874  -9.4e-05  1.937354  0.0  -0.528942  -3.7e-05  2.157176  0.0  -0.551411  -8.3e-05  2.151036  0.0  -0.299821  -0.513426  5e-06  2.160831  0.0
O  O68  1  0.43153456  0.87036541  0.46319522  1  -0.578696  -9.5e-05  1.93754  0.0  -0.528909  -4.8e-05  2.157415  0.0  -0.551333  -0.000101  2.151221  0.0  -0.299813  -0.513391  5e-06  2.161061  0.0
O  O69  1  0.43153127  0.12963793  0.03680520  1  -0.57862  -9.1e-05  1.93756  0.0  -0.528813  -8.2e-05  2.157322  0.0  -0.551236  -9.9e-05  2.15118  0.0  -0.299765  -0.513267  4e-06  2.160968  0.0
