# generated using pymatgen
data_Zn2H7C22(N4F5)2
_symmetry_space_group_name_H-M   'P 1'
_cell_length_a   14.78922230
_cell_length_b   14.93338329
_cell_length_c   22.87893268
_cell_angle_alpha   89.27024892
_cell_angle_beta   89.50504305
_cell_angle_gamma   80.50677314
_symmetry_Int_Tables_number   1
_chemical_formula_structural   Zn2H7C22(N4F5)2
_chemical_formula_sum   'Zn8 H28 C88 N32 F40'
_cell_volume   4983.17135219
_cell_formula_units_Z   4
loop_
 _symmetry_equiv_pos_site_id
 _symmetry_equiv_pos_as_xyz
  1  'x, y, z'
loop_
 _atom_site_type_symbol
 _atom_site_label
 _atom_site_symmetry_multiplicity
 _atom_site_fract_x
 _atom_site_fract_y
 _atom_site_fract_z
 _atom_site_occupancy
 _atom_site_pbe_bader_charge
 _atom_site_pbe_bader_spin_density
 _atom_site_pbe_cm5_charge
 _atom_site_pbe_ddec_charge
 _atom_site_pbe_ddec_spin_density
 _atom_site_pbe_ddec_sum_bond_order
 _atom_site_pbe_magmom
Zn  Zn0  1  0.06552484  0.07167790  0.57299885  1  1.202684  0  0.753167  0.666061  0  2.411449  0
Zn  Zn1  1  0.93369766  0.90579901  0.57645259  1  1.204475  0  0.75416  0.671899  0  2.389492  0
Zn  Zn2  1  0.58237340  0.56755422  0.07047153  1  1.204151  0  0.752154  0.667708  0  2.401432  0
Zn  Zn3  1  0.43696584  0.41501139  0.07140555  1  1.209077  0  0.753817  0.674662  0  2.383058  0
Zn  Zn4  1  0.92987685  0.91126734  0.43313562  1  1.203832  0  0.752849  0.658303  0  2.415005  0
Zn  Zn5  1  0.07101203  0.06288622  0.42999559  1  1.202682  0  0.755352  0.668926  0  2.382757  0
Zn  Zn6  1  0.43460993  0.42420022  0.92839416  1  1.206532  0  0.752505  0.656853  0  2.419209  0
Zn  Zn7  1  0.58927154  0.56449773  0.92669381  1  1.203662  0  0.755079  0.666302  0  2.388493  0
H  H8  1  0.03420631  0.14160743  0.29435146  1  0.125815  0  0.127189  0.122407  0  0.98307  0
H  H9  1  0.87756053  0.17961256  0.78741595  1  0.106234  0  0.11009  0.136844  0  1.002929  0
H  H10  1  0.75180887  0.16011888  0.12515014  1  0.133261  0  0.110558  0.13791  0  1.004925  0
H  H11  1  0.40384118  0.68020182  0.28866881  1  0.139204  0  0.108223  0.136688  0  1.01582  0
H  H12  1  0.57039441  0.10277386  0.54727973  1  0.089807  0  0.11173  0.13311  0  0.98673  0
H  H13  1  0.42004449  0.18737437  0.54492759  1  0.067069  0  0.111453  0.132659  0  0.986152  0
H  H14  1  0.08770979  0.63548599  0.04681857  1  0.079584  0  0.11125  0.132023  0  0.98915  0
H  H15  1  0.93632727  0.68627226  0.04607918  1  0.068187  0  0.1108  0.132041  0  0.98813  0
H  H16  1  0.73810563  0.04073476  0.60009458  1  0.107372  0  0.120105  0.111727  0  0.989015  0
H  H17  1  0.25059924  0.16829350  0.59378382  1  0.11701  0  0.12362  0.113661  0  0.981658  0
H  H18  1  0.25393857  0.56475430  0.09680663  1  0.066356  0  0.119908  0.111847  0  0.990373  0
H  H19  1  0.07745457  0.72613047  0.41986937  1  0.158689  0  0.11894  0.112489  0  1.006744  0
H  H20  1  0.77116415  0.65605430  0.09369270  1  0.069791  0  0.123539  0.113962  0  0.982535  0
H  H21  1  0.75118135  0.06444015  0.41111900  1  0.131368  0  0.117418  0.112457  0  1.009786  0
H  H22  1  0.26606666  0.13337820  0.40618323  1  0.140631  0  0.119178  0.113483  0  1.002747  0
H  H23  1  0.26127827  0.58560776  0.90756631  1  0.118569  0  0.116523  0.111401  0  1.012336  0
H  H24  1  0.78281542  0.64326040  0.90470702  1  0.117697  0  0.119773  0.113461  0  1.002551  0
H  H25  1  0.90089709  0.23555084  0.59464095  1  0.116298  0  0.118363  0.111552  0  0.999527  0
H  H26  1  0.88405003  0.69615853  0.59963402  1  0.100135  0  0.126242  0.120487  0  0.982024  0
H  H27  1  0.42955328  0.74353523  0.09189119  1  0.119776  0  0.118399  0.111577  0  1.002835  0
H  H28  1  0.38567370  0.20762431  0.09238791  1  0.113438  0  0.126743  0.120448  0  0.976705  0
H  H29  1  0.55474381  0.64942813  0.79177813  1  0.121851  0  0.127711  0.122833  0  0.984321  0
H  H30  1  0.57087488  0.23222910  0.92100968  1  0.141234  0  0.117407  0.110689  0  1.019551  0
H  H31  1  0.77886043  0.43246655  0.41780170  1  0.106772  0  0.114452  0.128484  0  0.966824  0
H  H32  1  0.93216717  0.52635226  0.41156711  1  0.098142  0  0.111685  0.126372  0  0.97464  0
H  H33  1  0.28753477  0.93391320  0.92074946  1  0.102251  0  0.114532  0.128278  0  0.967741  0
H  H34  1  0.43173039  0.03639630  0.90038787  1  0.134978  0  0.111561  0.126753  0  0.974445  0
H  H35  1  0.26963837  0.67179599  0.62045810  1  0.128944  0  0.110916  0.137802  0  0.999392  0
C  C36  1  0.97391051  0.09751423  0.69580131  1  1.067782  0  0.207707  0.335588  0  4.117184  0
C  C37  1  0.29842387  0.16185913  0.49975576  1  0.027819  0  -0.033918  0.045494  0  4.099563  0
C  C38  1  0.21791604  0.59961901  0.00249602  1  0.05846  0  -0.034908  0.041562  0  4.102543  0
C  C39  1  0.81579739  0.66327416  0.99938747  1  0.064905  0  -0.033954  0.045904  0  4.11155  0
C  C40  1  0.89162528  0.28122256  0.50054756  1  0.079249  0  -0.047843  -0.144746  0  4.100385  0
C  C41  1  0.86873031  0.66200523  0.50510897  1  0.044892  0  -0.046229  -0.143531  0  4.109379  0
C  C42  1  0.41917481  0.78863381  0.99759242  1  0.092475  0  -0.047339  -0.142441  0  4.096491  0
C  C43  1  0.37734982  0.17238185  0.99752445  1  0.053216  0  -0.045855  -0.144615  0  4.103378  0
C  C44  1  0.81818119  0.45038886  0.45479283  1  -0.052218  0  -0.079014  -0.143075  0  3.638259  0
C  C45  1  0.90272982  0.50161157  0.45131863  1  -0.045616  0  -0.082617  -0.146322  0  3.65444  0
C  C46  1  0.33211336  0.95482941  0.95394708  1  -0.058805  0  -0.078982  -0.143376  0  3.635315  0
C  C47  1  0.12726336  0.79615923  0.58124321  1  1.048046  0  0.209177  0.34352  0  4.082266  0
C  C48  1  0.41157108  0.01115353  0.94270168  1  -0.076574  0  -0.081444  -0.145019  0  3.64911  0
C  C49  1  0.77777420  0.51307297  0.50623825  1  0.597348  0  0.101686  0.20606  0  3.724868  0
C  C50  1  0.95424219  0.43417535  0.49686058  1  0.597977  0  0.098625  0.200252  0  3.74817  0
C  C51  1  0.29868394  0.01671265  0.00714724  1  0.604424  0  0.102034  0.203307  0  3.733271  0
C  C52  1  0.47471954  0.94638268  0.98459914  1  0.586059  0  0.099783  0.200715  0  3.746955  0
C  C53  1  0.86256300  0.56554664  0.50321265  1  0.006532  0  -0.009337  -0.007175  0  3.749576  0
C  C54  1  0.87014450  0.38039907  0.50062589  1  -0.040485  0  -0.008128  -0.005758  0  3.749708  0
C  C55  1  0.37819334  0.07440882  0.99619851  1  0.01832  0  -0.009253  -0.001836  0  3.739766  0
C  C56  1  0.39587399  0.88776285  0.99638737  1  0.002247  0  -0.008669  -0.004376  0  3.744124  0
C  C57  1  0.91375247  0.49528873  0.54889294  1  0.581964  0  0.094067  0.122006  0  3.748735  0
C  C58  1  0.49257838  0.59676710  0.19441787  1  1.036861  0  0.206005  0.332593  0  4.114572  0
C  C59  1  0.82933843  0.44343473  0.55214318  1  0.582285  0  0.095464  0.124859  0  3.741258  0
C  C60  1  0.44144696  0.00701767  0.03846042  1  0.596807  0  0.094574  0.119943  0  3.752113  0
C  C61  1  0.36211359  0.95036270  0.04951055  1  0.574914  0  0.095441  0.125077  0  3.746233  0
C  C62  1  0.36594059  0.75080144  0.64368851  1  0.455721  0  0.075656  0.18282  0  4.128266  0
C  C63  1  0.80967269  0.08063951  0.82245712  1  0.42537  0  0.078028  0.187706  0  4.131495  0
C  C64  1  0.86264363  0.22511613  0.14047467  1  0.433479  0  0.074367  0.18331  0  4.12292  0
C  C65  1  0.32199607  0.58831529  0.31848688  1  0.485796  0  0.079788  0.191613  0  4.116296  0
C  C66  1  0.28754331  0.73949172  0.61692699  1  0.077577  0  -0.110775  -0.210407  0  4.063904  0
C  C67  1  0.86598749  0.10998141  0.78232405  1  0.106597  0  -0.111111  -0.210698  0  4.069403  0
C  C68  1  0.77897993  0.22277546  0.11774991  1  0.105655  0  -0.113997  -0.214558  0  4.065564  0
C  C69  1  0.62358999  0.29140833  0.07976686  1  1.040635  0  0.209079  0.343586  0  4.083  0
C  C70  1  0.38455399  0.61412058  0.28106095  1  0.062265  0  -0.116831  -0.221932  0  4.067967  0
C  C71  1  0.91161744  0.16280453  0.18271289  1  0.539049  0  0.065343  0.032779  0  4.099934  0
C  C72  1  0.26808869  0.64297463  0.36229476  1  0.523673  0  0.065818  0.031849  0  4.094314  0
C  C73  1  0.41861605  0.68956972  0.68488652  1  0.567908  0  0.06516  0.034703  0  4.104574  0
C  C74  1  0.75705900  0.13623478  0.86628669  1  0.569746  0  0.064111  0.03055  0  4.099242  0
C  C75  1  0.89293040  0.99676093  0.30883094  1  1.044078  0  0.209109  0.348767  0  4.089767  0
C  C76  1  0.20592770  0.88417728  0.41972179  1  1.049809  0  0.209926  0.35153  0  4.058339  0
C  C77  1  0.40315124  0.51511365  0.80642586  1  1.101487  0  0.210069  0.351691  0  4.090332  0
C  C78  1  0.71269644  0.37806466  0.92281732  1  1.071075  0  0.208993  0.350935  0  4.054184  0
C  C79  1  0.87759892  0.10601875  0.22089375  1  0.489874  0  0.082638  0.162687  0  4.097508  0
C  C80  1  0.92062732  0.06424809  0.27263412  1  0.101242  0  -0.049477  -0.195854  0  4.16413  0
C  C81  1  0.27332684  0.72844709  0.38027052  1  0.534151  0  0.082082  0.160921  0  4.088302  0
C  C82  1  0.38834406  0.62778754  0.72106133  1  0.508464  0  0.086107  0.167614  0  4.096939  0
C  C83  1  0.77107211  0.21704557  0.88805987  1  0.523328  0  0.081938  0.159713  0  4.091022  0
C  C84  1  0.55384182  0.14169501  0.46017859  1  0.482887  0  0.077839  0.163914  0  4.111736  0
C  C85  1  0.45431623  0.15915784  0.45782096  1  0.369622  0  0.076905  0.163849  0  4.107432  0
C  C86  1  0.06731521  0.66611861  0.95861550  1  0.338131  0  0.077844  0.16549  0  4.105436  0
C  C87  1  0.96773572  0.67932469  0.95714200  1  0.443551  0  0.078739  0.16784  0  4.102069  0
C  C88  1  0.60681106  0.11000707  0.50629587  1  0.020015  0  -0.106544  -0.243867  0  4.047856  0
C  C89  1  0.39311057  0.17380259  0.50231135  1  0.073044  0  -0.1089  -0.250366  0  4.051607  0
C  C90  1  0.12215958  0.63878849  0.00471849  1  0.083447  0  -0.108889  -0.247795  0  4.050429  0
C  C91  1  0.20357464  0.79192566  0.40857897  1  0.085932  0  -0.048306  -0.191931  0  4.145849  0
C  C92  1  0.90842323  0.68079498  0.00256701  1  0.072693  0  -0.109683  -0.252875  0  4.055328  0
C  C93  1  0.75644435  0.03844050  0.55397420  1  0.441969  0  0.012734  -0.048207  0  3.936948  0
C  C94  1  0.23906363  0.15718469  0.54780749  1  0.392706  0  0.015675  -0.044251  0  3.967147  0
C  C95  1  0.27053374  0.56088447  0.05044795  1  0.42831  0  0.012875  -0.046937  0  3.935909  0
C  C96  1  0.75915319  0.64918999  0.04731624  1  0.464754  0  0.013664  -0.049468  0  3.970306  0
C  C97  1  0.92621170  0.22677571  0.45342368  1  1.040009  0  0.202314  0.332791  0  4.087222  0
C  C98  1  0.87505535  0.72212134  0.45845230  1  1.035835  0  0.201467  0.327544  0  4.123705  0
C  C99  1  0.44998979  0.73269969  0.95043719  1  1.018111  0  0.201122  0.33126  0  4.087624  0
C  C100  1  0.38099615  0.23390417  0.95124932  1  1.024588  0  0.199645  0.324083  0  4.124642  0
C  C101  1  0.76317082  0.05109105  0.45734879  1  0.381407  0  0.013446  -0.041063  0  3.916079  0
C  C102  1  0.43335742  0.58218190  0.77103215  1  0.073801  0  -0.049928  -0.196292  0  4.160847  0
C  C103  1  0.24739481  0.13869767  0.45205441  1  0.42263  0  0.014131  -0.041216  0  3.953464  0
C  C104  1  0.27431846  0.57195801  0.95365850  1  0.414242  0  0.012824  -0.042706  0  3.917297  0
C  C105  1  0.76539744  0.64224663  0.95079097  1  0.429037  0  0.015362  -0.041162  0  3.952442  0
C  C106  1  0.91359196  0.22212547  0.54848380  1  0.436106  0  0.011667  -0.02848  0  3.972544  0
C  C107  1  0.88132513  0.71532405  0.55368118  1  0.481602  0  0.01824  -0.021717  0  4.000469  0
C  C108  1  0.44054889  0.72954534  0.04566788  1  0.424633  0  0.01165  -0.029978  0  3.975218  0
C  C109  1  0.38365599  0.22700261  0.04646181  1  0.468913  0  0.018791  -0.017864  0  4.003137  0
C  C110  1  0.99297915  0.08986580  0.30488261  1  0.503072  0  0.024897  -0.000521  0  3.975824  0
C  C111  1  0.11128020  0.78511289  0.42169689  1  0.429114  0  0.017953  -0.006702  0  3.945304  0
C  C112  1  0.51012712  0.60061963  0.80215596  1  0.447954  0  0.024132  -0.00071  0  3.971737  0
C  C113  1  0.70397531  0.28678498  0.91327538  1  0.037937  0  -0.047966  -0.188929  0  4.138825  0
C  C114  1  0.60927284  0.28791909  0.92296286  1  0.486568  0  0.017546  -0.007831  0  3.949618  0
C  C115  1  0.89632723  0.98749044  0.69975934  1  1.082395  0  0.209728  0.342608  0  4.103096  0
C  C116  1  0.21023754  0.90231065  0.58115974  1  1.066809  0  0.211118  0.349153  0  4.069939  0
C  C117  1  0.40341125  0.49632341  0.19543111  1  1.063864  0  0.207815  0.339881  0  4.101972  0
C  C118  1  0.71555402  0.38959641  0.08163435  1  1.047128  0  0.208533  0.347772  0  4.070965  0
C  C119  1  0.90933821  0.06409466  0.73214755  1  0.089711  0  -0.04832  -0.18256  0  4.147577  0
C  C120  1  0.21828140  0.80810031  0.59192063  1  0.127326  0  -0.047575  -0.180877  0  4.12729  0
C  C121  1  0.42407975  0.56805788  0.22983363  1  0.115394  0  -0.047631  -0.179568  0  4.146126  0
C  C122  1  0.71597388  0.29609661  0.09192595  1  0.15454  0  -0.048103  -0.182988  0  4.132371  0
C  C123  1  0.70363100  0.07439878  0.50539535  1  0.057535  0  -0.034756  0.042466  0  4.096373  0
N  N124  1  0.99727002  0.04797327  0.64859777  1  -0.822322  0  -0.280232  -0.281217  0  3.519596  0
N  N125  1  0.16048215  0.13198492  0.53044079  1  -0.787843  0  -0.279006  -0.193207  0  3.561556  0
N  N126  1  0.34987590  0.51278117  0.03124010  1  -0.784991  0  -0.283471  -0.192677  0  3.643862  0
N  N127  1  0.68254469  0.62130042  0.02894136  1  -0.816957  0  -0.275872  -0.186952  0  3.571844  0
N  N128  1  0.96525445  0.14354263  0.47045818  1  -0.825357  0  -0.286372  -0.302203  0  3.581286  0
N  N129  1  0.88955775  0.80321654  0.47603204  1  -0.826775  0  -0.280221  -0.291669  0  3.524281  0
N  N130  1  0.48646085  0.64864107  0.96747185  1  -0.840243  0  -0.28667  -0.303938  0  3.580568  0
N  N131  1  0.38874890  0.31682031  0.96938454  1  -0.772842  0  -0.280026  -0.292261  0  3.509906  0
N  N132  1  0.84293239  0.00358127  0.47648219  1  -0.812562  0  -0.284525  -0.188632  0  3.643547  0
N  N133  1  0.16594901  0.12073856  0.47065412  1  -0.811584  0  -0.278828  -0.18761  0  3.586285  0
N  N134  1  0.35190226  0.51929342  0.97182928  1  -0.79376  0  -0.28416  -0.183122  0  3.642673  0
N  N135  1  0.07169205  0.87296599  0.56735550  1  -0.820138  0  -0.289546  -0.294911  0  3.58367  0
N  N136  1  0.68661653  0.61708346  0.96878855  1  -0.799555  0  -0.277245  -0.184207  0  3.582756  0
N  N137  1  0.95749363  0.14060514  0.53015443  1  -0.765322  0  -0.287259  -0.191311  0  3.602751  0
N  N138  1  0.89365945  0.79874446  0.53636402  1  -0.778497  0  -0.273803  -0.172765  0  3.556955  0
N  N139  1  0.48054210  0.64668551  0.02727622  1  -0.76339  0  -0.285866  -0.189052  0  3.606152  0
N  N140  1  0.39053891  0.31222040  0.02983750  1  -0.837725  0  -0.27549  -0.179074  0  3.546489  0
N  N141  1  0.00548067  0.04186460  0.35476152  1  -0.775891  0  -0.271461  -0.16695  0  3.539077  0
N  N142  1  0.06550413  0.86640825  0.43779943  1  -0.815925  0  -0.281416  -0.178264  0  3.621519  0
N  N143  1  0.52246812  0.54929428  0.85080644  1  -0.789108  0  -0.269852  -0.166791  0  3.533854  0
N  N144  1  0.56807106  0.37234456  0.93581957  1  -0.794375  0  -0.281666  -0.175615  0  3.62925  0
N  N145  1  0.94686798  0.97710564  0.65109297  1  -0.802834  0  -0.278751  -0.281944  0  3.509193  0
N  N146  1  0.51107201  0.54909400  0.14588588  1  -0.822717  0  -0.281138  -0.282144  0  3.517881  0
N  N147  1  0.12498461  0.94062915  0.56703289  1  -0.794301  0  -0.290222  -0.294729  0  3.590435  0
N  N148  1  0.45341598  0.48431844  0.14663604  1  -0.792989  0  -0.278776  -0.283862  0  3.514348  0
N  N149  1  0.63303139  0.43378951  0.06615635  1  -0.793726  0  -0.289275  -0.294779  0  3.590276  0
N  N150  1  0.57400542  0.37123155  0.06519370  1  -0.820775  0  -0.290301  -0.295169  0  3.58331  0
N  N151  1  0.94249069  0.98296973  0.35742371  1  -0.834143  0  -0.277029  -0.287766  0  3.50363  0
N  N152  1  0.12407798  0.92838191  0.43655954  1  -0.766978  0  -0.281175  -0.292202  0  3.565112  0
N  N153  1  0.45497396  0.49527293  0.85356896  1  -0.819351  0  -0.277827  -0.289285  0  3.512274  0
N  N154  1  0.63200476  0.42885742  0.93559699  1  -0.806244  0  -0.282142  -0.29304  0  3.573189  0
N  N155  1  0.83907443  0.99628609  0.53582945  1  -0.784517  0  -0.282075  -0.188986  0  3.641455  0
F  F156  1  0.01113087  0.17247418  0.70442779  1  -0.631769  0  -0.085835  -0.131342  0  1.32505  0
F  F157  1  0.79130281  0.99414050  0.82084621  1  -0.613014  0  -0.106788  -0.129949  0  1.348559  0
F  F158  1  0.90513734  0.29861065  0.13054458  1  -0.612708  0  -0.108709  -0.132223  0  1.353672  0
F  F159  1  0.29730266  0.50474699  0.31329965  1  -0.610219  0  -0.106806  -0.130276  0  1.360322  0
F  F160  1  0.00139714  0.17175830  0.19034809  1  -0.616368  0  -0.099392  -0.113027  0  1.369241  0
F  F161  1  0.19406396  0.60727149  0.38240956  1  -0.613416  0  -0.098032  -0.109745  0  1.375981  0
F  F162  1  0.50639537  0.70440258  0.69381409  1  -0.613299  0  -0.102334  -0.116472  0  1.36281  0
F  F163  1  0.67497703  0.10962020  0.88012243  1  -0.611685  0  -0.100072  -0.113349  0  1.370102  0
F  F164  1  0.78892933  0.09328744  0.21373640  1  -0.615106  0  -0.092085  -0.119537  0  1.361005  0
F  F165  1  0.34917209  0.76372597  0.36309780  1  -0.619697  0  -0.089408  -0.116195  0  1.364363  0
F  F166  1  0.30107339  0.61136559  0.71312954  1  -0.616388  0  -0.092486  -0.120806  0  1.363723  0
F  F167  1  0.09463772  0.71768910  0.58567320  1  -0.629662  0  -0.079918  -0.123968  0  1.350996  0
F  F168  1  0.85487458  0.24179813  0.87779379  1  -0.615879  0  -0.092682  -0.11987  0  1.356372  0
F  F169  1  0.59470140  0.14987587  0.40678717  1  -0.621068  0  -0.107163  -0.135673  0  1.344324  0
F  F170  1  0.42283429  0.14674429  0.40270425  1  -0.616961  0  -0.10417  -0.133247  0  1.347677  0
F  F171  1  0.10632886  0.67081686  0.90440818  1  -0.6191  0  -0.104448  -0.133005  0  1.351609  0
F  F172  1  0.93497712  0.67630252  0.90146795  1  -0.618046  0  -0.103121  -0.132649  0  1.351464  0
F  F173  1  0.82589189  0.94803645  0.30022459  1  -0.627598  0  -0.085792  -0.133436  0  1.33759  0
F  F174  1  0.27697313  0.92880382  0.41416674  1  -0.633385  0  -0.080103  -0.127485  0  1.365723  0
F  F175  1  0.33179786  0.47179054  0.79844584  1  -0.630325  0  -0.086044  -0.135493  0  1.340584  0
F  F176  1  0.78824118  0.41636957  0.91922262  1  -0.625545  0  -0.080598  -0.126507  0  1.355552  0
F  F177  1  0.92491392  0.25082014  0.39643959  1  -0.637639  0  -0.090346  -0.13796  0  1.335364  0
F  F178  1  0.53759414  0.66598092  0.20501170  1  -0.635707  0  -0.086758  -0.130863  0  1.32219  0
F  F179  1  0.86984368  0.70650200  0.40078041  1  -0.63809  0  -0.092519  -0.145176  0  1.329527  0
F  F180  1  0.44693765  0.75615770  0.89334863  1  -0.641743  0  -0.089613  -0.136989  0  1.339243  0
F  F181  1  0.37912502  0.21818490  0.89340507  1  -0.643609  0  -0.091999  -0.144765  0  1.332932  0
F  F182  1  0.83901618  0.92842047  0.71057963  1  -0.636083  0  -0.08463  -0.130721  0  1.357066  0
F  F183  1  0.27542582  0.95445218  0.58327308  1  -0.641024  0  -0.07993  -0.123804  0  1.398441  0
F  F184  1  0.33991162  0.44302522  0.20445868  1  -0.628027  0  -0.08578  -0.131766  0  1.360416  0
F  F185  1  0.78482987  0.43643331  0.08603854  1  -0.627252  0  -0.079882  -0.124163  0  1.388336  0
F  F186  1  0.68858421  0.55412228  0.51120404  1  -0.625296  0  -0.121201  -0.159757  0  1.286749  0
F  F187  1  0.04238792  0.39012964  0.49213016  1  -0.628327  0  -0.115669  -0.15445  0  1.303846  0
F  F188  1  0.20971275  0.05335472  0.01869951  1  -0.630916  0  -0.121534  -0.159964  0  1.288096  0
F  F189  1  0.58464275  0.21654286  0.08333459  1  -0.63288  0  -0.077373  -0.123119  0  1.373405  0
F  F190  1  0.56293572  0.90719821  0.97311794  1  -0.629365  0  -0.11709  -0.155894  0  1.300258  0
F  F191  1  0.96072058  0.51995132  0.59555017  1  -0.625022  0  -0.111612  -0.138732  0  1.31072  0
F  F192  1  0.79156405  0.41412389  0.60212448  1  -0.628148  0  -0.1181  -0.143703  0  1.29714  0
F  F193  1  0.49502613  0.03536768  0.08037361  1  -0.628386  0  -0.1107  -0.136265  0  1.322076  0
F  F194  1  0.33652710  0.91958124  0.10268179  1  -0.627505  0  -0.117255  -0.143307  0  1.298187  0
F  F195  1  0.39709135  0.83206969  0.63975162  1  -0.610749  0  -0.112863  -0.137906  0  1.350453  0
