# generated using pymatgen
data_Zr3H22C32O21
_symmetry_space_group_name_H-M   'P 1'
_cell_length_a   14.88775404
_cell_length_b   14.84249342
_cell_length_c   14.85148347
_cell_angle_alpha   59.75371970
_cell_angle_beta   59.86530106
_cell_angle_gamma   59.87552060
_symmetry_Int_Tables_number   1
_chemical_formula_structural   Zr3H22C32O21
_chemical_formula_sum   'Zr6 H44 C64 O42'
_cell_volume   2311.66946149
_cell_formula_units_Z   2
loop_
 _symmetry_equiv_pos_site_id
 _symmetry_equiv_pos_as_xyz
  1  'x, y, z'
loop_
 _atom_site_type_symbol
 _atom_site_label
 _atom_site_symmetry_multiplicity
 _atom_site_fract_x
 _atom_site_fract_y
 _atom_site_fract_z
 _atom_site_occupancy
 _atom_site_pbe_bader_charge
 _atom_site_pbe_bader_spin_density
 _atom_site_pbe_cm5_charge
 _atom_site_pbe_ddec_charge
 _atom_site_pbe_ddec_spin_density
 _atom_site_pbe_ddec_sum_bond_order
 _atom_site_pbe_magmom
Zr  Zr0  1  0.88174225  0.37855500  0.62099167  1  2.626836  0  1.632725  2.367684  0  2.765913  0
Zr  Zr1  1  0.11916113  0.61761957  0.38218071  1  2.636624  0  1.632433  2.367543  0  2.752213  0
Zr  Zr2  1  0.11836401  0.37885798  0.62216018  1  2.631483  0  1.630266  2.365314  0  2.762363  0
Zr  Zr3  1  0.88229084  0.61688655  0.38195759  1  2.63331  0  1.633633  2.369726  0  2.750387  0
Zr  Zr4  1  0.88214139  0.61566120  0.62134756  1  2.633095  0  1.634167  2.365196  0  2.774181  0
Zr  Zr5  1  0.11946289  0.37775940  0.38499401  1  2.633826  0  1.633483  2.364449  0  2.77526  0
H  H6  1  0.90719890  0.40423228  0.78456841  1  0.598135  0  0.331255  0.422513  0  0.863734  0
H  H7  1  0.90799674  0.77931978  0.40732464  1  0.62357  0  0.330263  0.421254  0  0.863731  0
H  H8  1  0.28134270  0.40379626  0.41000267  1  0.607772  0  0.332521  0.425471  0  0.854079  0
H  H9  1  0.90819396  0.40327979  0.40834275  1  0.619148  0  0.334419  0.427109  0  0.85397  0
H  H10  1  0.55417753  0.74957709  0.88707419  1  0.063639  0  0.096022  0.110803  0  0.99604  0
H  H11  1  0.63776253  0.64696603  0.97193027  1  0.045024  0  0.094224  0.101828  0  1.007963  0
H  H12  1  0.46962287  0.64794728  0.14078683  1  0.065477  0  0.095074  0.108983  0  0.992935  0
H  H13  1  0.38499751  0.74827426  0.05711068  1  0.051376  0  0.096742  0.106037  0  0.990483  0
H  H14  1  0.23994775  0.06793396  0.29296049  1  0.038404  0  0.092502  0.098669  0  1.018055  0
H  H15  1  0.13201305  0.14518996  0.23561386  1  0.096296  0  0.094843  0.109974  0  1.002361  0
H  H16  1  0.14000606  0.97111559  0.23874787  1  0.043845  0  0.096565  0.10743  0  0.980912  0
H  H17  1  0.24405391  0.89241281  0.30225497  1  0.066223  0  0.096219  0.110674  0  0.99204  0
H  H18  1  0.53002860  0.85956009  0.34622932  1  0.067965  0  0.095432  0.113975  0  1.004744  0
H  H19  1  0.61507321  0.94473981  0.25600238  1  0.053862  0  0.0952  0.10724  0  0.99704  0
H  H20  1  0.44580334  0.11391919  0.25611816  1  0.062653  0  0.095821  0.109127  0  0.989952  0
H  H21  1  0.36171085  0.02798801  0.34870436  1  0.043827  0  0.095643  0.105535  0  1.006691  0
H  H22  1  0.85786922  0.76592358  0.02900785  1  0.037417  0  0.098054  0.110659  0  0.977302  0
H  H23  1  0.76259622  0.69188891  0.11090185  1  0.032496  0  0.095089  0.106701  0  0.990282  0
H  H24  1  0.76286166  0.69959797  0.93803663  1  0.045253  0  0.091027  0.096278  0  1.019268  0
H  H25  1  0.86013591  0.77092448  0.85709984  1  0.097674  0  0.095424  0.114576  0  1.018844  0
H  H26  1  0.81104135  0.26392450  0.93369792  1  0.062703  0  0.093503  0.091402  0  1.051163  0
H  H27  1  0.65344303  0.26760416  0.10543122  1  0.079866  0  0.097437  0.093503  0  1.01329  0
H  H28  1  0.81236381  0.92653273  0.26811158  1  0.060886  0  0.095541  0.094478  0  1.051683  0
H  H29  1  0.65457615  0.09745832  0.27417665  1  0.07492  0  0.098862  0.095924  0  1.017004  0
H  H30  1  0.54200842  0.32054522  0.76292331  1  0.086718  0  0.09633  0.114644  0  1.005206  0
H  H31  1  0.62695640  0.24057601  0.67267844  1  0.055106  0  0.095649  0.108628  0  0.987773  0
H  H32  1  0.45794904  0.24167738  0.67322653  1  0.065921  0  0.093584  0.107427  0  0.998159  0
H  H33  1  0.37381804  0.32145313  0.76359447  1  0.069  0  0.09643  0.112599  0  0.994196  0
H  H34  1  0.33498263  0.36032775  0.14316864  1  0.644204  0  0.3106  0.348792  0  0.971246  0
H  H35  1  0.63916484  0.36379221  0.83311497  1  0.650586  0  0.313653  0.352018  0  0.964184  0
H  H36  1  0.86564270  0.83028192  0.66442067  1  0.64368  0  0.312276  0.353817  0  0.962012  0
H  H37  1  0.87079183  0.13276426  0.66818557  1  0.637508  0  0.312007  0.353903  0  0.964124  0
H  H38  1  0.34572418  0.14864904  0.65532892  1  0.645537  0  0.313434  0.351984  0  0.965566  0
H  H39  1  0.65024283  0.83829950  0.65701254  1  0.631486  0  0.31051  0.349355  0  0.972892  0
H  H40  1  0.14992958  0.34826300  0.84830689  1  0.632993  0  0.311214  0.350726  0  0.970947  0
H  H41  1  0.15004815  0.34433281  0.15698693  1  0.635704  0  0.31158  0.348961  0  0.969096  0
H  H42  1  0.33704731  0.65576137  0.36392377  1  0.639745  0  0.310789  0.35122  0  0.971693  0
H  H43  1  0.64647810  0.65299774  0.36151214  1  0.641401  0  0.311378  0.35066  0  0.971425  0
H  H44  1  0.19773383  0.75881648  0.93343647  1  0.029667  0  0.096451  0.131712  0  0.986748  0
H  H45  1  0.19269086  0.72837253  0.06772921  1  0.07195  0  0.093429  0.138106  0  1.037037  0
H  H46  1  0.26969985  0.81128955  0.94986912  1  0.0543  0  0.098128  0.137309  0  0.993585  0
H  H47  1  0.26100948  0.98525441  0.79786391  1  0.053106  0  0.097809  0.140473  0  0.998178  0
H  H48  1  0.17075770  0.05656809  0.72091820  1  0.039711  0  0.092692  0.133609  0  1.013592  0
H  H49  1  0.21363136  0.91026050  0.77875064  1  0.051035  0  0.095791  0.131173  0  0.996433  0
C  C50  1  0.69170636  0.50497280  0.80141088  1  1.493664  0  0.234062  0.656291  0  4.087767  0
C  C51  1  0.00506579  0.79914777  0.50214238  1  1.478991  0  0.235407  0.660221  0  4.081789  0
C  C52  1  0.30112204  0.50260537  0.19494809  1  1.459625  0  0.234465  0.656583  0  4.087326  0
C  C53  1  0.00735354  0.18975592  0.50233159  1  1.483088  0  0.233648  0.657823  0  4.085875  0
C  C54  1  0.00196530  0.19060407  0.80262319  1  1.551958  0  0.243358  0.668623  0  4.071748  0
C  C55  1  0.69298981  0.49711079  0.50901537  1  1.484851  0  0.235352  0.660531  0  4.074472  0
C  C56  1  0.00421395  0.79739448  0.19372120  1  1.532025  0  0.244033  0.666745  0  4.069607  0
C  C57  1  0.29957286  0.49886036  0.51056987  1  1.495601  0  0.234409  0.660223  0  4.075631  0
C  C58  1  0.00277314  0.50543313  0.80190402  1  1.467697  0  0.235705  0.660591  0  4.078265  0
C  C59  1  0.30075534  0.18936899  0.50559702  1  1.470149  0  0.234032  0.654495  0  4.091874  0
C  C60  1  0.00484926  0.50232753  0.19416244  1  1.490863  0  0.23415  0.659284  0  4.079159  0
C  C61  1  0.69250854  0.79670056  0.50488696  1  1.480944  0  0.235012  0.659439  0  4.082942  0
C  C62  1  0.59110824  0.50639684  0.89828472  1  0.014846  0  -0.035836  -0.226719  0  4.022657  0
C  C63  1  0.39795038  0.50436721  0.09436673  1  0.018811  0  -0.036834  -0.229654  0  4.025545  0
C  C64  1  0.54544909  0.58068144  0.95462012  1  -0.018929  0  -0.021745  0.048637  0  3.949443  0
C  C65  1  0.44147489  0.42859857  0.03919664  1  0.562304  0  0.089215  0.204639  0  4.016139  0
C  C66  1  0.45309602  0.57981764  0.04832646  1  0.015219  0  -0.020883  0.049509  0  3.951517  0
C  C67  1  0.53669962  0.42998605  0.94180890  1  0.544985  0  0.09096  0.205713  0  4.019529  0
C  C68  1  0.56165336  0.67205694  0.95756147  1  -0.012136  0  -0.151752  -0.192215  0  3.872871  0
C  C69  1  0.45566397  0.67135040  0.06472113  1  -0.028936  0  -0.150794  -0.191024  0  3.870128  0
C  C70  1  0.00670296  0.09137052  0.50232089  1  -0.004909  0  -0.035502  -0.228045  0  4.023274  0
C  C71  1  0.00567570  0.89712032  0.50279254  1  -0.019072  0  -0.036391  -0.227352  0  4.030713  0
C  C72  1  0.07713730  0.04911774  0.41437125  1  -0.018041  0  -0.022393  0.046031  0  3.947027  0
C  C73  1  0.93186068  0.93908227  0.59140409  1  0.582568  0  0.089817  0.206814  0  4.01391  0
C  C74  1  0.07753954  0.95538460  0.41537950  1  0.013506  0  -0.020647  0.052857  0  3.951019  0
C  C75  1  0.93329015  0.03421594  0.59207562  1  0.59049  0  0.088762  0.206913  0  4.01767  0
C  C76  1  0.16224736  0.06993985  0.29948933  1  -0.036297  0  -0.152293  -0.188765  0  3.868766  0
C  C77  1  0.16524870  0.96054785  0.30240317  1  -0.020478  0  -0.150935  -0.191901  0  3.872555  0
C  C78  1  0.59196399  0.89362032  0.50746893  1  0.000578  0  -0.035744  -0.22766  0  4.017678  0
C  C79  1  0.39836882  0.08939275  0.50709936  1  0.019049  0  -0.036451  -0.227254  0  4.026442  0
C  C80  1  0.53940345  0.94309573  0.42908556  1  -0.042346  0  -0.019959  0.050747  0  3.949111  0
C  C81  1  0.44911618  0.04120658  0.58764585  1  0.593692  0  0.089656  0.205118  0  4.014115  0
C  C82  1  0.44684565  0.03672849  0.42902823  1  0.011816  0  -0.021385  0.046168  0  3.95544  0
C  C83  1  0.54428849  0.94387778  0.58843212  1  0.550904  0  0.088519  0.206575  0  4.01331  0
C  C84  1  0.54259068  0.93387482  0.33022077  1  -0.015474  0  -0.153302  -0.1957  0  3.858663  0
C  C85  1  0.43642900  0.04080812  0.33056506  1  -0.024389  0  -0.151599  -0.193097  0  3.875301  0
C  C86  1  0.00763188  0.50460644  0.09311731  1  -0.053337  0  -0.037021  -0.22854  0  4.034335  0
C  C87  1  0.00678500  0.50758988  0.89744947  1  -0.01875  0  -0.036079  -0.227961  0  4.015273  0
C  C88  1  0.93281851  0.59032894  0.03770735  1  0.07358  0  -0.020858  0.050639  0  3.955154  0
C  C89  1  0.08486632  0.42070413  0.95040019  1  0.590743  0  0.089071  0.207017  0  4.010396  0
C  C90  1  0.93245625  0.59221269  0.94396845  1  -0.003387  0  -0.021472  0.04893  0  3.940294  0
C  C91  1  0.08494605  0.41911837  0.04734394  1  0.576304  0  0.089632  0.207146  0  4.015088  0
C  C92  1  0.83817297  0.69835843  0.03950185  1  0.019624  0  -0.151248  -0.190477  0  3.875731  0
C  C93  1  0.83875427  0.70176578  0.93117082  1  -0.035442  0  -0.154193  -0.192521  0  3.866017  0
C  C94  1  0.00165618  0.08832646  0.90272489  1  -0.034183  0  -0.013299  -0.142773  0  3.914901  0
C  C95  1  0.90744664  0.09292737  0.00081989  1  -0.031719  0  -0.00299  0.060977  0  3.98008  0
C  C96  1  0.09233413  0.99237172  0.89834714  1  0.038652  0  0.001058  0.105335  0  3.915577  0
C  C97  1  0.81382380  0.19025568  0.00710801  1  -0.026164  0  -0.097179  -0.133416  0  3.983342  0
C  C98  1  0.72481269  0.19224253  0.10329903  1  -0.076153  0  -0.093588  -0.073293  0  4.026869  0
C  C99  1  0.00357763  0.89821951  0.09176563  1  -0.035866  0  -0.012189  -0.14086  0  3.903601  0
C  C100  1  0.09395062  0.89565295  0.99513873  1  0.018678  0  0.002012  0.105624  0  3.91233  0
C  C101  1  0.90811537  0.99546124  0.09733331  1  0.025938  0  -0.003008  0.059106  0  3.980024  0
C  C102  1  0.81481892  0.00056402  0.19508962  1  -0.031885  0  -0.097009  -0.136869  0  3.986436  0
C  C103  1  0.72540488  0.09643102  0.19829006  1  -0.050122  0  -0.093529  -0.081132  0  4.032391  0
C  C104  1  0.59257277  0.49888352  0.51080623  1  -0.018882  0  -0.036701  -0.227656  0  4.01685  0
C  C105  1  0.39686468  0.50022461  0.51190616  1  -0.011516  0  -0.036391  -0.228421  0  4.019794  0
C  C106  1  0.54314889  0.41706722  0.58967415  1  0.024138  0  -0.020781  0.050784  0  3.942707  0
C  C107  1  0.44421176  0.58451223  0.43161128  1  0.57968  0  0.08589  0.204771  0  4.014298  0
C  C108  1  0.44968913  0.41773426  0.59015173  1  -0.047255  0  -0.019569  0.0527  0  3.942813  0
C  C109  1  0.54090432  0.58366351  0.43093257  1  0.584271  0  0.087181  0.204835  0  4.010304  0
C  C110  1  0.55278195  0.31160723  0.68873586  1  -0.033306  0  -0.152402  -0.193039  0  3.86069  0
C  C111  1  0.44603055  0.31230588  0.68916355  1  -0.024778  0  -0.152107  -0.190067  0  3.860774  0
C  C112  1  0.19309066  0.79286578  0.98719023  1  -0.075434  0  -0.239243  -0.41136  0  3.960243  0
C  C113  1  0.18885682  0.98631719  0.79338158  1  -0.0643  0  -0.239856  -0.408546  0  3.962293  0
O  O114  1  0.73283745  0.42704117  0.76098621  1  -1.188103  0  -0.354754  -0.6388  0  2.330844  0
O  O115  1  0.07925248  0.75922450  0.42549656  1  -1.17494  0  -0.350865  -0.59925  0  2.271056  0
O  O116  1  0.26183395  0.57655935  0.23751613  1  -1.176326  0  -0.350221  -0.604272  0  2.275034  0
O  O117  1  0.93173097  0.22894752  0.58144108  1  -1.189134  0  -0.355095  -0.636778  0  2.322856  0
O  O118  1  0.07700545  0.23135295  0.76488155  1  -1.180353  0  -0.353014  -0.61884  0  2.246266  0
O  O119  1  0.73405343  0.57464886  0.43081093  1  -1.190189  0  -0.351635  -0.635923  0  2.311818  0
O  O120  1  0.92835833  0.75683823  0.23429567  1  -1.167947  0  -0.353229  -0.620161  0  2.283001  0
O  O121  1  0.26017394  0.42127261  0.58437726  1  -1.190316  0  -0.353995  -0.606639  0  2.260682  0
O  O122  1  0.92625838  0.57989695  0.76178939  1  -1.178664  0  -0.35136  -0.604133  0  2.260375  0
O  O123  1  0.26072212  0.23125461  0.42920899  1  -1.172557  0  -0.350298  -0.600403  0  2.2723  0
O  O124  1  0.08112437  0.42340727  0.23638493  1  -1.194587  0  -0.358349  -0.640615  0  2.320269  0
O  O125  1  0.73492924  0.75731719  0.58080565  1  -1.184058  0  -0.357078  -0.637337  0  2.32957  0
O  O126  1  0.26049357  0.23084892  0.58251002  1  -1.192296  0  -0.354855  -0.639926  0  2.330843  0
O  O127  1  0.92759485  0.57618280  0.23674167  1  -1.186027  0  -0.350325  -0.598875  0  2.269891  0
O  O128  1  0.73460499  0.75723691  0.42797324  1  -1.177651  0  -0.348138  -0.600858  0  2.271379  0
O  O129  1  0.07723597  0.42503484  0.76372004  1  -1.181474  0  -0.357604  -0.63871  0  2.325075  0
O  O130  1  0.92580908  0.23180882  0.76217593  1  -1.182403  0  -0.357224  -0.623147  0  2.276808  0
O  O131  1  0.25927076  0.57647529  0.43239763  1  -1.187451  0  -0.352141  -0.635191  0  2.312252  0
O  O132  1  0.07881757  0.75952697  0.23498945  1  -1.17272  0  -0.351938  -0.620686  0  2.26831  0
O  O133  1  0.73615376  0.41954871  0.58282751  1  -1.179303  0  -0.354316  -0.607264  0  2.259272  0
O  O134  1  0.08096338  0.23290252  0.42483577  1  -1.178244  0  -0.353935  -0.604049  0  2.267019  0
O  O135  1  0.73495034  0.57809737  0.76284158  1  -1.175383  0  -0.350467  -0.599666  0  2.268503  0
O  O136  1  0.92740324  0.75834148  0.57987495  1  -1.186131  0  -0.357991  -0.641327  0  2.319679  0
O  O137  1  0.26062535  0.42473902  0.23610222  1  -1.188771  0  -0.35598  -0.63781  0  2.321301  0
O  O138  1  0.93404489  0.43005142  0.43553407  1  -1.240749  0  -0.697034  -1.070403  0  2.370211  0
O  O139  1  0.20147400  0.43041870  0.43603177  1  -1.233344  0  -0.695185  -1.069664  0  2.358474  0
O  O140  1  0.93328095  0.69910587  0.43449268  1  -1.251221  0  -0.695241  -1.070415  0  2.367344  0
O  O141  1  0.93255944  0.43068167  0.70441308  1  -1.228271  0  -0.697161  -1.071525  0  2.373774  0
O  O142  1  0.04972454  0.54702492  0.55163729  1  -1.19922  0  -0.794235  -1.146125  0  2.139908  0
O  O143  1  0.85298473  0.54674086  0.55141242  1  -1.198021  0  -0.793133  -1.147099  0  2.133141  0
O  O144  1  0.05027578  0.54697538  0.35396782  1  -1.197921  0  -0.79197  -1.148201  0  2.134583  0
O  O145  1  0.05003216  0.34860186  0.55271571  1  -1.198016  0  -0.795541  -1.148163  0  2.146871  0
O  O146  1  0.39787105  0.35136450  0.07410563  1  -1.129957  0  -0.341171  -0.402417  0  2.296951  0
O  O147  1  0.57044752  0.35451060  0.89654029  1  -1.138326  0  -0.335931  -0.403008  0  2.314567  0
O  O148  1  0.85719175  0.89297818  0.67948294  1  -1.135353  0  -0.336271  -0.405724  0  2.323663  0
O  O149  1  0.86149397  0.06435986  0.68204534  1  -1.126354  0  -0.341863  -0.405186  0  2.284763  0
O  O150  1  0.41220107  0.08274468  0.66721894  1  -1.133993  0  -0.339982  -0.409941  0  2.307838  0
O  O151  1  0.58455717  0.90473916  0.66948860  1  -1.119245  0  -0.341937  -0.406391  0  2.298912  0
O  O152  1  0.16170387  0.33475649  0.91517278  1  -1.129799  0  -0.340639  -0.405389  0  2.294434  0
O  O153  1  0.16094775  0.33148016  0.09192039  1  -1.134515  0  -0.338638  -0.403974  0  2.315395  0
O  O154  1  0.40249196  0.66895423  0.35172483  1  -1.135998  0  -0.344643  -0.419239  0  2.305597  0
O  O155  1  0.57911297  0.66721144  0.35022590  1  -1.133973  0  -0.34299  -0.41576  0  2.313612  0
