# generated using pymatgen
data_Co3H24C30(NO5)2
_symmetry_space_group_name_H-M   'P 1'
_cell_length_a   14.90608096
_cell_length_b   17.67221503
_cell_length_c   17.66502485
_cell_angle_alpha   90.00420442
_cell_angle_beta   90.00086847
_cell_angle_gamma   90.63298337
_symmetry_Int_Tables_number   1
_chemical_formula_structural   Co3H24C30(NO5)2
_chemical_formula_sum   'Co12 H96 C120 N8 O40'
_cell_volume   4653.09812528
_cell_formula_units_Z   4
loop_
 _symmetry_equiv_pos_site_id
 _symmetry_equiv_pos_as_xyz
  1  'x, y, z'
loop_
 _atom_site_type_symbol
 _atom_site_label
 _atom_site_symmetry_multiplicity
 _atom_site_fract_x
 _atom_site_fract_y
 _atom_site_fract_z
 _atom_site_occupancy
 _atom_site_pbe_bader_charge
 _atom_site_pbe_bader_spin_density
 _atom_site_pbe_cm5_charge
 _atom_site_pbe_ddec_charge
 _atom_site_pbe_ddec_spin_density
 _atom_site_pbe_ddec_sum_bond_order
 _atom_site_pbe_magmom
Co  Co0  1  0.96574345  0.89559963  0.15104750  1  1.284176  2.613866  0.667504  0.919377  2.844661  2.489403  2.584
Co  Co1  1  0.96487241  0.10442398  0.84898351  1  1.284534  2.61453  0.668264  0.922157  2.844306  2.48636  2.585
Co  Co2  1  0.03333144  0.15067482  0.10407183  1  1.283542  2.614402  0.667708  0.922413  2.844756  2.481727  2.586
Co  Co3  1  0.03250821  0.85074138  0.89505027  1  1.28406  2.616083  0.668905  0.92784  2.846364  2.476652  2.587
Co  Co4  1  0.46577707  0.89560685  0.84893639  1  1.283997  2.613877  0.667458  0.919233  2.844755  2.489327  2.584
Co  Co5  1  0.46487406  0.10441770  0.15095587  1  1.284312  2.614608  0.668119  0.921694  2.84422  2.487042  2.586
Co  Co6  1  0.53333678  0.15069251  0.89592497  1  1.283646  2.614396  0.667425  0.921957  2.844781  2.481515  2.586
Co  Co7  1  0.53244344  0.85082400  0.10494923  1  1.283813  2.616108  0.668665  0.927314  2.846575  2.477103  2.587
Co  Co8  1  0.75101879  0.85014380  0.14622705  1  1.256262  2.596797  0.661474  0.96939  2.786875  2.552155  2.542
Co  Co9  1  0.74946154  0.14598449  0.85367827  1  1.245975  2.599287  0.663585  0.97186  2.78685  2.553931  2.543
Co  Co10  1  0.24951920  0.14604263  0.14628241  1  1.245451  2.599227  0.663571  0.971702  2.786543  2.553702  2.543
Co  Co11  1  0.25103049  0.85016994  0.85374174  1  1.256519  2.596843  0.661548  0.969585  2.786994  2.552192  2.542
H  H12  1  0.76754506  0.02014334  0.10912061  1  0.069338  0.007342  0.110629  0.068818  0.002803  0.958949  0.004
H  H13  1  0.73688434  0.99197204  0.24768122  1  0.038039  0.00014  0.08864  0.126499  -8.5e-05  1.036184  0.0
H  H14  1  0.77217928  0.08756805  0.22981810  1  0.051458  0.001242  0.095118  0.138315  0.00051  0.995349  0.0
H  H15  1  0.84877295  0.02064502  0.26913789  1  0.037132  -4e-05  0.086319  0.121798  -0.000277  1.021233  0.0
H  H16  1  0.05274893  0.67518037  0.12278916  1  0.088609  0.000173  0.108676  0.116908  3e-06  0.998457  0.0
H  H17  1  0.09174266  0.54009693  0.10196025  1  0.031059  0.000234  0.099503  0.096987  0.00014  1.008199  0.0
H  H18  1  0.81168258  0.47851893  0.11914788  1  0.03874  0.000205  0.099697  0.098615  0.000125  1.008733  0.0
H  H19  1  0.77392962  0.61428151  0.13682880  1  0.096719  0.000344  0.10142  0.10446  7.2e-05  1.019635  0.0
H  H20  1  0.85656137  0.38491054  0.04043779  1  0.090275  0.000942  0.105953  0.111178  0.000448  1.014838  0.0
H  H21  1  0.89682608  0.24829013  0.03831302  1  0.106538  0.001869  0.125471  0.100129  0.000249  1.001629  0.002
H  H22  1  0.13526169  0.28948212  0.15176161  1  0.106402  0.002197  0.120673  0.089382  0.000692  1.012151  0.001
H  H23  1  0.10491332  0.42715023  0.16080977  1  0.057454  0.001207  0.107327  0.112525  0.000581  1.003718  0.0
H  H24  1  0.76545382  0.97542991  0.88867168  1  0.075799  0.007059  0.109412  0.065537  0.002772  0.967396  0.004
H  H25  1  0.73912517  0.00626180  0.74976889  1  0.014333  0.000211  0.088339  0.125616  -2.8e-05  1.039558  0.0
H  H26  1  0.77161671  0.91050712  0.76733127  1  0.070083  0.001118  0.094301  0.137015  0.000457  0.995581  0.0
H  H27  1  0.85084535  0.97798411  0.73029778  1  0.027854  -6.1e-05  0.086037  0.121116  -0.000298  1.022906  0.0
H  H28  1  0.05249771  0.32617867  0.87630657  1  0.103988  0.000191  0.108599  0.116492  1.2e-05  0.999125  0.0
H  H29  1  0.09187280  0.46213420  0.89609100  1  0.028073  0.000246  0.099307  0.096743  0.000145  1.008676  0.0
H  H30  1  0.81171766  0.51849847  0.87996798  1  0.026386  0.000206  0.099383  0.097792  0.000127  1.010437  0.0
H  H31  1  0.77363932  0.38200824  0.86354215  1  0.094677  0.000335  0.101627  0.104265  8e-05  1.020596  0.0
H  H32  1  0.85708233  0.61257745  0.95834240  1  0.080259  0.000928  0.105866  0.110409  0.000444  1.014084  0.0
H  H33  1  0.89653533  0.75003168  0.96004540  1  0.094483  0.001828  0.124729  0.098751  0.00021  1.004256  0.002
H  H34  1  0.13436405  0.71396006  0.84529221  1  0.112138  0.002479  0.119614  0.08696  0.000901  1.017341  0.001
H  H35  1  0.10459555  0.57584583  0.83644009  1  0.059556  0.00119  0.107521  0.113293  0.000581  1.002718  0.0
H  H36  1  0.23098416  0.10970859  0.97603977  1  0.074239  0.007116  0.109798  0.066605  0.002803  0.962363  0.004
H  H37  1  0.26131760  0.24842504  0.00648627  1  0.024563  0.000237  0.088213  0.125745  -3e-06  1.040015  0.0
H  H38  1  0.22670425  0.23114956  0.91081191  1  0.08039  0.001092  0.094651  0.138145  0.000448  0.995072  0.0
H  H39  1  0.14955516  0.26875059  0.97852400  1  0.043546  -6.1e-05  0.086192  0.121631  -0.000299  1.022322  0.0
H  H40  1  0.94779409  0.12283336  0.32473913  1  0.089652  0.000188  0.108908  0.116894  1.3e-05  0.999551  0.0
H  H41  1  0.90854211  0.10227373  0.46027940  1  0.077782  0.000251  0.09911  0.09599  0.000146  1.009512  0.0
H  H42  1  0.18896973  0.11901799  0.51903624  1  0.068232  0.000208  0.099801  0.098998  0.000125  1.009779  0.0
H  H43  1  0.22684891  0.13600838  0.38283124  1  0.089424  0.000343  0.101639  0.10394  8.6e-05  1.020613  0.0
H  H44  1  0.14302313  0.04173418  0.61384476  1  0.090225  0.000951  0.105668  0.110198  0.000456  1.014839  0.0
H  H45  1  0.10205458  0.03975355  0.75072847  1  0.133078  0.001878  0.125341  0.100095  0.000245  1.002311  0.002
H  H46  1  0.86409291  0.15127399  0.71048040  1  0.103872  0.002199  0.120702  0.089307  0.000684  1.013219  0.001
H  H47  1  0.89545662  0.16046351  0.57268096  1  0.058514  0.00121  0.107289  0.112413  0.000585  1.004336  0.0
H  H48  1  0.23182165  0.89469033  0.02306115  1  0.065908  0.006744  0.109092  0.066522  0.002607  0.963536  0.004
H  H49  1  0.26223659  0.75666128  0.99373818  1  0.049477  0.000409  0.087829  0.123584  0.000111  1.040753  0.0
H  H50  1  0.22567387  0.77321242  0.08877578  1  0.040507  0.000917  0.094671  0.138867  0.000358  0.995535  0.0
H  H51  1  0.14980495  0.73433456  0.01982464  1  0.033854  -4.8e-05  0.086177  0.122212  -0.000304  1.020967  0.0
H  H52  1  0.95010020  0.87768258  0.67602025  1  0.114342  0.000215  0.108708  0.116604  1.6e-05  1.00079  0.0
H  H53  1  0.91025540  0.89746736  0.54062833  1  0.050095  0.000244  0.099412  0.096768  0.000147  1.00859  0.0
H  H54  1  0.18978494  0.88044781  0.48043985  1  0.051128  0.000216  0.099414  0.098055  0.000135  1.009811  0.0
H  H55  1  0.22828223  0.86352167  0.61642513  1  0.073036  0.000333  0.101881  0.104625  8.3e-05  1.020709  0.0
H  H56  1  0.14508645  0.95844292  0.38628293  1  0.078686  0.000958  0.105921  0.110728  0.000454  1.01501  0.0
H  H57  1  0.10384296  0.96052858  0.24951815  1  0.130875  0.001903  0.125448  0.10012  0.000284  1.003156  0.002
H  H58  1  0.86420218  0.84705929  0.28976552  1  0.110192  0.002155  0.120738  0.090182  0.000658  1.013917  0.001
H  H59  1  0.89552512  0.83805306  0.42755517  1  0.070605  0.001227  0.107573  0.113179  0.000593  1.002766  0.001
H  H60  1  0.26757274  0.02014795  0.89085993  1  0.069926  0.007338  0.110538  0.068541  0.002804  0.959232  0.004
H  H61  1  0.23688259  0.99197652  0.75230403  1  0.037805  0.000142  0.08862  0.126494  -8.4e-05  1.036227  0.0
H  H62  1  0.27218395  0.08758066  0.77017197  1  0.051211  0.001241  0.095106  0.138247  0.000509  0.995194  0.0
H  H63  1  0.34876945  0.02064791  0.73083747  1  0.036912  -4e-05  0.086416  0.121887  -0.000277  1.0212  0.0
H  H64  1  0.55271376  0.67521120  0.87723336  1  0.088002  0.000173  0.108735  0.116923  3e-06  0.998273  0.0
H  H65  1  0.59172803  0.54013222  0.89803756  1  0.031466  0.000235  0.09944  0.097003  0.00014  1.008319  0.0
H  H66  1  0.31165051  0.47854459  0.88086063  1  0.039497  0.000205  0.099717  0.098641  0.000125  1.008853  0.0
H  H67  1  0.27390264  0.61431608  0.86322203  1  0.096449  0.000344  0.101509  0.104522  7.2e-05  1.019601  0.0
H  H68  1  0.35653488  0.38494880  0.95954516  1  0.08955  0.000942  0.105883  0.111096  0.000448  1.014809  0.0
H  H69  1  0.39680170  0.24833647  0.96167853  1  0.106736  0.001868  0.12552  0.100345  0.00025  1.001379  0.002
H  H70  1  0.63527030  0.28952065  0.84829590  1  0.107629  0.002196  0.120597  0.089428  0.000689  1.012098  0.001
H  H71  1  0.60491232  0.42718126  0.83922520  1  0.0571  0.001206  0.107339  0.112494  0.000581  1.00357  0.0
H  H72  1  0.26539735  0.97547364  0.11138404  1  0.075725  0.007072  0.109403  0.065746  0.002777  0.967163  0.004
H  H73  1  0.23914643  0.00630308  0.25029688  1  0.014151  0.000208  0.088365  0.125916  -3e-05  1.039431  0.0
H  H74  1  0.27157986  0.91053495  0.23268524  1  0.070166  0.001123  0.094321  0.137177  0.000459  0.995535  0.0
H  H75  1  0.35086317  0.97795550  0.26973146  1  0.026757  -6e-05  0.08595  0.121298  -0.000297  1.022867  0.0
H  H76  1  0.55254325  0.32625187  0.12372600  1  0.10474  0.000191  0.10862  0.116615  1.3e-05  0.999513  0.0
H  H77  1  0.59192125  0.46219635  0.10396166  1  0.028059  0.000246  0.0992  0.096532  0.000145  1.008419  0.0
H  H78  1  0.31176539  0.51854898  0.12006554  1  0.026411  0.000205  0.099445  0.097948  0.000127  1.010263  0.0
H  H79  1  0.27367528  0.38205933  0.13648371  1  0.095388  0.000334  0.101681  0.104234  8e-05  1.020553  0.0
H  H80  1  0.35709030  0.61262033  0.04171162  1  0.079641  0.000927  0.105802  0.110588  0.000443  1.01411  0.0
H  H81  1  0.39652111  0.75007149  0.04001128  1  0.09414  0.001827  0.124643  0.098804  0.00021  1.004106  0.002
H  H82  1  0.63435537  0.71406471  0.15477042  1  0.109015  0.00247  0.119539  0.086832  0.000902  1.017013  0.001
H  H83  1  0.60463663  0.57594287  0.16360297  1  0.059731  0.001188  0.10753  0.113157  0.00058  1.002801  0.0
H  H84  1  0.73100947  0.10974381  0.02393216  1  0.07618  0.007119  0.109893  0.066584  0.002806  0.962425  0.004
H  H85  1  0.76130011  0.24846789  0.99354604  1  0.024168  0.000234  0.088303  0.125869  -6e-06  1.039897  0.0
H  H86  1  0.72673406  0.23117205  0.08921417  1  0.080421  0.001097  0.094583  0.137947  0.00045  0.995535  0.0
H  H87  1  0.64955355  0.26877928  0.02153783  1  0.043137  -6e-05  0.086254  0.12174  -0.000299  1.022117  0.0
H  H88  1  0.44775254  0.12281954  0.67520422  1  0.089821  0.000187  0.108861  0.116763  1.2e-05  0.999324  0.0
H  H89  1  0.40851934  0.10223816  0.53965855  1  0.078418  0.00025  0.09924  0.096158  0.000146  1.009487  0.0
H  H90  1  0.68894152  0.11899428  0.48093245  1  0.06835  0.000208  0.09977  0.099073  0.000125  1.009861  0.0
H  H91  1  0.72681129  0.13600086  0.61713521  1  0.090752  0.000344  0.101645  0.103971  8.6e-05  1.020637  0.0
H  H92  1  0.64304885  0.04171509  0.38609051  1  0.090004  0.000952  0.105695  0.110074  0.000457  1.014644  0.0
H  H93  1  0.60209998  0.03975165  0.24920387  1  0.131863  0.00188  0.125377  0.100031  0.000246  1.003038  0.002
H  H94  1  0.36410356  0.15121964  0.28945379  1  0.103823  0.002197  0.120744  0.089456  0.000683  1.013314  0.001
H  H95  1  0.39544696  0.16039542  0.42725374  1  0.059569  0.001209  0.107242  0.112288  0.000584  1.003828  0.0
H  H96  1  0.73181515  0.89471787  0.97694011  1  0.065798  0.006742  0.109045  0.066508  0.002605  0.96325  0.004
H  H97  1  0.76220178  0.75668246  0.00627087  1  0.049379  0.000412  0.087834  0.123608  0.000113  1.040688  0.0
H  H98  1  0.72563992  0.77323048  0.91123403  1  0.040857  0.000914  0.094635  0.138859  0.000356  0.995647  0.0
H  H99  1  0.64976171  0.73437631  0.98017344  1  0.034958  -4.9e-05  0.086212  0.122178  -0.000304  1.021032  0.0
H  H100  1  0.45008258  0.87772230  0.32397232  1  0.113856  0.000216  0.10864  0.116498  1.7e-05  1.000753  0.0
H  H101  1  0.41026234  0.89748828  0.45937651  1  0.049779  0.000244  0.099395  0.096769  0.000148  1.008661  0.0
H  H102  1  0.68978764  0.88042426  0.51955474  1  0.051313  0.000216  0.099432  0.09811  0.000135  1.009477  0.0
H  H103  1  0.72826169  0.86351348  0.38355172  1  0.073174  0.000332  0.101827  0.104477  8.2e-05  1.02096  0.0
H  H104  1  0.64510506  0.95842749  0.61370494  1  0.07839  0.000958  0.105969  0.110832  0.000453  1.015138  0.0
H  H105  1  0.60390162  0.96049849  0.75047898  1  0.131498  0.001903  0.125392  0.100069  0.000285  1.003246  0.002
H  H106  1  0.36423051  0.84706648  0.71022768  1  0.110605  0.002157  0.120714  0.090277  0.00066  1.013802  0.001
H  H107  1  0.39552876  0.83806359  0.57243493  1  0.070737  0.001228  0.107528  0.113202  0.000593  1.002821  0.001
C  C108  1  0.90643892  0.04930043  0.12812337  1  1.572612  0.003847  0.207404  0.562889  0.001029  4.112964  0.001
C  C109  1  0.82148896  0.00559504  0.14919848  1  0.465419  0.00996  -0.006053  0.152838  0.007134  3.926874  0.004
C  C110  1  0.79296934  0.02820566  0.22935809  1  -0.072804  0.006731  -0.246438  -0.418893  0.003169  3.909994  0.005
C  C111  1  0.88842972  0.73412179  0.14322225  1  1.553213  -0.013858  0.211655  0.578453  -0.015597  4.190797  -0.008
C  C112  1  0.91109694  0.65289707  0.13162984  1  -0.047592  0.004715  -0.016702  -0.028311  0.001572  3.965775  0.005
C  C113  1  0.00069603  0.63138672  0.12194092  1  0.013504  -0.003676  -0.081338  -0.086754  -0.004124  3.971721  -0.002
C  C114  1  0.02195180  0.55580157  0.11087291  1  -0.029161  -0.002229  -0.090038  -0.131469  -0.002438  3.986869  -0.001
C  C115  1  0.95454795  0.49936647  0.10955035  1  -0.039243  -0.006721  -0.007341  0.064272  -0.007148  4.000793  -0.003
C  C116  1  0.86472838  0.52158498  0.11838048  1  0.03627  -0.002019  -0.091626  -0.134775  -0.002287  3.993221  -0.001
C  C117  1  0.84333778  0.59717401  0.12921299  1  -0.124897  -0.00332  -0.08732  -0.095966  -0.003728  3.993846  -0.002
C  C118  1  0.97692571  0.41881787  0.10199136  1  0.002337  -0.018774  0.008056  0.102274  -0.019869  3.995308  -0.012
C  C119  1  0.91845916  0.36651871  0.06715244  1  -0.073325  0.005025  -0.08334  -0.174745  0.002047  3.955318  0.005
C  C120  1  0.94051799  0.29050649  0.06465786  1  0.523466  -0.011814  0.052127  0.101949  -0.012721  3.934084  -0.007
C  C121  1  0.07426704  0.31320485  0.12777968  1  0.415652  -0.010317  0.04649  0.09396  -0.01095  3.962108  -0.006
C  C122  1  0.05723902  0.39003261  0.13174843  1  0.007432  0.005683  -0.087129  -0.181237  0.002299  3.961552  0.005
C  C123  1  0.90513675  0.94984279  0.87168212  1  1.551036  0.003797  0.208024  0.561899  0.000971  4.111786  0.001
C  C124  1  0.82034127  0.99188768  0.84990110  1  0.485044  0.010106  -0.00701  0.155497  0.007236  3.923198  0.005
C  C125  1  0.79379652  0.96989377  0.76889826  1  -0.065653  0.006494  -0.246963  -0.419531  0.003039  3.909574  0.005
C  C126  1  0.88794602  0.26424126  0.85688132  1  1.533293  -0.01409  0.21142  0.577368  -0.015843  4.192898  -0.009
C  C127  1  0.91086713  0.34590945  0.86803871  1  -0.064575  0.004813  -0.017009  -0.029256  0.001595  3.96822  0.005
C  C128  1  0.00053729  0.36907034  0.87713091  1  0.008882  -0.003669  -0.08145  -0.08598  -0.004127  3.971648  -0.002
C  C129  1  0.02199585  0.44510854  0.88758896  1  -0.03272  -0.002365  -0.089909  -0.13177  -0.002584  3.986835  -0.001
C  C130  1  0.95464597  0.50032584  0.88884281  1  -0.045981  -0.006835  -0.007629  0.063872  -0.007277  4.001562  -0.003
C  C131  1  0.86472914  0.47640632  0.88068174  1  0.045849  -0.002164  -0.091608  -0.134425  -0.002448  3.993666  -0.001
C  C132  1  0.84315128  0.40038737  0.87052881  1  -0.093151  -0.003358  -0.087163  -0.095929  -0.003751  3.99548  -0.002
C  C133  1  0.97699585  0.58132685  0.89601885  1  -0.003198  -0.019466  0.007612  0.102367  -0.020599  3.996925  -0.012
C  C134  1  0.91861825  0.63236390  0.93122835  1  -0.050746  0.004766  -0.083666  -0.173314  0.001893  3.9555  0.005
C  C135  1  0.94031223  0.70882053  0.93354547  1  0.497607  -0.012268  0.051245  0.102204  -0.013174  3.936998  -0.007
C  C136  1  0.07359354  0.68906056  0.86966506  1  0.444966  -0.011032  0.04688  0.09551  -0.011651  3.960511  -0.006
C  C137  1  0.05689802  0.61183874  0.86576176  1  0.026082  0.0058  -0.087118  -0.181768  0.002346  3.959808  0.005
C  C138  1  0.09192356  0.12802792  0.94963655  1  1.555249  0.003774  0.208034  0.563602  0.000986  4.113139  0.001
C  C139  1  0.17728752  0.14903724  0.99227691  1  0.46753  0.009891  -0.007549  0.153947  0.007063  3.928435  0.004
C  C140  1  0.20556798  0.22977160  0.97028291  1  -0.098032  0.006471  -0.247323  -0.421558  0.003028  3.911632  0.005
C  C141  1  0.11215470  0.14270198  0.26411539  1  1.532629  -0.014122  0.210745  0.575261  -0.015908  4.194922  -0.009
C  C142  1  0.08951305  0.13129786  0.34564090  1  -0.054915  0.004918  -0.016733  -0.028461  0.001662  3.967004  0.006
C  C143  1  0.99981438  0.12189878  0.36805156  1  -0.042667  -0.003695  -0.08202  -0.087084  -0.00411  3.974413  -0.002
C  C144  1  0.97846224  0.11103757  0.44387770  1  -0.018284  -0.002232  -0.089802  -0.130761  -0.002493  3.98842  -0.001
C  C145  1  0.04587240  0.10980650  0.49969000  1  -0.046541  -0.006845  -0.007558  0.064168  -0.007259  4.001307  -0.003
C  C146  1  0.13581850  0.11830849  0.47654684  1  -0.007415  -0.00211  -0.091217  -0.134784  -0.002383  3.992757  -0.001
C  C147  1  0.15731502  0.12877597  0.40067880  1  -0.091345  -0.00334  -0.087712  -0.096353  -0.003741  3.994177  -0.002
C  C148  1  0.02320157  0.10251948  0.58044747  1  0.041816  -0.019055  0.007894  0.102208  -0.020208  3.996195  -0.012
C  C149  1  0.08119765  0.06816562  0.63254161  1  -0.109331  0.005041  -0.083962  -0.174381  0.002059  3.956022  0.005
C  C150  1  0.05870282  0.06571517  0.70869638  1  0.51508  -0.012  0.051966  0.101385  -0.0129  3.93521  -0.007
C  C151  1  0.92528616  0.12783168  0.68655299  1  0.423727  -0.010485  0.045852  0.093567  -0.011139  3.962428  -0.006
C  C152  1  0.94285198  0.13183582  0.60961421  1  0.008111  0.005738  -0.086752  -0.180998  0.002318  3.960779  0.005
C  C153  1  0.09245545  0.87432059  0.04902779  1  1.557012  0.003745  0.20931  0.566771  0.000952  4.107437  0.001
C  C154  1  0.17793875  0.85459275  0.00664329  1  0.487537  0.009658  -0.008579  0.150836  0.006931  3.938512  0.004
C  C155  1  0.20566288  0.77433485  0.02901976  1  -0.072921  0.006234  -0.247524  -0.422751  0.002935  3.917032  0.005
C  C156  1  0.11401753  0.85728236  0.73579339  1  1.549128  -0.014539  0.212324  0.576211  -0.016402  4.194051  -0.009
C  C157  1  0.09134825  0.86870945  0.65435421  1  -0.013955  0.005358  -0.016701  -0.029747  0.001975  3.968958  0.006
C  C158  1  0.00175679  0.87826095  0.63238403  1  -0.060871  -0.004001  -0.08194  -0.086224  -0.00448  3.974743  -0.002
C  C159  1  0.98007670  0.88874829  0.55663635  1  -0.016063  -0.00212  -0.08945  -0.131058  -0.002365  3.988388  -0.001
C  C160  1  0.04711123  0.88977423  0.50048852  1  -0.111785  -0.007413  -0.007053  0.064823  -0.007838  3.999605  -0.004
C  C161  1  0.13699491  0.88132306  0.52321107  1  -0.024872  -0.001852  -0.091537  -0.134238  -0.002082  3.992588  -0.001
C  C162  1  0.15882083  0.87093636  0.59897240  1  -0.000332  -0.00384  -0.087655  -0.096965  -0.004297  3.992882  -0.002
C  C163  1  0.02423579  0.89689637  0.41976642  1  0.039323  -0.018787  0.008684  0.103212  -0.019935  3.994051  -0.012
C  C164  1  0.08274028  0.93166305  0.36763340  1  -0.053665  0.004965  -0.08369  -0.174461  0.002017  3.955855  0.005
C  C165  1  0.06014414  0.93412336  0.29150949  1  0.472205  -0.011798  0.051811  0.100083  -0.012656  3.935934  -0.007
C  C166  1  0.92577925  0.87097581  0.31366655  1  0.411314  -0.010268  0.046498  0.092791  -0.01098  3.957088  -0.006
C  C167  1  0.94336128  0.86705956  0.39062254  1  0.001678  0.005746  -0.087179  -0.18205  0.002337  3.959117  0.005
C  C168  1  0.40645019  0.04931036  0.87186105  1  1.572639  0.003847  0.207192  0.56253  0.001029  4.113446  0.001
C  C169  1  0.32150783  0.00559723  0.85078167  1  0.464727  0.009959  -0.006017  0.153352  0.007128  3.926815  0.004
C  C170  1  0.29297666  0.02821040  0.77063129  1  -0.071929  0.006725  -0.246473  -0.41895  0.003166  3.909844  0.005
C  C171  1  0.38841460  0.73414123  0.85680486  1  1.552881  -0.013847  0.211768  0.578618  -0.015582  4.190653  -0.008
C  C172  1  0.41106860  0.65291448  0.86841253  1  -0.047405  0.004737  -0.016844  -0.028693  0.001589  3.966111  0.005
C  C173  1  0.50066418  0.63141028  0.87808962  1  0.014621  -0.003675  -0.081522  -0.086758  -0.004122  3.97197  -0.002
C  C174  1  0.52192890  0.55582881  0.88914046  1  -0.030018  -0.002221  -0.089743  -0.131394  -0.00243  3.987101  -0.001
C  C175  1  0.45452548  0.49939627  0.89045865  1  -0.038172  -0.006715  -0.007324  0.064449  -0.007142  4.000704  -0.003
C  C176  1  0.36469767  0.52161240  0.88163752  1  0.036617  -0.002011  -0.09173  -0.135067  -0.00228  3.992561  -0.001
C  C177  1  0.34330285  0.59720231  0.87082670  1  -0.126172  -0.003316  -0.087394  -0.095813  -0.003724  3.993435  -0.002
C  C178  1  0.47691079  0.41885166  0.89801937  1  0.000345  -0.018731  0.008085  0.102249  -0.019825  3.99518  -0.012
C  C179  1  0.41844357  0.36655619  0.93285202  1  -0.072869  0.005024  -0.083317  -0.17467  0.002048  3.955493  0.005
C  C180  1  0.44050447  0.29054643  0.93534583  1  0.523311  -0.011784  0.052075  0.101722  -0.012688  3.933954  -0.007
C  C181  1  0.57426666  0.31323774  0.87225333  1  0.413476  -0.01029  0.046572  0.093911  -0.010921  3.961526  -0.006
C  C182  1  0.55723319  0.39006405  0.86827983  1  0.009088  0.005675  -0.086957  -0.181043  0.002298  3.960486  0.005
C  C183  1  0.40506966  0.94985319  0.12830895  1  1.552365  0.003794  0.208087  0.562427  0.000968  4.11076  0.001
C  C184  1  0.32031500  0.99192364  0.15013501  1  0.472582  0.010158  -0.006969  0.155295  0.007245  3.92346  0.005
C  C185  1  0.29379179  0.96991315  0.23114722  1  -0.053615  0.006481  -0.247005  -0.420336  0.00305  3.909389  0.005
C  C186  1  0.38799885  0.26428783  0.14311978  1  1.535381  -0.014094  0.211066  0.576843  -0.01583  4.192617  -0.008
C  C187  1  0.41091843  0.34595972  0.13198339  1  -0.065083  0.004795  -0.01723  -0.029154  0.001583  3.968021  0.005
C  C188  1  0.50058676  0.36913105  0.12290528  1  0.008982  -0.003667  -0.08162  -0.086698  -0.004127  3.972434  -0.002
C  C189  1  0.52203843  0.44517128  0.11245818  1  -0.033508  -0.002372  -0.089421  -0.131094  -0.002588  3.986163  -0.001
C  C190  1  0.45468554  0.50038471  0.11120420  1  -0.087217  -0.006831  -0.007278  0.064252  -0.007271  4.002096  -0.003
C  C191  1  0.36477552  0.47645904  0.11935106  1  0.085297  -0.002167  -0.091632  -0.134644  -0.002453  3.993943  -0.001
C  C192  1  0.34319115  0.40044080  0.12949700  1  -0.091036  -0.003351  -0.08721  -0.09578  -0.003746  3.994911  -0.002
C  C193  1  0.47702655  0.58138459  0.10403211  1  -0.005776  -0.019478  0.007457  0.102336  -0.02061  3.997154  -0.012
C  C194  1  0.41863413  0.63241050  0.06882563  1  -0.047199  0.004759  -0.083553  -0.173625  0.001888  3.955465  0.005
C  C195  1  0.44030797  0.70887196  0.06651383  1  0.496797  -0.012273  0.050942  0.10174  -0.013175  3.937634  -0.007
C  C196  1  0.57359099  0.68914704  0.13039271  1  0.447926  -0.011046  0.04666  0.095097  -0.011675  3.960322  -0.006
C  C197  1  0.55692167  0.61191827  0.13428674  1  0.027105  0.005805  -0.08692  -0.181154  0.002348  3.959644  0.005
C  C198  1  0.59193642  0.12803164  0.05037008  1  1.554415  0.003772  0.207878  0.563554  0.000984  4.113135  0.001
C  C199  1  0.67729240  0.14907287  0.00772837  1  0.46544  0.009896  -0.007743  0.153644  0.007066  3.929005  0.004
C  C200  1  0.70556855  0.22980260  0.02975299  1  -0.096938  0.006473  -0.247348  -0.421371  0.003031  3.911967  0.005
C  C201  1  0.61211988  0.14268055  0.73584614  1  1.533388  -0.014115  0.210792  0.575463  -0.015906  4.194451  -0.009
C  C202  1  0.58948472  0.13127048  0.65432178  1  0.00549  0.004868  -0.016699  -0.028568  0.001656  3.967486  0.006
C  C203  1  0.49978803  0.12187223  0.63189351  1  -0.101465  -0.003652  -0.08197  -0.086964  -0.004109  3.974008  -0.002
C  C204  1  0.47843709  0.11100093  0.55606517  1  -0.020858  -0.002232  -0.089815  -0.13073  -0.00249  3.987695  -0.001
C  C205  1  0.54585582  0.10976107  0.50025810  1  -0.047067  -0.00684  -0.007327  0.064638  -0.007253  4.000767  -0.003
C  C206  1  0.63579911  0.11828059  0.52341434  1  -0.009034  -0.002112  -0.09141  -0.135279  -0.002383  3.993042  -0.001
C  C207  1  0.65728301  0.12875528  0.59928681  1  -0.090317  -0.003334  -0.087586  -0.096121  -0.003736  3.994612  -0.002
C  C208  1  0.52319892  0.10247667  0.41949358  1  0.04282  -0.019049  0.008005  0.101736  -0.020203  3.995729  -0.012
C  C209  1  0.58121768  0.06814965  0.36739029  1  -0.108513  0.005055  -0.084255  -0.174192  0.002066  3.955625  0.005
C  C210  1  0.55874496  0.06570899  0.29123280  1  0.513743  -0.011987  0.052182  0.101256  -0.012885  3.936653  -0.007
C  C211  1  0.42530609  0.12779384  0.31338026  1  0.421397  -0.010489  0.045845  0.092663  -0.011142  3.962217  -0.006
C  C212  1  0.44285246  0.13178317  0.39032465  1  0.009909  0.005737  -0.087154  -0.180738  0.002318  3.960182  0.005
C  C213  1  0.59244110  0.87435015  0.95097871  1  1.556955  0.003744  0.209445  0.566896  0.000954  4.107137  0.001
C  C214  1  0.67791722  0.85463331  0.99337077  1  0.487151  0.00966  -0.008545  0.151041  0.00693  3.937637  0.004
C  C215  1  0.70563011  0.77436127  0.97098875  1  -0.073944  0.006237  -0.247522  -0.422822  0.002937  3.916844  0.005
C  C216  1  0.61399512  0.85733274  0.26418780  1  1.549705  -0.014522  0.212315  0.576671  -0.016381  4.194326  -0.009
C  C217  1  0.59133789  0.86872738  0.34562866  1  -0.014587  0.005366  -0.017048  -0.030784  0.001983  3.969545  0.006
C  C218  1  0.50174552  0.87828219  0.36760068  1  -0.060915  -0.004001  -0.081731  -0.085625  -0.00448  3.974153  -0.002
C  C219  1  0.48007053  0.88875835  0.44335457  1  -0.014939  -0.002119  -0.08954  -0.131345  -0.002365  3.988536  -0.001
C  C220  1  0.54710632  0.88977237  0.49950213  1  -0.112481  -0.007415  -0.007093  0.064711  -0.007841  3.999311  -0.004
C  C221  1  0.63699553  0.88130994  0.47676707  1  -0.024603  -0.001849  -0.091536  -0.134386  -0.002079  3.99194  -0.001
C  C222  1  0.65881405  0.87093122  0.40100299  1  -0.000192  -0.00384  -0.087417  -0.096258  -0.004297  3.993088  -0.002
C  C223  1  0.52423844  0.89689595  0.58023296  1  0.039306  -0.018781  0.008768  0.103488  -0.019929  3.993845  -0.012
C  C224  1  0.58275998  0.93165748  0.63236020  1  -0.05359  0.004964  -0.083753  -0.174757  0.002016  3.956004  0.005
C  C225  1  0.56018330  0.93410480  0.70848628  1  0.472012  -0.011799  0.051929  0.10026  -0.012656  3.935938  -0.007
C  C226  1  0.42580370  0.87096991  0.68632465  1  0.411165  -0.010264  0.04672  0.093014  -0.010975  3.957527  -0.006
C  C227  1  0.44336690  0.86706320  0.60937312  1  0.001704  0.005745  -0.08717  -0.182291  0.002337  3.959595  0.005
N  N228  1  0.01659710  0.26355215  0.09520240  1  -1.201948  0.067809  -0.336933  -0.255611  0.035861  3.6223  0.057
N  N229  1  0.01603848  0.73750409  0.90260161  1  -1.225771  0.065068  -0.337977  -0.26116  0.034116  3.628944  0.056
N  N230  1  0.98254479  0.09574959  0.73598884  1  -1.223089  0.068256  -0.336586  -0.25515  0.036125  3.622802  0.058
N  N231  1  0.98348226  0.90358453  0.26421276  1  -1.213258  0.069418  -0.336043  -0.252126  0.0368  3.61593  0.058
N  N232  1  0.51658730  0.26358909  0.90481210  1  -1.20036  0.067843  -0.33684  -0.255467  0.035875  3.621609  0.057
N  N233  1  0.51602115  0.73757903  0.09746069  1  -1.227287  0.064968  -0.337675  -0.260656  0.034073  3.629446  0.056
N  N234  1  0.48258674  0.09573425  0.26394277  1  -1.221798  0.068316  -0.33649  -0.254061  0.036162  3.622353  0.058
N  N235  1  0.48352433  0.90356593  0.73577306  1  -1.213599  0.069427  -0.336188  -0.252187  0.036797  3.616362  0.058
O  O236  1  0.90129712  0.11952920  0.11274298  1  -1.154004  0.08816  -0.314235  -0.524744  0.045519  2.249798  0.07
O  O237  1  0.98068645  0.01451470  0.12951231  1  -1.150755  0.087245  -0.296124  -0.545694  0.045269  2.310427  0.076
O  O238  1  0.84036720  0.92709227  0.14349679  1  -1.092083  0.233837  -0.390821  -0.61798  0.124256  2.601961  0.196
O  O239  1  0.80430269  0.75001571  0.14496982  1  -1.153701  0.080101  -0.327084  -0.5874  0.041119  2.423126  0.064
O  O240  1  0.95246146  0.78139422  0.15012899  1  -1.175353  0.056103  -0.30783  -0.559763  0.02964  2.413946  0.049
O  O241  1  0.90030267  0.87931210  0.88644936  1  -1.154655  0.089979  -0.314787  -0.526328  0.046374  2.247943  0.072
O  O242  1  0.97910599  0.98635848  0.87134370  1  -1.146223  0.088091  -0.295072  -0.542115  0.045688  2.315344  0.076
O  O243  1  0.83866796  0.07070996  0.85713997  1  -1.085249  0.225463  -0.393258  -0.62392  0.120235  2.592205  0.188
O  O244  1  0.80386312  0.24687131  0.85664749  1  -1.155906  0.081302  -0.324899  -0.58466  0.041538  2.425165  0.066
O  O245  1  0.95180469  0.21816497  0.84879796  1  -1.157738  0.057271  -0.308001  -0.558832  0.030357  2.414337  0.049
O  O246  1  0.09661209  0.11340061  0.87916459  1  -1.152989  0.088824  -0.314133  -0.523702  0.045851  2.254345  0.071
O  O247  1  0.01787837  0.12884917  0.98543340  1  -1.141449  0.087608  -0.296794  -0.546208  0.045414  2.307901  0.076
O  O248  1  0.15921796  0.14202155  0.07101715  1  -1.089646  0.225248  -0.392586  -0.622594  0.120048  2.590359  0.187
O  O249  1  0.19610528  0.14246084  0.24711622  1  -1.156191  0.081536  -0.324505  -0.58286  0.041616  2.425452  0.067
O  O250  1  0.04812814  0.15141910  0.21781082  1  -1.156701  0.057402  -0.307262  -0.557271  0.030444  2.414638  0.05
O  O251  1  0.09681367  0.88915034  0.11949699  1  -1.151071  0.088031  -0.3142  -0.524185  0.045508  2.258917  0.07
O  O252  1  0.01857328  0.87222461  0.01295031  1  -1.14725  0.088793  -0.296863  -0.545471  0.046276  2.308509  0.076
O  O253  1  0.16041338  0.86137244  0.92789093  1  -1.10438  0.217329  -0.392712  -0.625591  0.115596  2.568867  0.179
O  O254  1  0.19781083  0.85319325  0.75243852  1  -1.159682  0.08008  -0.323676  -0.581583  0.040894  2.419145  0.066
O  O255  1  0.04963241  0.85278818  0.78257679  1  -1.169453  0.062538  -0.308822  -0.55756  0.033254  2.427694  0.053
O  O256  1  0.40130062  0.11953965  0.88724427  1  -1.154233  0.088119  -0.314166  -0.524614  0.0455  2.249865  0.07
O  O257  1  0.48070515  0.01453758  0.87048124  1  -1.150858  0.087258  -0.296059  -0.545518  0.045269  2.310373  0.076
O  O258  1  0.34039224  0.92709887  0.85647311  1  -1.092329  0.233725  -0.390832  -0.61822  0.124208  2.602012  0.196
O  O259  1  0.30429490  0.75003336  0.85505060  1  -1.153633  0.080147  -0.327006  -0.587322  0.041137  2.422817  0.064
O  O260  1  0.45245216  0.78140130  0.84988088  1  -1.175328  0.056108  -0.307829  -0.55968  0.029644  2.413944  0.049
O  O261  1  0.40020780  0.87932298  0.11354496  1  -1.154549  0.090008  -0.314681  -0.526429  0.046396  2.247581  0.072
O  O262  1  0.47904756  0.98636046  0.12858134  1  -1.146428  0.088159  -0.295  -0.542148  0.045719  2.315093  0.076
O  O263  1  0.33867300  0.07073309  0.14291876  1  -1.084468  0.225636  -0.3932  -0.623756  0.120337  2.593569  0.188
O  O264  1  0.30390595  0.24692690  0.14338128  1  -1.157285  0.081338  -0.324884  -0.584516  0.041547  2.424995  0.066
O  O265  1  0.45184881  0.21818946  0.15116376  1  -1.158169  0.057167  -0.307788  -0.558584  0.030295  2.413502  0.049
O  O266  1  0.59663829  0.11339599  0.12083933  1  -1.152601  0.088795  -0.313974  -0.523514  0.045837  2.254505  0.071
O  O267  1  0.51787511  0.12885018  0.01458594  1  -1.141129  0.087614  -0.296658  -0.546152  0.045414  2.307623  0.076
O  O268  1  0.65919871  0.14208286  0.92898342  1  -1.089555  0.225429  -0.392429  -0.622258  0.120134  2.590838  0.187
O  O269  1  0.69608341  0.14241922  0.75284522  1  -1.157315  0.081621  -0.324656  -0.583093  0.041657  2.425157  0.067
O  O270  1  0.54810782  0.15142944  0.78215791  1  -1.157802  0.057289  -0.307215  -0.557296  0.030381  2.414427  0.05
O  O271  1  0.59682600  0.88915278  0.88050557  1  -1.151222  0.088042  -0.31415  -0.524121  0.045508  2.258901  0.07
O  O272  1  0.51855565  0.87226359  0.98705398  1  -1.147403  0.088799  -0.297026  -0.545669  0.046297  2.30856  0.076
O  O273  1  0.66039350  0.86143758  0.07212284  1  -1.103817  0.217225  -0.392657  -0.625497  0.11556  2.568248  0.179
O  O274  1  0.69776004  0.85315626  0.24753153  1  -1.159721  0.079999  -0.323724  -0.581694  0.040844  2.418849  0.066
O  O275  1  0.54960380  0.85294940  0.21740779  1  -1.169787  0.062691  -0.308591  -0.557355  0.033319  2.428458  0.053
