# generated using pymatgen
data_ZnH18C14(NO)4
_symmetry_space_group_name_H-M   'P 1'
_cell_length_a   8.98029591
_cell_length_b   13.31601204
_cell_length_c   16.65993254
_cell_angle_alpha   84.43792861
_cell_angle_beta   73.27753346
_cell_angle_gamma   70.28657561
_symmetry_Int_Tables_number   1
_chemical_formula_structural   ZnH18C14(NO)4
_chemical_formula_sum   'Zn4 H72 C56 N16 O16'
_cell_volume   1796.14856593
_cell_formula_units_Z   4
loop_
 _symmetry_equiv_pos_site_id
 _symmetry_equiv_pos_as_xyz
  1  'x, y, z'
loop_
 _atom_site_type_symbol
 _atom_site_label
 _atom_site_symmetry_multiplicity
 _atom_site_fract_x
 _atom_site_fract_y
 _atom_site_fract_z
 _atom_site_occupancy
 _atom_site_pbe_bader_charge
 _atom_site_pbe_bader_spin_density
 _atom_site_pbe_cm5_charge
 _atom_site_pbe_ddec_charge
 _atom_site_pbe_ddec_spin_density
 _atom_site_pbe_ddec_sum_bond_order
 _atom_site_pbe_magmom
Zn  Zn0  1  0.78236056  0.07222862  0.42792020  1  1.246379  0  0.682611  0.765678  0  2.465569  0
Zn  Zn1  1  0.85412232  0.92760553  0.92794274  1  1.249116  0  0.682375  0.765531  0  2.466637  0
Zn  Zn2  1  0.63736094  0.60459654  0.50478052  1  1.250251  0  0.678719  0.76794  0  2.42878  0
Zn  Zn3  1  0.24122539  0.39540912  0.00477382  1  1.251328  0  0.67978  0.76946  0  2.428878  0
H  H4  1  0.22942323  0.76120691  0.32435507  1  0.028497  0  0.0916  0.094733  0  1.03369  0
H  H5  1  0.99013657  0.23855515  0.82429217  1  0.034357  0  0.090926  0.0945  0  1.033483  0
H  H6  1  0.09101111  0.73306423  0.28058350  1  0.020188  0  0.097154  0.112595  0  1.00746  0
H  H7  1  0.82384014  0.26658376  0.78033597  1  0.058133  0  0.09731  0.112304  0  1.006832  0
H  H8  1  0.14557789  0.62726133  0.41677342  1  0.034814  0  0.090786  0.09812  0  1.0165  0
H  H9  1  0.77186582  0.37255328  0.91649606  1  0.015785  0  0.091644  0.098166  0  1.017394  0
H  H10  1  0.03768187  0.74953750  0.47024648  1  0.062905  0  0.097862  0.115138  0  0.999118  0
H  H11  1  0.78654279  0.25037009  0.97005792  1  0.046896  0  0.097512  0.114882  0  0.99992  0
H  H12  1  0.63610011  0.18879047  0.70251567  1  0.036337  0  0.096882  0.113772  0  0.99498  0
H  H13  1  0.82488634  0.81137225  0.20256572  1  0.070122  0  0.096065  0.113985  0  0.994459  0
H  H14  1  0.81166978  0.21649669  0.64313700  1  0.093554  0  0.096682  0.116853  0  0.987219  0
H  H15  1  0.02811539  0.78352216  0.14306461  1  0.068889  0  0.09752  0.118017  0  0.986293  0
H  H16  1  0.59877867  0.37449405  0.72837231  1  0.043102  0  0.094504  0.105802  0  1.013869  0
H  H17  1  0.97306878  0.62563155  0.22842959  1  0.02531  0  0.095288  0.106078  0  1.013201  0
H  H18  1  0.45806508  0.37447404  0.67374312  1  0.062146  0  0.093438  0.104682  0  1.009407  0
H  H19  1  0.83209560  0.62582136  0.17390425  1  0.065902  0  0.093183  0.103923  0  1.009178  0
H  H20  1  0.86547910  0.14317476  0.23083063  1  0.131116  0  0.1196  0.118141  0  1.012801  0
H  H21  1  0.00870509  0.85687965  0.73082840  1  0.126489  0  0.119176  0.117117  0  1.012961  0
H  H22  1  0.96959944  0.32343393  0.18560223  1  0.164881  0  0.121168  0.129391  0  1.037834  0
H  H23  1  0.29338610  0.67678056  0.68559735  1  0.169187  0  0.121409  0.129602  0  1.038356  0
H  H24  1  0.87154761  0.28045923  0.44813132  1  0.208158  0  0.137445  0.12259  0  1.039388  0
H  H25  1  0.15184014  0.71962560  0.94816684  1  0.208258  0  0.136948  0.122218  0  1.040182  0
H  H26  1  0.64968845  0.66767050  0.31523035  1  0.137026  0  0.121534  0.126397  0  1.032164  0
H  H27  1  0.31715964  0.33234385  0.81502960  1  0.166347  0  0.121602  0.126414  0  1.033118  0
H  H28  1  0.55747193  0.55447376  0.21467224  1  0.131044  0  0.134418  0.137898  0  0.975536  0
H  H29  1  0.11215554  0.44599336  0.71439200  1  0.12675  0  0.134017  0.13826  0  0.97563  0
H  H30  1  0.52938214  0.41001590  0.45467956  1  0.203362  0  0.140373  0.124071  0  1.010721  0
H  H31  1  0.93922632  0.59007426  0.95457826  1  0.208422  0  0.140565  0.123993  0  1.011217  0
H  H32  1  0.96143332  0.43352335  0.39042301  1  0.096216  0  0.117129  0.106056  0  0.984359  0
H  H33  1  0.39508799  0.56675255  0.89050017  1  0.095827  0  0.116717  0.106379  0  0.983154  0
H  H34  1  0.96078593  0.47508556  0.28555051  1  0.097999  0  0.111165  0.096601  0  1.002869  0
H  H35  1  0.43602118  0.52504220  0.78564985  1  0.0812  0  0.11158  0.096509  0  1.00208  0
H  H36  1  0.23276954  0.28436049  0.32876425  1  0.031687  0  0.087798  0.075237  0  1.020077  0
H  H37  1  0.51705992  0.71588386  0.82870882  1  0.023732  0  0.088272  0.075624  0  1.01965  0
H  H38  1  0.23540171  0.34622071  0.22924962  1  0.013231  0  0.094143  0.09476  0  0.986088  0
H  H39  1  0.58149742  0.65397957  0.72919382  1  0.019074  0  0.094616  0.094756  0  0.986049  0
H  H40  1  0.21802909  0.45810361  0.38618417  1  0.009794  0  0.099227  0.09674  0  0.978117  0
H  H41  1  0.67639479  0.54222783  0.88607405  1  0.012875  0  0.099379  0.096619  0  0.977578  0
H  H42  1  0.24415434  0.51153954  0.28348410  1  0.024452  0  0.098908  0.100011  0  0.969729  0
H  H43  1  0.75592967  0.48875926  0.78335964  1  0.044636  0  0.098992  0.099917  0  0.969256  0
H  H44  1  0.48959828  0.31331733  0.34001958  1  0.07258  0  0.115478  0.09811  0  0.984721  0
H  H45  1  0.80297108  0.68706834  0.83985782  1  0.073506  0  0.115467  0.09798  0  0.985067  0
H  H46  1  0.51891373  0.36632872  0.23706378  1  0.07261  0  0.116521  0.098033  0  0.954969  0
H  H47  1  0.88522323  0.63402082  0.73689690  1  0.068399  0  0.116698  0.098655  0  0.955748  0
H  H48  1  0.38981911  0.20327308  0.46061730  1  0.145629  0  0.121063  0.126587  0  1.009538  0
H  H49  1  0.59247613  0.79664301  0.96084188  1  0.155182  0  0.121227  0.126503  0  1.010305  0
H  H50  1  0.18740436  0.10624934  0.41885821  1  0.126806  0  0.12734  0.130687  0  1.005299  0
H  H51  1  0.29282528  0.89379138  0.91924017  1  0.137313  0  0.126979  0.130169  0  1.006698  0
H  H52  1  0.67838094  0.89640121  0.36159491  1  0.217006  0  0.138416  0.119121  0  1.036806  0
H  H53  1  0.57445501  0.10330800  0.86149884  1  0.22874  0  0.137503  0.119113  0  1.037362  0
H  H54  1  0.98284448  0.25625938  0.02329678  1  0.090816  0  0.122017  0.117205  0  1.00381  0
H  H55  1  0.23976198  0.74342588  0.52310051  1  0.105149  0  0.122159  0.11706  0  1.00443  0
H  H56  1  0.06655399  0.04762559  0.08399395  1  0.158355  0  0.137982  0.148504  0  0.971686  0
H  H57  1  0.11411834  0.95197429  0.58404983  1  0.162295  0  0.138575  0.149272  0  0.972028  0
H  H58  1  0.45403544  0.17104099  0.06193634  1  0.159996  0  0.14545  0.117384  0  0.971226  0
H  H59  1  0.62514912  0.82923832  0.56174418  1  0.129018  0  0.146084  0.118441  0  0.969416  0
H  H60  1  0.43225402  0.82238855  0.37611675  1  0.091096  0  0.109991  0.08859  0  1.014933  0
H  H61  1  0.25402519  0.17751905  0.87630107  1  0.073294  0  0.110061  0.089514  0  1.013866  0
H  H62  1  0.23890846  0.91828921  0.37676851  1  0.085087  0  0.113847  0.099542  0  1.007732  0
H  H63  1  0.15654818  0.08162644  0.87694064  1  0.086089  0  0.114569  0.099695  0  1.007662  0
H  H64  1  0.55446547  0.87691889  0.23052463  1  0.011828  0  0.096413  0.094996  0  0.990324  0
H  H65  1  0.43091405  0.12288572  0.73072878  1  0.027802  0  0.096889  0.095513  0  0.989497  0
H  H66  1  0.39329617  0.82676227  0.23655258  1  0.033704  0  0.098801  0.098129  0  0.984045  0
H  H67  1  0.21956651  0.17317119  0.73671075  1  0.038462  0  0.098702  0.097661  0  0.985308  0
H  H68  1  0.36057131  0.06469006  0.23059420  1  0.003267  0  0.089762  0.084081  0  0.988982  0
H  H69  1  0.42459820  0.93518236  0.73075753  1  0.001004  0  0.089343  0.083142  0  0.989923  0
H  H70  1  0.19635577  0.01386461  0.24103850  1  0.077749  0  0.095404  0.104876  0  1.009812  0
H  H71  1  0.20958171  0.98611205  0.74110169  1  0.079675  0  0.095014  0.103599  0  1.009983  0
H  H72  1  0.50741830  0.96937163  0.09252705  1  0.114859  0  0.114816  0.099998  0  0.977806  0
H  H73  1  0.47647605  0.03053808  0.59273960  1  0.105026  0  0.116045  0.101106  0  0.977694  0
H  H74  1  0.34419118  0.91819840  0.10398830  1  0.075471  0  0.116653  0.098347  0  0.965064  0
H  H75  1  0.26208198  0.08174063  0.60406212  1  0.075006  0  0.117188  0.099075  0  0.964465  0
C  C76  1  0.99788987  0.88517228  0.34039727  1  1.544354  0  0.191387  0.609347  0  4.18352  0
C  C77  1  0.88281049  0.11449366  0.84018973  1  1.541039  0  0.191719  0.611921  0  4.183318  0
C  C78  1  0.09991625  0.76683886  0.33584278  1  0.00453  0  -0.173248  -0.281161  0  3.960539  0
C  C79  1  0.86633257  0.23284657  0.83565513  1  -0.037658  0  -0.17233  -0.280768  0  3.958991  0
C  C80  1  0.05102586  0.70490584  0.41498445  1  -0.024608  0  -0.173303  -0.280501  0  3.972138  0
C  C81  1  0.75520935  0.29483123  0.91476184  1  0.006425  0  -0.174111  -0.280799  0  3.974498  0
C  C82  1  0.88816287  0.68603362  0.42681176  1  1.55144  0  0.198156  0.620267  0  4.159932  0
C  C83  1  0.57348325  0.31355754  0.92659092  1  1.55877  0  0.19712  0.619785  0  4.159273  0
C  C84  1  0.66125715  0.19950052  0.57035750  1  1.563381  0  0.19271  0.620058  0  4.176551  0
C  C85  1  0.86029478  0.80055401  0.07045221  1  1.561804  0  0.192232  0.620528  0  4.172848  0
C  C86  1  0.67980874  0.23702404  0.64928119  1  -0.061317  0  -0.171747  -0.279252  0  3.968249  0
C  C87  1  0.91669170  0.76308457  0.14930579  1  -0.069105  0  -0.171188  -0.280952  0  3.966129  0
C  C88  1  0.58982107  0.35464390  0.66766032  1  -0.024523  0  -0.171976  -0.281338  0  3.981831  0
C  C89  1  0.94415431  0.64551551  0.16774029  1  -0.006224  0  -0.173119  -0.28042  0  3.980825  0
C  C90  1  0.65164521  0.42845117  0.60110219  1  1.551117  0  0.19392  0.625639  0  4.150393  0
C  C91  1  0.07955447  0.57163911  0.10111359  1  1.536832  0  0.194022  0.62649  0  4.149228  0
C  C92  1  0.88093340  0.19879879  0.26857906  1  0.373912  0  -0.004642  -0.044765  0  4.029979  0
C  C93  1  0.07981833  0.80130181  0.76858351  1  0.373026  0  -0.004602  -0.042898  0  4.026136  0
C  C94  1  0.93304170  0.28599913  0.24542098  1  0.287551  0  -0.002905  -0.115643  0  3.919093  0
C  C95  1  0.21926792  0.71418714  0.74542177  1  0.285944  0  -0.004007  -0.117182  0  3.917752  0
C  C96  1  0.88683239  0.26341246  0.38304099  1  0.949895  0  0.139216  0.076393  0  3.898865  0
C  C97  1  0.15015502  0.73666580  0.88307548  1  0.945022  0  0.13928  0.077375  0  3.900433  0
C  C98  1  0.60588519  0.59974264  0.32893859  1  0.390233  0  -0.003166  -0.046139  0  4.011481  0
C  C99  1  0.20547523  0.40032592  0.82875659  1  0.35221  0  -0.003119  -0.04499  0  4.01144  0
C  C100  1  0.56332569  0.54381981  0.27916473  1  0.294647  0  0.0033  -0.111404  0  3.926405  0
C  C101  1  0.10720798  0.45645452  0.77894169  1  0.316362  0  0.002703  -0.112474  0  3.929345  0
C  C102  1  0.54635704  0.46739262  0.40442299  1  0.94057  0  0.147699  0.092405  0  3.871324  0
C  C103  1  0.01364922  0.53273108  0.90429299  1  0.942059  0  0.148465  0.09378  0  3.871047  0
C  C104  1  0.00647762  0.40717386  0.32474914  1  0.267864  0  -0.049852  -0.066511  0  3.85219  0
C  C105  1  0.41377411  0.59300938  0.82480615  1  0.293483  0  -0.050101  -0.065722  0  3.849346  0
C  C106  1  0.19417800  0.36158404  0.29718634  1  0.020265  0  -0.161456  -0.158839  0  3.937476  0
C  C107  1  0.55577466  0.63863990  0.79713126  1  0.015302  0  -0.163364  -0.160687  0  3.939244  0
C  C108  1  0.27184515  0.43671388  0.31932097  1  0.030638  0  -0.159283  -0.161719  0  3.932528  0
C  C109  1  0.70870835  0.56360437  0.81920198  1  -0.005892  0  -0.159136  -0.160764  0  3.934059  0
C  C110  1  0.45788568  0.38682290  0.30348043  1  0.290864  0  -0.046267  -0.065539  0  3.890799  0
C  C111  1  0.84478999  0.61354522  0.80332148  1  0.305774  0  -0.046935  -0.066333  0  3.891698  0
C  C112  1  0.41848768  0.12738502  0.43109739  1  0.411212  0  -0.003894  -0.050505  0  4.024851  0
C  C113  1  0.54528782  0.87248704  0.93126985  1  0.378801  0  -0.002795  -0.0501  0  4.02442  0
C  C114  1  0.31866012  0.08000955  0.41182332  1  0.253084  0  0.000638  -0.116726  0  3.931818  0
C  C115  1  0.39794001  0.91995600  0.91211859  1  0.270254  0  -2.9e-05  -0.115873  0  3.933623  0
C  C116  1  0.57481427  0.96904434  0.38080193  1  0.936038  0  0.146495  0.09508  0  3.875281  0
C  C117  1  0.54339897  0.03074128  0.88083262  1  0.928501  0  0.149157  0.098521  0  3.871819  0
C  C118  1  0.09249903  0.20811706  0.04113730  1  0.403434  0  0.001504  -0.034082  0  4.000318  0
C  C119  1  0.30105783  0.79169399  0.54094560  1  0.390916  0  0.000439  -0.034911  0  4.002212  0
C  C120  1  0.13204521  0.10514798  0.07074961  1  0.319027  0  0.014019  -0.094669  0  3.888035  0
C  C121  1  0.23725391  0.89460530  0.57072645  1  0.306809  0  0.014804  -0.093833  0  3.887717  0
C  C122  1  0.33573098  0.16800199  0.06025793  1  0.952126  0  0.146952  0.088203  0  3.920932  0
C  C123  1  0.50386774  0.83207460  0.56011923  1  0.996459  0  0.144793  0.086237  0  3.919629  0
C  C124  1  0.37212031  0.89921459  0.35012146  1  0.265494  0  -0.05513  -0.0805  0  3.889249  0
C  C125  1  0.27069997  0.10068328  0.85030334  1  0.326596  0  -0.055224  -0.080167  0  3.887793  0
C  C126  1  0.42052316  0.89459737  0.25469693  1  0.014897  0  -0.15843  -0.158964  0  3.937178  0
C  C127  1  0.31456665  0.10528702  0.75487364  1  -0.030639  0  -0.16035  -0.16084  0  3.938219  0
C  C128  1  0.32991762  0.99654536  0.21555616  1  -0.015227  0  -0.169551  -0.176834  0  3.947221  0
C  C129  1  0.32587414  0.00336731  0.71567890  1  -0.033495  0  -0.166988  -0.172273  0  3.944093  0
C  C130  1  0.37505257  0.98493240  0.12077952  1  0.252374  0  -0.046245  -0.060454  0  3.883269  0
C  C131  1  0.35962934  0.01498661  0.62088039  1  0.270742  0  -0.049016  -0.063844  0  3.886858  0
N  N132  1  0.85247115  0.18585841  0.35443645  1  -1.2478  0  -0.364967  -0.297978  0  3.646723  0
N  N133  1  0.03818330  0.81416720  0.85446191  1  -1.249087  0  -0.364916  -0.297786  0  3.646408  0
N  N134  1  0.93568375  0.32543905  0.31855356  1  -1.245035  0  -0.245242  0.052259  0  3.778862  0
N  N135  1  0.26121216  0.67471089  0.81858067  1  -1.234841  0  -0.242788  0.052382  0  3.778548  0
N  N136  1  0.59476230  0.55134585  0.40677404  1  -1.231701  0  -0.35614  -0.286231  0  3.61024  0
N  N137  1  0.14584970  0.44863546  0.90664507  1  -1.243082  0  -0.356454  -0.287937  0  3.61029  0
N  N138  1  0.52684647  0.46039533  0.32760156  1  -1.225772  0  -0.241294  0.042554  0  3.790112  0
N  N139  1  0.98735295  0.53992463  0.82740388  1  -1.233675  0  -0.241259  0.041427  0  3.791222  0
N  N140  1  0.57764718  0.05715967  0.41135518  1  -1.23317  0  -0.361684  -0.2914  0  3.626095  0
N  N141  1  0.63434905  0.94261895  0.91138231  1  -1.225073  0  -0.362459  -0.292494  0  3.624944  0
N  N142  1  0.41964103  0.98005396  0.38049083  1  -1.22631  0  -0.242839  0.050423  0  3.771611  0
N  N143  1  0.39908575  0.01983091  0.88066501  1  -1.248071  0  -0.243962  0.046426  0  3.772574  0
N  N144  1  0.22063748  0.24636767  0.03485738  1  -1.219849  0  -0.358052  -0.297178  0  3.610335  0
N  N145  1  0.46747374  0.75364178  0.53461935  1  -1.237094  0  -0.356263  -0.295541  0  3.611977  0
N  N146  1  0.28658702  0.08124497  0.08236726  1  -1.229135  0  -0.239588  0.042815  0  3.793153  0
N  N147  1  0.36773039  0.91868172  0.58236263  1  -1.225266  0  -0.239755  0.042095  0  3.793074  0
O  O148  1  0.94157395  0.92595348  0.41562221  1  -1.175147  0  -0.35244  -0.572989  0  2.282561  0
O  O149  1  0.86738941  0.07377724  0.91541920  1  -1.175776  0  -0.351921  -0.57383  0  2.284045  0
O  O150  1  0.97690648  0.93630355  0.27544717  1  -1.195862  0  -0.340979  -0.572879  0  2.087948  0
O  O151  1  0.91282347  0.06337599  0.77524048  1  -1.192428  0  -0.341589  -0.574306  0  2.086915  0
O  O152  1  0.84927682  0.62720142  0.49104410  1  -1.184138  0  -0.35697  -0.581896  0  2.280023  0
O  O153  1  0.47580200  0.37251484  0.99078583  1  -1.18358  0  -0.356828  -0.581956  0  2.280259  0
O  O154  1  0.80152825  0.72589081  0.37731294  1  -1.198648  0  -0.325174  -0.562781  0  2.144543  0
O  O155  1  0.52675529  0.27359155  0.87714597  1  -1.20405  0  -0.32434  -0.561884  0  2.144122  0
O  O156  1  0.76830703  0.10765889  0.54247596  1  -1.190186  0  -0.362365  -0.584348  0  2.268219  0
O  O157  1  0.87522235  0.89243104  0.04255277  1  -1.183772  0  -0.362715  -0.584501  0  2.266976  0
O  O158  1  0.55141868  0.25405527  0.53652607  1  -1.207254  0  -0.348778  -0.59099  0  2.095056  0
O  O159  1  0.80496252  0.74594351  0.03670378  1  -1.2146  0  -0.348164  -0.591252  0  2.093707  0
O  O160  1  0.55715700  0.52792565  0.60767230  1  -1.191753  0  -0.357155  -0.590111  0  2.268393  0
O  O161  1  0.08424956  0.47222613  0.10760882  1  -1.18857  0  -0.357222  -0.59016  0  2.266202  0
O  O162  1  0.78252583  0.39519360  0.54409263  1  -1.204099  0  -0.334893  -0.568906  0  2.122978  0
O  O163  1  0.17729426  0.60477973  0.04410179  1  -1.197157  0  -0.334507  -0.569845  0  2.123841  0
