# generated using pymatgen
data_ZnH16C24I9NO4
_symmetry_space_group_name_H-M   'P 1'
_cell_length_a   14.54975483
_cell_length_b   16.07472618
_cell_length_c   15.96249099
_cell_angle_alpha   90.91752598
_cell_angle_beta   93.28029890
_cell_angle_gamma   90.78528994
_symmetry_Int_Tables_number   1
_chemical_formula_structural   ZnH16C24I9NO4
_chemical_formula_sum   'Zn2 H32 C48 I18 N2 O8'
_cell_volume   3726.36582588
_cell_formula_units_Z   2
loop_
 _symmetry_equiv_pos_site_id
 _symmetry_equiv_pos_as_xyz
  1  'x, y, z'
loop_
 _atom_site_type_symbol
 _atom_site_label
 _atom_site_symmetry_multiplicity
 _atom_site_fract_x
 _atom_site_fract_y
 _atom_site_fract_z
 _atom_site_occupancy
 _atom_site_pbe_bader_charge
 _atom_site_pbe_bader_spin_density
 _atom_site_pbe_cm5_charge
 _atom_site_pbe_ddec_charge
 _atom_site_pbe_ddec_spin_density
 _atom_site_pbe_ddec_sum_bond_order
 _atom_site_pbe_magmom
Zn  Zn0  1  0.59606122  0.50536583  0.50526758  1  1.305899  0  0.690338  0.888496  0  2.454718  0
Zn  Zn1  1  0.40304006  0.50012474  0.49210434  1  1.322079  0  0.689009  0.885536  0  2.459353  0
H  H2  1  0.94462721  0.38136155  0.45781090  1  0.132695  0  0.077935  0.086757  0  1.118345  0
H  H3  1  0.64914663  0.55702867  0.84120351  1  0.08072  0  0.09178  0.151494  0  0.996618  0
H  H4  1  0.69443515  0.62334964  0.92400059  1  0.058597  0  0.078145  0.131935  0  1.02998  0
H  H5  1  0.66047489  0.99045359  0.35269212  1  0.03627  0  0.091808  0.13502  0  0.997153  0
H  H6  1  0.67628514  0.89971372  0.41452229  1  0.056442  0  0.09502  0.139517  0  0.991909  0
H  H7  1  0.58665208  0.90185149  0.33385257  1  0.06669  0  0.0967  0.141621  0  0.986334  0
H  H8  1  0.04565176  0.47710042  0.28248080  1  0.07321  0  0.084441  0.146348  0  1.009317  0
H  H9  1  0.04066787  0.57314467  0.33666546  1  0.027074  0  0.058226  0.11175  0  1.131854  0
H  H10  1  0.14692753  0.51986002  0.33506407  1  0.102741  0  0.092304  0.155345  0  0.984026  0
H  H11  1  0.06192650  0.70509847  0.59590855  1  0.067683  0  0.083773  0.146395  0  1.015773  0
H  H12  1  0.04111007  0.61042949  0.64693970  1  0.077916  0  0.062296  0.115965  0  1.099081  0
H  H13  1  0.53922938  0.61602535  0.07085133  1  0.149373  0  0.074773  0.095957  0  1.114851  0
H  H14  1  0.15268999  0.63337733  0.61125900  1  0.082502  0  0.088399  0.153761  0  0.996782  0
H  H15  1  0.05053112  0.32404677  0.52689344  1  0.058592  0  0.067121  0.114271  0  1.096141  0
H  H16  1  0.16181775  0.35487814  0.56905791  1  0.09177  0  0.093571  0.158253  0  0.983025  0
H  H17  1  0.07331037  0.32883548  0.63664582  1  0.072461  0  0.087873  0.150252  0  0.99359  0
H  H18  1  0.27137190  0.99818867  0.44465315  1  0.038522  0  0.09064  0.133411  0  0.999563  0
H  H19  1  0.31669818  0.90735306  0.39730450  1  0.052116  0  0.093758  0.137731  0  0.991211  0
H  H20  1  0.29121208  0.90714265  0.50523596  1  0.032642  0  0.092943  0.135585  0  0.99784  0
H  H21  1  0.57025417  0.99288895  0.70928261  1  0.064449  0  0.091766  0.134809  0  0.998075  0
H  H22  1  0.49687480  0.90439825  0.68798370  1  0.054784  0  0.09553  0.140511  0  0.988077  0
H  H23  1  0.61402939  0.90159345  0.66148521  1  0.081558  0  0.095105  0.139636  0  0.990247  0
H  H24  1  0.35099960  0.37053638  0.96078376  1  0.053553  0  0.061558  0.106182  0  1.11557  0
H  H25  1  0.25415194  0.51292011  0.06812574  1  0.061451  0  0.087478  0.141198  0  0.990645  0
H  H26  1  0.30693610  0.41439697  0.07727259  1  0.071484  0  0.073563  0.12652  0  1.072413  0
H  H27  1  0.32752485  0.49077172  0.15761401  1  0.106884  0  0.091233  0.151806  0  0.996778  0
H  H28  1  0.25985990  0.44018247  0.94049916  1  0.058974  0  0.088003  0.144719  0  0.993824  0
H  H29  1  0.33113781  0.41164248  0.85859014  1  0.087707  0  0.080227  0.136853  0  1.021336  0
H  H30  1  0.68501587  0.42222830  0.97003821  1  0.056052  0  0.076713  0.124548  0  1.065685  0
H  H31  1  0.65359123  0.32115613  0.93643635  1  0.075372  0  0.083364  0.139064  0  1.01521  0
H  H32  1  0.64527857  0.40271918  0.86261822  1  0.076696  0  0.098254  0.15953  0  0.973396  0
H  H33  1  0.70827584  0.51614266  0.93208440  1  0.059734  0  0.081412  0.132387  0  1.052169  0
C  C34  1  0.49686640  0.49969021  0.33651177  1  1.677977  0  0.223242  0.667626  0  4.232963  0
C  C35  1  0.39861083  0.51773740  0.04524729  1  -0.093044  0  -0.000554  0.120926  0  3.435784  0
C  C36  1  0.39361748  0.50103541  0.94848941  1  -0.119505  0  -0.010137  0.111923  0  3.480861  0
C  C37  1  0.50187819  0.34165436  0.49886429  1  1.640067  0  0.219172  0.665404  0  4.243227  0
C  C38  1  0.49815325  0.49325289  0.75068566  1  0.281034  0  -0.032334  -0.144199  0  3.9211  0
C  C39  1  0.50052019  0.48945610  0.08030363  1  0.148781  0  -0.003862  0.093439  0  3.790991  0
C  C40  1  0.56723740  0.56054685  0.95068413  1  -0.08077  0  -0.000202  0.175298  0  3.472255  0
C  C41  1  0.49528668  0.48967160  0.91621151  1  0.121707  0  0.004998  0.037698  0  3.710923  0
C  C42  1  0.53677493  0.40073870  0.95068299  1  -0.096297  0  -0.004433  0.133499  0  3.428205  0
C  C43  1  0.52465733  0.39852979  0.04778045  1  -0.232985  0  -0.023028  0.024916  0  3.258217  0
C  C44  1  0.49352893  0.48839806  0.82599847  1  -0.559507  0  -0.055914  -0.061731  0  4.153511  0
C  C45  1  0.50455021  0.08904451  0.50255646  1  0.080841  0  -0.001446  0.085172  0  3.859822  0
C  C46  1  0.50326879  0.49254574  0.17070140  1  0.183402  0  -0.063916  -0.080422  0  4.15892  0
C  C47  1  0.49953537  0.49633494  0.24627621  1  -0.450473  0  -0.0306  -0.13263  0  3.915407  0
C  C48  1  0.04985577  0.46312142  0.41584084  1  -0.106654  0  -0.010009  0.161932  0  3.553517  0
C  C49  1  0.50088460  0.49920178  0.66080067  1  1.715132  0  0.220397  0.66629  0  4.24004  0
C  C50  1  0.05176921  0.59965027  0.51108342  1  -0.112927  0  -0.015452  0.126802  0  3.519112  0
C  C51  1  0.94499101  0.59695341  0.49217066  1  -0.230079  0  -0.035779  0.007879  0  3.327135  0
C  C52  1  0.08798379  0.50461147  0.50369665  1  0.148052  0  0.014239  -0.021847  0  3.672049  0
C  C53  1  0.94902413  0.44342435  0.43093272  1  -0.191778  0  -0.118455  -0.126371  0  3.650892  0
C  C54  1  0.91219598  0.50311987  0.50281256  1  0.180659  0  -0.003968  0.040619  0  3.796306  0
C  C55  1  0.95104311  0.45902961  0.58743685  1  -0.246875  0  -0.031379  0.007888  0  3.296262  0
C  C56  1  0.52688866  0.97428790  0.57989763  1  0.013758  0  0.002514  0.123673  0  3.692099  0
C  C57  1  0.05801220  0.44975976  0.58249433  1  -0.088107  0  -0.018543  0.11397  0  3.469335  0
C  C58  1  0.81259274  0.50137893  0.50114748  1  0.853858  0  0.191417  0.253073  0  4.04144  0
C  C59  1  0.18710684  0.50563627  0.50316511  1  0.877514  0  0.213463  0.290698  0  3.990031  0
C  C60  1  0.49847975  0.66401822  0.50057349  1  1.696507  0  0.218164  0.668739  0  4.252328  0
C  C61  1  0.56054912  0.97285983  0.44434990  1  0.015121  0  0.001284  0.118801  0  3.694846  0
C  C62  1  0.47597314  0.03018924  0.42453816  1  -0.148281  0  -0.029544  -0.016792  0  3.503455  0
C  C63  1  0.50361891  0.25196620  0.50068262  1  0.189368  0  -0.035868  -0.152296  0  3.954307  0
C  C64  1  0.49731084  0.75383937  0.50095866  1  0.212521  0  -0.0464  -0.186292  0  3.967197  0
C  C65  1  0.58755983  0.02899575  0.52343492  1  -0.142505  0  -0.030968  -0.020069  0  3.505722  0
C  C66  1  0.33046862  0.42591833  0.92578739  1  -0.112387  0  -0.277108  -0.4267  0  3.94249  0
C  C67  1  0.49784408  0.91733052  0.50018500  1  0.136414  0  0.007889  0.028259  0  3.77  0
C  C68  1  0.63660302  0.38667421  0.92818874  1  -0.092395  0  -0.26874  -0.429263  0  3.933353  0
C  C69  1  0.66047737  0.56336537  0.90953249  1  -0.088427  0  -0.272055  -0.440177  0  3.935889  0
C  C70  1  0.62454060  0.93941109  0.38291753  1  -0.038115  0  -0.241679  -0.418776  0  3.993603  0
C  C71  1  0.07230142  0.51197942  0.33842666  1  -0.088776  0  -0.28043  -0.458681  0  3.962101  0
C  C72  1  0.07863611  0.63899733  0.59691800  1  -0.116766  0  -0.282181  -0.451533  0  3.966256  0
C  C73  1  0.08788992  0.35908904  0.57774620  1  -0.10833  0  -0.276855  -0.448927  0  3.974517  0
C  C74  1  0.31764765  0.94541397  0.45518956  1  -0.023729  0  -0.242825  -0.418791  0  4.002543  0
C  C75  1  0.55358603  0.94156580  0.66440733  1  -0.071718  0  -0.241102  -0.420009  0  3.998332  0
C  C76  1  0.31709824  0.48094453  0.08966289  1  -0.130849  0  -0.269476  -0.428771  0  3.934748  0
C  C77  1  0.44320245  0.03163282  0.55726921  1  -0.157786  0  -0.030676  -0.020275  0  3.508283  0
C  C78  1  0.41289379  0.97556441  0.47897804  1  0.041268  0  -3e-06  0.118451  0  3.69766  0
C  C79  1  0.50547353  0.17641845  0.50239752  1  -0.39195  0  -0.05237  -0.064508  0  4.146312  0
C  C80  1  0.49651912  0.82955734  0.50034923  1  -0.561655  0  -0.036296  -0.026854  0  4.086567  0
C  C81  1  0.56769891  0.55838517  0.04676296  1  -0.21107  0  -0.113755  -0.115626  0  3.61129  0
I  I82  1  0.43766469  0.07528946  0.30370884  1  0.060656  0  0.032369  -0.066164  0  1.264821  0
I  I83  1  0.88733401  0.64172490  0.36920230  1  0.133571  0  0.095655  0.015809  0  1.678853  0
I  I84  1  0.87115146  0.68782052  0.57053893  1  0.124475  0  0.086531  0.013752  0  1.569065  0
I  I85  1  0.14962351  0.48346549  0.70181535  1  0.063975  0  0.068026  -0.047089  0  1.576421  0
I  I86  1  0.87236798  0.33494676  0.58723146  1  0.102463  0  0.104186  0.024043  0  1.499412  0
I  I87  1  0.11838854  0.34348574  0.37929844  1  0.051893  0  0.082623  -0.027948  0  1.362185  0
I  I88  1  0.90318452  0.51013108  0.70470453  1  0.144643  0  0.085942  0.011505  0  1.662543  0
I  I89  1  0.35281683  0.07873798  0.64562938  1  0.057619  0  0.033503  -0.062745  0  1.249172  0
I  I90  1  0.72376659  0.07095373  0.55767515  1  0.047816  0  0.025208  -0.072224  0  1.258829  0
I  I91  1  0.52511751  0.69074074  0.90912088  1  -0.009216  0  0.016084  -0.101713  0  1.486977  0
I  I92  1  0.38137157  0.65101163  0.09109941  1  0.031665  0  0.056257  -0.062571  0  1.523986  0
I  I93  1  0.30835008  0.59297044  0.87257946  1  0.051391  0  0.055153  -0.049501  0  1.622078  0
I  I94  1  0.65211292  0.35357643  0.12101143  1  0.064278  0  0.047382  -0.03793  0  1.594472  0
I  I95  1  0.43218147  0.30024193  0.09459905  1  0.102791  0  0.081334  -0.01138  0  1.646242  0
I  I96  1  0.70319874  0.57711785  0.11254622  1  0.03946  0  0.03063  -0.053606  0  1.46625  0
I  I97  1  0.47699330  0.29116636  0.87324732  1  0.052472  0  0.0622  -0.059062  0  1.476577  0
I  I98  1  0.85821050  0.41773785  0.32068602  1  0.122153  0  0.074595  0.003657  0  1.539293  0
I  I99  1  0.12899248  0.68832686  0.43352240  1  0.09209  0  0.100899  0.001574  0  1.445674  0
N  N100  1  0.73347273  0.50471062  0.50315009  1  -1.120208  0  -0.282719  -0.25949  0  3.167642  0
N  N101  1  0.26558672  0.50198650  0.49605130  1  -1.145627  0  -0.283347  -0.275082  0  3.147691  0
O  O102  1  0.57430049  0.49614918  0.37703476  1  -1.130121  0  -0.305485  -0.532665  0  2.273501  0
O  O103  1  0.41748776  0.50568507  0.36543829  1  -1.133088  0  -0.310861  -0.532874  0  2.242467  0
O  O104  1  0.57928455  0.37887679  0.51122594  1  -1.13083  0  -0.310213  -0.537165  0  2.271421  0
O  O105  1  0.42328900  0.37417986  0.48523113  1  -1.131782  0  -0.312368  -0.539466  0  2.260983  0
O  O106  1  0.57988304  0.51066047  0.63237735  1  -1.140592  0  -0.310648  -0.53514  0  2.245043  0
O  O107  1  0.42355329  0.49240598  0.62002238  1  -1.134189  0  -0.307564  -0.538333  0  2.285589  0
O  O108  1  0.57742317  0.63089492  0.49950915  1  -1.135706  0  -0.314618  -0.543767  0  2.271178  0
O  O109  1  0.42063781  0.62701502  0.50115442  1  -1.146982  0  -0.314252  -0.549024  0  2.276868  0
