# generated using pymatgen
data_ZnH9C17N2(ClO)3
_symmetry_space_group_name_H-M   'P 1'
_cell_length_a   8.23443609
_cell_length_b   10.69887189
_cell_length_c   12.39739950
_cell_angle_alpha   73.68799760
_cell_angle_beta   73.72543893
_cell_angle_gamma   75.79824482
_symmetry_Int_Tables_number   1
_chemical_formula_structural   ZnH9C17N2(ClO)3
_chemical_formula_sum   'Zn2 H18 C34 N4 Cl6 O6'
_cell_volume   989.63838823
_cell_formula_units_Z   2
loop_
 _symmetry_equiv_pos_site_id
 _symmetry_equiv_pos_as_xyz
  1  'x, y, z'
loop_
 _atom_site_type_symbol
 _atom_site_label
 _atom_site_symmetry_multiplicity
 _atom_site_fract_x
 _atom_site_fract_y
 _atom_site_fract_z
 _atom_site_occupancy
 _atom_site_hle17_bader_spin_density
 _atom_site_hle17_ddec_charge
 _atom_site_hle17_ddec_spin_density
 _atom_site_hle17_ddec_sum_bond_order
 _atom_site_hle17_magmom
 _atom_site_hse06_10hf_bader_spin_density
 _atom_site_hse06_10hf_ddec_charge
 _atom_site_hse06_10hf_ddec_spin_density
 _atom_site_hse06_10hf_ddec_sum_bond_order
 _atom_site_hse06_10hf_magmom
 _atom_site_hse06_bader_spin_density
 _atom_site_hse06_ddec_charge
 _atom_site_hse06_ddec_spin_density
 _atom_site_hse06_ddec_sum_bond_order
 _atom_site_hse06_magmom
 _atom_site_pbe_bader_spin_density
 _atom_site_pbe_cm5_charge
 _atom_site_pbe_ddec_charge
 _atom_site_pbe_ddec_spin_density
 _atom_site_pbe_ddec_sum_bond_order
 _atom_site_pbe_magmom
Zn  Zn0  1  0.67112545  0.64760905  0.40435070  1  0  1.024073  0  1.837338  0  0  0.835747  0  2.304224  0  0  0.883472  0  2.249813  0  0  0.688142  0.801749  0  2.342483  0
Zn  Zn1  1  0.32887263  0.35239026  0.59564879  1  0  1.024074  0  1.83736  0  0  0.835721  0  2.304289  0  0  0.883449  0  2.249877  0  0  0.688121  0.801721  0  2.342545  0
H  H2  1  0.26566508  0.22881288  0.18532437  1  0  0.121708  0  0.934031  0  0  0.132983  0  0.992484  0  0  0.136409  0  0.989853  0  0  0.102443  0.130488  0  0.994405  0
H  H3  1  0.73433476  0.77118443  0.81468092  1  0  0.121694  0  0.934009  0  0  0.132962  0  0.992473  0  0  0.136386  0  0.989843  0  0  0.102448  0.130464  0  0.994401  0
H  H4  1  0.43075164  0.67293214  0.25439645  1  0  0.100873  0  0.954957  0  0  0.108556  0  1.016698  0  0  0.111464  0  1.013989  0  0  0.12026  0.106438  0  1.018577  0
H  H5  1  0.56925188  0.32707110  0.74560107  1  0  0.100859  0  0.955038  0  0  0.108538  0  1.016782  0  0  0.111447  0  1.014073  0  0  0.120263  0.106421  0  1.018658  0
H  H6  1  0.34193866  0.82283046  0.08071733  1  0  0.109914  0  0.945205  0  0  0.123577  0  0.997428  0  0  0.126793  0  0.996254  0  0  0.111539  0.12127  0  0.998405  0
H  H7  1  0.65806569  0.17717475  0.91928037  1  0  0.110005  0  0.94525  0  0  0.123683  0  0.997423  0  0  0.126881  0  0.996272  0  0  0.111575  0.121372  0  0.998395  0
H  H8  1  0.72259262  0.05139699  0.06023437  1  0  0.100925  0  0.971119  0  0  0.107909  0  1.037101  0  0  0.111566  0  1.034877  0  0  0.101034  0.105175  0  1.039045  0
H  H9  1  0.27741813  0.94860225  0.93976274  1  0  0.100977  0  0.97105  0  0  0.107927  0  1.037046  0  0  0.111581  0  1.034828  0  0  0.101039  0.105195  0  1.039  0
H  H10  1  0.79285326  0.89277366  0.23318841  1  0  0.072832  0  0.971617  0  0  0.074632  0  1.046933  0  0  0.077045  0  1.04528  0  0  0.107819  0.073049  0  1.047806  0
H  H11  1  0.20715050  0.10722858  0.76681172  1  0  0.072894  0  0.971578  0  0  0.074677  0  1.046924  0  0  0.077089  0  1.045272  0  0  0.107845  0.073092  0  1.047793  0
H  H12  1  0.04316039  0.67026184  0.38800131  1  0  0.093667  0  0.950187  0  0  0.095857  0  1.022143  0  0  0.099861  0  1.018033  0  0  0.113481  0.093183  0  1.024544  0
H  H13  1  0.95684182  0.32974142  0.61199242  1  0  0.093642  0  0.950211  0  0  0.095871  0  1.022131  0  0  0.099884  0  1.018012  0  0  0.113497  0.093197  0  1.024532  0
H  H14  1  0.19525449  0.82267136  0.42465087  1  0  0.11107  0  0.965469  0  0  0.120656  0  1.026857  0  0  0.124105  0  1.025649  0  0  0.106099  0.118107  0  1.028098  0
H  H15  1  0.80474223  0.17733390  0.57534584  1  0  0.111123  0  0.965513  0  0  0.120717  0  1.026888  0  0  0.124162  0  1.025685  0  0  0.106132  0.118167  0  1.028127  0
H  H16  1  0.69486418  0.04720459  0.54911914  1  0  0.111782  0  0.96042  0  0  0.121736  0  1.02089  0  0  0.125501  0  1.018909  0  0  0.106512  0.119169  0  1.022095  0
H  H17  1  0.30512845  0.95279080  0.45088153  1  0  0.111754  0  0.960487  0  0  0.121727  0  1.020934  0  0  0.12548  0  1.018969  0  0  0.106497  0.11916  0  1.022139  0
H  H18  1  0.56700826  0.88049637  0.51252843  1  0  0.076882  0  0.981391  0  0  0.081929  0  1.054314  0  0  0.084534  0  1.052108  0  0  0.106992  0.079893  0  1.056164  0
H  H19  1  0.43298964  0.11949801  0.48746907  1  0  0.076913  0  0.981411  0  0  0.081974  0  1.054318  0  0  0.084573  0  1.05212  0  0  0.106997  0.079943  0  1.056164  0
C  C20  1  0.79038779  0.34901459  0.33278184  1  0  -0.241755  0  3.729383  0  0  -0.23058  0  3.978476  0  0  -0.24344  0  3.998818  0  0  -0.046259  -0.222519  0  3.965326  0
C  C21  1  0.20960926  0.65098374  0.66721971  1  0  -0.241699  0  3.72934  0  0  -0.230539  0  3.978449  0  0  -0.243398  0  3.998792  0  0  -0.046278  -0.222479  0  3.96529  0
C  C22  1  0.83202289  0.24514428  0.27633046  1  0  0.082625  0  3.806528  0  0  0.075553  0  4.081595  0  0  0.082327  0  4.101816  0  0  0.000272  0.070936  0  4.068202  0
C  C23  1  0.16797693  0.75485303  0.72367323  1  0  0.082676  0  3.806705  0  0  0.075609  0  4.081754  0  0  0.082382  0  4.101973  0  0  0.000318  0.070995  0  4.068352  0
C  C24  1  0.00254799  0.20129111  0.22313428  1  0  0.050222  0  3.830718  0  0  0.05519  0  4.11193  0  0  0.053898  0  4.13341  0  0  -0.019747  0.056173  0  4.097061  0
C  C25  1  0.99745209  0.79870520  0.77687282  1  0  0.050186  0  3.830749  0  0  0.055182  0  4.111919  0  0  0.053892  0  4.133401  0  0  -0.019762  0.056164  0  4.097049  0
C  C26  1  0.13236474  0.26310610  0.22552118  1  0  -0.170278  0  3.807228  0  0  -0.20734  0  4.068518  0  0  -0.205196  0  4.086212  0  0  -0.112292  -0.208255  0  4.05581  0
C  C27  1  0.86763555  0.73688922  0.77448532  1  0  -0.170188  0  3.807093  0  0  -0.207268  0  4.068366  0  0  -0.20512  0  4.086058  0  0  -0.112273  -0.20818  0  4.055663  0
C  C28  1  0.09120076  0.36941294  0.27761214  1  0  0.026766  0  3.758411  0  0  0.038192  0  4.030954  0  0  0.035529  0  4.05182  0  0  -0.008757  0.040178  0  4.016513  0
C  C29  1  0.90879802  0.63058338  0.72239198  1  0  0.026662  0  3.758448  0  0  0.038127  0  4.030942  0  0  0.035463  0  4.051805  0  0  -0.00878  0.04011  0  4.016502  0
C  C30  1  0.91851649  0.41917969  0.33124700  1  0  0.312175  0  3.901379  0  0  0.287441  0  4.162013  0  0  0.304021  0  4.178185  0  0  0.079874  0.276129  0  4.150886  0
C  C31  1  0.08148057  0.58081863  0.66875616  1  0  0.312216  0  3.901317  0  0  0.287488  0  4.161911  0  0  0.304076  0  4.178079  0  0  0.079903  0.27618  0  4.150785  0
C  C32  1  0.61248817  0.38740383  0.40157816  1  0  0.701495  0  3.877248  0  0  0.645824  0  4.172305  0  0  0.683291  0  4.160163  0  0  0.209589  0.620354  0  4.179806  0
C  C33  1  0.38751073  0.61259745  0.59842151  1  0  0.70144  0  3.877267  0  0  0.645741  0  4.172371  0  0  0.683205  0  4.160233  0  0  0.209574  0.620275  0  4.179863  0
C  C34  1  0.49056806  0.75891711  0.20804953  1  0  0.138779  0  3.673169  0  0  0.10889  0  3.91943  0  0  0.115821  0  3.937082  0  0  0.052964  0.104474  0  3.907321  0
C  C35  1  0.50943523  0.24108711  0.79194779  1  0  0.138839  0  3.67334  0  0  0.108945  0  3.9196  0  0  0.115878  0  3.937245  0  0  0.052931  0.104522  0  3.907487  0
C  C36  1  0.44300209  0.84385892  0.11010206  1  0  -0.149117  0  3.701605  0  0  -0.168613  0  3.948451  0  0  -0.176447  0  3.969878  0  0  -0.078479  -0.163641  0  3.934085  0
C  C37  1  0.55700247  0.15614529  0.88989503  1  0  -0.149318  0  3.701809  0  0  -0.168821  0  3.948642  0  0  -0.176642  0  3.970073  0  0  -0.078523  -0.163842  0  3.934264  0
C  C38  1  0.52393767  0.95332759  0.05214372  1  0  0.094587  0  3.751737  0  0  0.104758  0  3.986238  0  0  0.108669  0  4.008177  0  0  0.011756  0.102275  0  3.971386  0
C  C39  1  0.47607264  0.04667362  0.94785381  1  0  0.09466  0  3.751634  0  0  0.104826  0  3.98612  0  0  0.108743  0  4.008046  0  0  0.011715  0.10235  0  3.971261  0
C  C40  1  0.65270037  0.96964865  0.09831549  1  0  -0.154658  0  3.727472  0  0  -0.175839  0  3.979488  0  0  -0.183523  0  4.000705  0  0  -0.08427  -0.170934  0  3.965429  0
C  C41  1  0.34730634  0.03035161  0.90168053  1  0  -0.154708  0  3.727431  0  0  -0.175833  0  3.979418  0  0  -0.183519  0  4.000638  0  0  -0.084263  -0.170935  0  3.965372  0
C  C42  1  0.69368619  0.88031922  0.19649289  1  0  0.129419  0  3.710892  0  0  0.100394  0  3.959657  0  0  0.10697  0  3.978409  0  0  0.045415  0.096153  0  3.946717  0
C  C43  1  0.30631906  0.11968202  0.80350640  1  0  0.129351  0  3.710966  0  0  0.100326  0  3.959718  0  0  0.1069  0  3.978472  0  0  0.045398  0.096088  0  3.946773  0
C  C44  1  0.97244824  0.75643527  0.42251988  1  0  0.140812  0  3.666953  0  0  0.1091  0  3.921585  0  0  0.116443  0  3.93742  0  0  0.048911  0.104285  0  3.911253  0
C  C45  1  0.02755169  0.24356700  0.57747694  1  0  0.140784  0  3.667049  0  0  0.109038  0  3.92167  0  0  0.116375  0  3.937497  0  0  0.048862  0.104221  0  3.911334  0
C  C46  1  0.05531847  0.84311603  0.44324376  1  0  -0.14909  0  3.682242  0  0  -0.170702  0  3.936595  0  0  -0.178274  0  3.957877  0  0  -0.080629  -0.166948  0  3.923954  0
C  C47  1  0.94467765  0.15688627  0.55675297  1  0  -0.149165  0  3.682308  0  0  -0.170787  0  3.936676  0  0  -0.17836  0  3.957967  0  0  -0.080698  -0.167028  0  3.924026  0
C  C48  1  0.95885156  0.95197914  0.48919215  1  0  0.098711  0  3.728786  0  0  0.108755  0  3.963043  0  0  0.112636  0  3.984935  0  0  0.012413  0.105902  0  3.949031  0
C  C49  1  0.04114629  0.04802116  0.51080635  1  0  0.098686  0  3.728935  0  0  0.108731  0  3.963212  0  0  0.112614  0  3.9851  0  0  0.012421  0.105874  0  3.949198  0
C  C50  1  0.77905016  0.96500282  0.51450143  1  0  -0.151709  0  3.700949  0  0  -0.171778  0  3.954195  0  0  -0.179132  0  3.974543  0  0  -0.084735  -0.166367  0  3.9401  0
C  C51  1  0.22094119  0.03499259  0.48549706  1  0  -0.151572  0  3.70099  0  0  -0.171656  0  3.954237  0  0  -0.179004  0  3.974577  0  0  -0.084627  -0.166246  0  3.940146  0
C  C52  1  0.70582965  0.87415548  0.49209255  1  0  0.116051  0  3.728618  0  0  0.080718  0  3.988638  0  0  0.087233  0  4.007093  0  0  0.034415  0.076112  0  3.976331  0
C  C53  1  0.29416991  0.12584284  0.50790610  1  0  0.115888  0  3.728811  0  0  0.080553  0  3.988822  0  0  0.087072  0  4.007276  0  0  0.034363  0.075947  0  3.976502  0
N  N54  1  0.61424581  0.77642090  0.25134522  1  0  -0.307377  0  3.252718  0  0  -0.224869  0  3.517795  0  0  -0.242805  0  3.532193  0  0  -0.318205  -0.212648  0  3.507931  0
N  N55  1  0.38575667  0.22358135  0.74865354  1  0  -0.307331  0  3.252701  0  0  -0.224817  0  3.517762  0  0  -0.24275  0  3.53216  0  0  -0.31817  -0.212594  0  3.507892  0
N  N56  1  0.79971395  0.77200095  0.44558521  1  0  -0.331502  0  3.280707  0  0  -0.252276  0  3.553148  0  0  -0.269897  0  3.568004  0  0  -0.327413  -0.240357  0  3.54381  0
N  N57  1  0.20028560  0.22799737  0.55441263  1  0  -0.331378  0  3.280941  0  0  -0.252129  0  3.553337  0  0  -0.269748  0  3.568198  0  0  -0.327359  -0.240209  0  3.543993  0
Cl  Cl58  1  0.66968873  0.17470903  0.26684647  1  0  -0.08829  0  1.445789  0  0  -0.071654  0  1.692062  0  0  -0.074287  0  1.686518  0  0  0.003271  -0.069577  0  1.696036  0
Cl  Cl59  1  0.33031132  0.82528729  0.73315741  1  0  -0.08834  0  1.44587  0  0  -0.071706  0  1.692141  0  0  -0.074336  0  1.686597  0  0  0.003248  -0.069632  0  1.696113  0
Cl  Cl60  1  0.05583116  0.07218489  0.15361396  1  0  -0.107706  0  1.400146  0  0  -0.091038  0  1.631535  0  0  -0.094599  0  1.628272  0  0  -0.016099  -0.087969  0  1.633679  0
Cl  Cl61  1  0.94416868  0.92781241  0.84639134  1  0  -0.107702  0  1.400171  0  0  -0.091043  0  1.631554  0  0  -0.094604  0  1.628291  0  0  -0.016106  -0.087977  0  1.633697  0
Cl  Cl62  1  0.25268429  0.44519209  0.27966530  1  0  -0.075101  0  1.388786  0  0  -0.064909  0  1.618598  0  0  -0.067125  0  1.612067  0  0  -0.008453  -0.062924  0  1.622881  0
Cl  Cl63  1  0.74731256  0.55480722  0.72033847  1  0  -0.075073  0  1.388772  0  0  -0.064892  0  1.618572  0  0  -0.067109  0  1.612043  0  0  -0.008458  -0.062914  0  1.622857  0
O  O64  1  0.53608134  0.50621998  0.37915837  1  0  -0.639714  0  2.050353  0  0  -0.578545  0  2.30717  0  0  -0.604471  0  2.292298  0  0  -0.316926  -0.559906  0  2.316333  0
O  O65  1  0.46391778  0.49378032  0.62084069  1  0  -0.639714  0  2.050385  0  0  -0.578524  0  2.307198  0  0  -0.604461  0  2.292347  0  0  -0.31691  -0.559887  0  2.316355  0
O  O66  1  0.55074659  0.29646611  0.48410502  1  0  -0.635751  0  2.07309  0  0  -0.565992  0  2.347323  0  0  -0.595756  0  2.333606  0  0  -0.315666  -0.545052  0  2.355871  0
O  O67  1  0.44925105  0.70353518  0.51589489  1  0  -0.635724  0  2.073049  0  0  -0.565968  0  2.347321  0  0  -0.59573  0  2.333608  0  0  -0.315674  -0.545032  0  2.355864  0
O  O68  1  0.88640565  0.51950163  0.37870049  1  0  -0.613322  0  2.142789  0  0  -0.544272  0  2.424359  0  0  -0.572638  0  2.415082  0  0  -0.34525  -0.524397  0  2.430275  0
O  O69  1  0.11359117  0.48049769  0.62130086  1  0  -0.613412  0  2.142863  0  0  -0.544372  0  2.424437  0  0  -0.572746  0  2.415166  0  0  -0.345288  -0.524499  0  2.43035  0
