# generated using pymatgen
data_ZnH12C12(NCl)2
_symmetry_space_group_name_H-M   'P 1'
_cell_length_a   5.35861282
_cell_length_b   8.90315994
_cell_length_c   13.66017901
_cell_angle_alpha   85.04444368
_cell_angle_beta   82.71388967
_cell_angle_gamma   83.12863746
_symmetry_Int_Tables_number   1
_chemical_formula_structural   ZnH12C12(NCl)2
_chemical_formula_sum   'Zn2 H24 C24 N4 Cl4'
_cell_volume   640.12214574
_cell_formula_units_Z   2
loop_
 _symmetry_equiv_pos_site_id
 _symmetry_equiv_pos_as_xyz
  1  'x, y, z'
loop_
 _atom_site_type_symbol
 _atom_site_label
 _atom_site_symmetry_multiplicity
 _atom_site_fract_x
 _atom_site_fract_y
 _atom_site_fract_z
 _atom_site_occupancy
 _atom_site_pbe_bader_spin_density
 _atom_site_pbe_cm5_charge
 _atom_site_pbe_ddec_charge
 _atom_site_pbe_ddec_spin_density
 _atom_site_pbe_ddec_sum_bond_order
 _atom_site_pbe_magmom
Zn  Zn0  1  0.62907170  0.96245345  0.75966670  1  0  0.561171  0.627619  0  2.640396  0
Zn  Zn1  1  0.37091678  0.03755459  0.24033612  1  0  0.561187  0.627683  0  2.640387  0
H  H2  1  0.04584259  0.97716907  0.88788050  1  0  0.104848  0.075419  0  1.041272  0
H  H3  1  0.95414960  0.02281745  0.11212221  1  0  0.104793  0.075263  0  1.041507  0
H  H4  1  0.23080573  0.17545852  0.96327331  1  0  0.096758  0.116803  0  1.035075  0
H  H5  1  0.76920408  0.82452325  0.03673173  1  0  0.096789  0.116877  0  1.03511  0
H  H6  1  0.69454531  0.50913699  0.83193466  1  0  0.095227  0.110928  0  1.04142  0
H  H7  1  0.30550625  0.49086503  0.16806635  1  0  0.095255  0.110962  0  1.041403  0
H  H8  1  0.52821547  0.29393187  0.76052470  1  0  0.10385  0.074241  0  1.039687  0
H  H9  1  0.47180733  0.70608519  0.23947335  1  0  0.103832  0.074225  0  1.039723  0
H  H10  1  0.07279204  0.58713738  0.90105546  1  0  0.08881  0.093453  0  1.023115  0
H  H11  1  0.92725990  0.41285095  0.09894822  1  0  0.088865  0.09352  0  1.023135  0
H  H12  1  0.27702053  0.44903018  0.96266151  1  0  0.091092  0.101032  0  1.003698  0
H  H13  1  0.72301792  0.55094919  0.03734237  1  0  0.091107  0.101167  0  1.003718  0
H  H14  1  0.10470874  0.75904077  0.78592626  1  0  0.103913  0.072937  0  1.056913  0
H  H15  1  0.89529108  0.24095728  0.21407057  1  0  0.103896  0.072968  0  1.056835  0
H  H16  1  0.43906828  0.60860097  0.68417587  1  0  0.10672  0.119049  0  1.001879  0
H  H17  1  0.56091491  0.39139619  0.31581806  1  0  0.106716  0.119072  0  1.001806  0
H  H18  1  0.04550086  0.76525991  0.43032262  1  0  0.101024  0.120425  0  1.019155  0
H  H19  1  0.95447567  0.23475288  0.56967688  1  0  0.10102  0.120344  0  1.019201  0
H  H20  1  0.72277693  0.90998703  0.54377124  1  0  0.103016  0.081204  0  1.043812  0
H  H21  1  0.27721037  0.09002778  0.45623211  1  0  0.103055  0.081201  0  1.044009  0
H  H22  1  0.64277743  0.64037984  0.47153577  1  0  0.091911  0.103449  0  1.014485  0
H  H23  1  0.35718887  0.35961889  0.52845077  1  0  0.091965  0.103482  0  1.014373  0
H  H24  1  0.40816735  0.58905462  0.40662638  1  0  0.092555  0.091911  0  1.007614  0
H  H25  1  0.59179412  0.41094824  0.59336975  1  0  0.092571  0.091983  0  1.007584  0
C  C26  1  0.97157241  0.09599451  0.87682521  1  0  0.044258  0.101947  0  3.958846  0
C  C27  1  0.02842441  0.90399758  0.12317856  1  0  0.044462  0.102349  0  3.958854  0
C  C28  1  0.07517365  0.20740001  0.91859912  1  0  -0.085369  -0.179671  0  3.920278  0
C  C29  1  0.92484462  0.79258881  0.08139870  1  0  -0.085478  -0.179874  0  3.920421  0
C  C30  1  0.97866165  0.35956481  0.90323702  1  0  0.018077  0.184295  0  3.914103  0
C  C31  1  0.02136744  0.64042610  0.09676318  1  0  0.018014  0.184345  0  3.914199  0
C  C32  1  0.77840776  0.39223013  0.84509465  1  0  -0.089287  -0.186762  0  3.931204  0
C  C33  1  0.22162136  0.60777081  0.15490884  1  0  -0.089297  -0.186832  0  3.931078  0
C  C34  1  0.68462994  0.27468126  0.80578528  1  0  0.039159  0.088978  0  3.958306  0
C  C35  1  0.31538722  0.72532444  0.19421490  1  0  0.039135  0.089026  0  3.958303  0
C  C36  1  0.07902438  0.48272920  0.95007541  1  0  -0.156209  -0.191556  0  3.908758  0
C  C37  1  0.92101483  0.51725703  0.04992671  1  0  -0.156249  -0.191916  0  3.909094  0
C  C38  1  0.09478692  0.75525965  0.70706074  1  0  0.040323  0.088819  0  3.985017  0
C  C39  1  0.90520248  0.24474404  0.29293780  1  0  0.040309  0.08862  0  3.985078  0
C  C40  1  0.28249346  0.67096235  0.64904732  1  0  -0.086414  -0.180099  0  3.927742  0
C  C41  1  0.71748529  0.32903809  0.35094960  1  0  -0.086425  -0.180043  0  3.927645  0
C  C42  1  0.27041905  0.67062442  0.54715792  1  0  0.018187  0.183701  0  3.912596  0
C  C43  1  0.72955183  0.32937839  0.45283780  1  0  0.018141  0.183558  0  3.912713  0
C  C44  1  0.06523071  0.75851767  0.50909962  1  0  -0.084982  -0.181694  0  3.919164  0
C  C45  1  0.93474490  0.24148946  0.49090013  1  0  -0.084922  -0.18148  0  3.918936  0
C  C46  1  0.88394471  0.84023847  0.57167369  1  0  0.045141  0.101185  0  3.930207  0
C  C47  1  0.11603967  0.15977191  0.42832776  1  0  0.045056  0.101051  0  3.930277  0
C  C48  1  0.46967005  0.58282303  0.48064952  1  0  -0.158889  -0.19855  0  3.9429  0
C  C49  1  0.53029788  0.41717533  0.51934503  1  0  -0.158988  -0.198592  0  3.942918  0
N  N50  1  0.77915348  0.12833317  0.82119952  1  0  -0.338329  -0.227068  0  3.606508  0
N  N51  1  0.22083608  0.87166793  0.17880643  1  0  -0.338375  -0.227288  0  3.606612  0
N  N52  1  0.89714496  0.83807933  0.66959937  1  0  -0.33946  -0.226032  0  3.606564  0
N  N53  1  0.10284340  0.16192993  0.33040121  1  0  -0.33937  -0.225795  0  3.606462  0
Cl  Cl54  1  0.50557999  0.79544323  0.88531122  1  0  -0.30342  -0.483708  0  1.199672  0
Cl  Cl55  1  0.49441706  0.20455920  0.11468923  1  0  -0.303411  -0.483691  0  1.199681  0
Cl  Cl56  1  0.36038592  0.08588619  0.65945228  1  0  -0.303667  -0.482221  0  1.270436  0
Cl  Cl57  1  0.63959622  0.91412510  0.34055436  1  0  -0.303667  -0.482215  0  1.270392  0
