# generated using pymatgen
data_ZnH18C18S(NO2)2
_symmetry_space_group_name_H-M   'P 1'
_cell_length_a   5.33094512
_cell_length_b   10.18515348
_cell_length_c   17.22321177
_cell_angle_alpha   101.41355268
_cell_angle_beta   90.00237827
_cell_angle_gamma   90.00927759
_symmetry_Int_Tables_number   1
_chemical_formula_structural   ZnH18C18S(NO2)2
_chemical_formula_sum   'Zn2 H36 C36 S2 N4 O8'
_cell_volume   916.66664817
_cell_formula_units_Z   2
loop_
 _symmetry_equiv_pos_site_id
 _symmetry_equiv_pos_as_xyz
  1  'x, y, z'
loop_
 _atom_site_type_symbol
 _atom_site_label
 _atom_site_symmetry_multiplicity
 _atom_site_fract_x
 _atom_site_fract_y
 _atom_site_fract_z
 _atom_site_occupancy
 _atom_site_hle17_bader_spin_density
 _atom_site_hle17_ddec_charge
 _atom_site_hle17_ddec_spin_density
 _atom_site_hle17_ddec_sum_bond_order
 _atom_site_hle17_magmom
 _atom_site_hse06_10hf_bader_spin_density
 _atom_site_hse06_10hf_ddec_charge
 _atom_site_hse06_10hf_ddec_spin_density
 _atom_site_hse06_10hf_ddec_sum_bond_order
 _atom_site_hse06_10hf_magmom
 _atom_site_hse06_bader_spin_density
 _atom_site_hse06_ddec_charge
 _atom_site_hse06_ddec_spin_density
 _atom_site_hse06_ddec_sum_bond_order
 _atom_site_hse06_magmom
 _atom_site_pbe_bader_spin_density
 _atom_site_pbe_cm5_charge
 _atom_site_pbe_ddec_charge
 _atom_site_pbe_ddec_spin_density
 _atom_site_pbe_ddec_sum_bond_order
 _atom_site_pbe_magmom
Zn  Zn0  1  0.75133816  0.24999497  0.74999601  1  0  0.987664  0  1.85097  0  0  0.787113  0  2.32845  0  0  0.834464  0  2.274572  0  0  0.695759  0.75417  0  2.365502  0
Zn  Zn1  1  0.24866638  0.75001358  0.25000434  1  0  0.987695  0  1.851128  0  0  0.787145  0  2.328626  0  0  0.834505  0  2.274752  0  0  0.695796  0.754206  0  2.365685  0
H  H2  1  0.77067716  0.00258649  0.81154923  1  0  0.069471  0  0.999046  0  0  0.068972  0  1.079722  0  0  0.071599  0  1.078046  0  0  0.10751  0.067037  0  1.080821  0
H  H3  1  0.77069775  0.49743883  0.68846701  1  0  0.069495  0  0.999021  0  0  0.069012  0  1.079608  0  0  0.071631  0  1.077952  0  0  0.107589  0.067079  0  1.080709  0
H  H4  1  0.22931425  0.99740599  0.18844762  1  0  0.069495  0  0.999132  0  0  0.068973  0  1.079797  0  0  0.071604  0  1.078111  0  0  0.107503  0.067034  0  1.080908  0
H  H5  1  0.22929929  0.50256951  0.31152460  1  0  0.069478  0  0.999018  0  0  0.068961  0  1.07964  0  0  0.071596  0  1.077941  0  0  0.10759  0.067033  0  1.080727  0
H  H6  1  0.52633223  0.88805099  0.90031982  1  0  0.108952  0  0.950108  0  0  0.119735  0  1.00896  0  0  0.123011  0  1.007944  0  0  0.109347  0.117199  0  1.010116  0
H  H7  1  0.52635898  0.61198958  0.59970612  1  0  0.108911  0  0.950128  0  0  0.119601  0  1.009165  0  0  0.122875  0  1.008148  0  0  0.109339  0.117086  0  1.010299  0
H  H8  1  0.47365731  0.11194862  0.09968246  1  0  0.10894  0  0.950225  0  0  0.11973  0  1.00906  0  0  0.123006  0  1.008045  0  0  0.109354  0.117191  0  1.010227  0
H  H9  1  0.47360992  0.38801281  0.40028717  1  0  0.108902  0  0.950183  0  0  0.119593  0  1.009187  0  0  0.122881  0  1.008151  0  0  0.109333  0.117047  0  1.010361  0
H  H10  1  0.03533050  0.23431101  0.94638986  1  0  0.110928  0  0.942661  0  0  0.124809  0  0.994632  0  0  0.127637  0  0.994569  0  0  0.11312  0.122772  0  0.994916  0
H  H11  1  0.03520952  0.26569917  0.55360522  1  0  0.11084  0  0.942539  0  0  0.12483  0  0.994414  0  0  0.127663  0  0.994343  0  0  0.11308  0.122782  0  0.994708  0
H  H12  1  0.96467967  0.76569365  0.05361413  1  0  0.110841  0  0.942538  0  0  0.124699  0  0.994566  0  0  0.127526  0  0.994505  0  0  0.113091  0.122659  0  0.994853  0
H  H13  1  0.96479314  0.73429240  0.44639503  1  0  0.110879  0  0.942353  0  0  0.124827  0  0.994296  0  0  0.127659  0  0.994228  0  0  0.113106  0.122782  0  0.994588  0
H  H14  1  0.30971988  0.33698420  0.85860510  1  0  0.100522  0  0.96365  0  0  0.105287  0  1.029799  0  0  0.108492  0  1.026484  0  0  0.12157  0.102897  0  1.032218  0
H  H15  1  0.30966278  0.16299296  0.64136359  1  0  0.100534  0  0.963663  0  0  0.105412  0  1.029703  0  0  0.108624  0  1.026374  0  0  0.121562  0.103013  0  1.032141  0
H  H16  1  0.69028654  0.66301642  0.14139729  1  0  0.100518  0  0.963627  0  0  0.105341  0  1.029716  0  0  0.108547  0  1.026402  0  0  0.121588  0.102949  0  1.032138  0
H  H17  1  0.69036802  0.83700041  0.35862872  1  0  0.100391  0  0.963517  0  0  0.105328  0  1.029543  0  0  0.108542  0  1.026206  0  0  0.121499  0.10293  0  1.031984  0
H  H18  1  0.17444407  0.87720031  0.98227631  1  0  0.093965  0  0.950349  0  0  0.108067  0  1.007223  0  0  0.110444  0  1.006595  0  0  0.107165  0.106268  0  1.007888  0
H  H19  1  0.17445072  0.62282512  0.51773682  1  0  0.093894  0  0.950319  0  0  0.107986  0  1.007227  0  0  0.110356  0  1.006602  0  0  0.107067  0.10619  0  1.007892  0
H  H20  1  0.82555484  0.12280537  0.01772895  1  0  0.093962  0  0.950409  0  0  0.108047  0  1.007304  0  0  0.110426  0  1.006681  0  0  0.107137  0.106249  0  1.007971  0
H  H21  1  0.82552568  0.37717547  0.48226440  1  0  0.093936  0  0.95032  0  0  0.107979  0  1.007296  0  0  0.110348  0  1.006676  0  0  0.107096  0.106186  0  1.007959  0
H  H22  1  0.20841856  0.57689321  0.90604694  1  0  0.123358  0  0.913869  0  0  0.143136  0  0.963997  0  0  0.145405  0  0.962698  0  0  0.107191  0.141482  0  0.964962  0
H  H23  1  0.20807961  0.92306089  0.59390399  1  0  0.123513  0  0.913126  0  0  0.143385  0  0.963244  0  0  0.145667  0  0.961933  0  0  0.107339  0.141721  0  0.964211  0
H  H24  1  0.79159536  0.42310940  0.09395508  1  0  0.12341  0  0.913697  0  0  0.143138  0  0.963867  0  0  0.145411  0  0.962562  0  0  0.107188  0.141488  0  0.96483  0
H  H25  1  0.79192493  0.07693273  0.40609822  1  0  0.123514  0  0.912965  0  0  0.1434  0  0.963124  0  0  0.145685  0  0.961808  0  0  0.107353  0.14173  0  0.964097  0
H  H26  1  0.95826791  0.69559018  0.91021541  1  0  0.081718  0  0.963045  0  0  0.092789  0  1.033476  0  0  0.094661  0  1.032639  0  0  0.085417  0.091387  0  1.034282  0
H  H27  1  0.95786868  0.80439521  0.58982876  1  0  0.081505  0  0.963203  0  0  0.092646  0  1.03361  0  0  0.094565  0  1.032724  0  0  0.08537  0.091222  0  1.034424  0
H  H28  1  0.04174789  0.30441050  0.08978930  1  0  0.081712  0  0.962845  0  0  0.09277  0  1.033274  0  0  0.094642  0  1.032435  0  0  0.085417  0.091362  0  1.034095  0
H  H29  1  0.04214711  0.19560147  0.41017610  1  0  0.081556  0  0.963115  0  0  0.092711  0  1.033531  0  0  0.094631  0  1.032642  0  0  0.085371  0.091284  0  1.034346  0
H  H30  1  0.27597919  0.58003312  0.76362667  1  0  0.086798  0  0.960841  0  0  0.100672  0  1.026962  0  0  0.101438  0  1.028209  0  0  0.090209  0.100158  0  1.026163  0
H  H31  1  0.27602593  0.92001380  0.73630904  1  0  0.087067  0  0.960704  0  0  0.10091  0  1.026828  0  0  0.101678  0  1.02807  0  0  0.090346  0.100391  0  1.026035  0
H  H32  1  0.72403661  0.41995947  0.23637427  1  0  0.086839  0  0.960821  0  0  0.100739  0  1.026929  0  0  0.101504  0  1.028176  0  0  0.09021  0.100225  0  1.02613  0
H  H33  1  0.72396736  0.07998782  0.26369346  1  0  0.087076  0  0.960625  0  0  0.100906  0  1.02678  0  0  0.101673  0  1.028021  0  0  0.090328  0.100386  0  1.025987  0
H  H34  1  0.34289638  0.73520918  0.82694194  1  0  0.076026  0  0.962801  0  0  0.092387  0  1.027247  0  0  0.093284  0  1.02736  0  0  0.089405  0.091782  0  1.027245  0
H  H35  1  0.34265353  0.76476987  0.67302613  1  0  0.076154  0  0.962489  0  0  0.092575  0  1.026946  0  0  0.093486  0  1.027033  0  0  0.089398  0.091961  0  1.026948  0
H  H36  1  0.65712880  0.26479244  0.17306055  1  0  0.076009  0  0.962774  0  0  0.092397  0  1.027205  0  0  0.093293  0  1.027319  0  0  0.089396  0.091794  0  1.027205  0
H  H37  1  0.65734914  0.23523481  0.32697902  1  0  0.076125  0  0.962497  0  0  0.092587  0  1.026921  0  0  0.093503  0  1.027004  0  0  0.089383  0.091971  0  1.026918  0
C  C38  1  0.60735300  0.05091037  0.84301594  1  0  0.130552  0  3.72136  0  0  0.097943  0  3.974946  0  0  0.106023  0  3.99254  0  0  0.047245  0.092888  0  3.962804  0
C  C39  1  0.60736876  0.44911446  0.65699036  1  0  0.130482  0  3.721453  0  0  0.097968  0  3.975081  0  0  0.106047  0  3.99268  0  0  0.047194  0.092902  0  3.962937  0
C  C40  1  0.39263653  0.94908823  0.15698565  1  0  0.130397  0  3.721504  0  0  0.097839  0  3.975074  0  0  0.105922  0  3.992668  0  0  0.047204  0.092784  0  3.962928  0
C  C41  1  0.39263203  0.55089008  0.34300896  1  0  0.130512  0  3.72129  0  0  0.098022  0  3.974904  0  0  0.106102  0  3.992516  0  0  0.047189  0.092954  0  3.96275  0
C  C42  1  0.46777273  0.98700405  0.89237184  1  0  -0.167542  0  3.711077  0  0  -0.184605  0  3.959757  0  0  -0.193642  0  3.980903  0  0  -0.07993  -0.178557  0  3.94542  0
C  C43  1  0.46778352  0.51301884  0.60764441  1  0  -0.167462  0  3.711448  0  0  -0.18457  0  3.96011  0  0  -0.193596  0  3.98125  0  0  -0.080032  -0.17855  0  3.945782  0
C  C44  1  0.53221681  0.01299850  0.10762785  1  0  -0.167392  0  3.711137  0  0  -0.184458  0  3.959821  0  0  -0.193493  0  3.980966  0  0  -0.079908  -0.178412  0  3.945485  0
C  C45  1  0.53220602  0.48697468  0.39235372  1  0  -0.167481  0  3.711303  0  0  -0.184567  0  3.959942  0  0  -0.193604  0  3.981081  0  0  -0.080084  -0.178528  0  3.945631  0
C  C46  1  0.25304137  0.04890381  0.93074882  1  0  0.136235  0  3.794514  0  0  0.149907  0  4.028143  0  0  0.156174  0  4.049926  0  0  0.010349  0.145865  0  4.013383  0
C  C47  1  0.25302555  0.45111501  0.56925902  1  0  0.135912  0  3.794561  0  0  0.149817  0  4.027881  0  0  0.156085  0  4.049657  0  0  0.010338  0.145774  0  4.013122  0
C  C48  1  0.74695942  0.95109689  0.06925648  1  0  0.136238  0  3.794858  0  0  0.149864  0  4.02856  0  0  0.156131  0  4.050346  0  0  0.010428  0.145822  0  4.013797  0
C  C49  1  0.74696023  0.54888356  0.43074140  1  0  0.136063  0  3.794574  0  0  0.149959  0  4.027908  0  0  0.156227  0  4.049689  0  0  0.010487  0.145913  0  4.013144  0
C  C50  1  0.19687194  0.17847428  0.91856226  1  0  -0.152409  0  3.659814  0  0  -0.168454  0  3.902609  0  0  -0.176965  0  3.923044  0  0  -0.076335  -0.163309  0  3.889272  0
C  C51  1  0.19680403  0.32152904  0.58143498  1  0  -0.152122  0  3.659442  0  0  -0.168306  0  3.902142  0  0  -0.176815  0  3.922572  0  0  -0.076309  -0.163155  0  3.888798  0
C  C52  1  0.80312322  0.82153639  0.08144238  1  0  -0.15224  0  3.659988  0  0  -0.168247  0  3.902811  0  0  -0.176756  0  3.92325  0  0  -0.076308  -0.163099  0  3.889465  0
C  C53  1  0.80317050  0.67846334  0.41855780  1  0  -0.152222  0  3.660139  0  0  -0.168387  0  3.902917  0  0  -0.1769  0  3.923357  0  0  -0.076376  -0.163235  0  3.889571  0
C  C54  1  0.34792865  0.23742643  0.86949880  1  0  0.154479  0  3.662032  0  0  0.120195  0  3.913101  0  0  0.12927  0  3.92822  0  0  0.055365  0.114354  0  3.90286  0
C  C55  1  0.34787010  0.26256662  0.63048337  1  0  0.154555  0  3.662012  0  0  0.120251  0  3.91308  0  0  0.129324  0  3.928201  0  0  0.055478  0.114404  0  3.90283  0
C  C56  1  0.65207589  0.76257812  0.13050111  1  0  0.154391  0  3.662127  0  0  0.120057  0  3.913215  0  0  0.129132  0  3.928337  0  0  0.0553  0.114217  0  3.902968  0
C  C57  1  0.65214569  0.73742282  0.36951142  1  0  0.154605  0  3.662522  0  0  0.120233  0  3.913603  0  0  0.129307  0  3.928726  0  0  0.055474  0.114381  0  3.90335  0
C  C58  1  0.10475222  0.97699163  0.97965986  1  0  -0.097294  0  3.721712  0  0  -0.120905  0  3.979733  0  0  -0.123329  0  3.999361  0  0  -0.077691  -0.119243  0  3.966409  0
C  C59  1  0.10474702  0.52302317  0.52034780  1  0  -0.097107  0  3.721752  0  0  -0.120788  0  3.979738  0  0  -0.1232  0  3.999347  0  0  -0.07755  -0.119129  0  3.966411  0
C  C60  1  0.89524294  0.02301702  0.02034456  1  0  -0.097481  0  3.721861  0  0  -0.121084  0  3.979918  0  0  -0.123504  0  3.99953  0  0  -0.077762  -0.119423  0  3.966595  0
C  C61  1  0.89524439  0.47698054  0.47965841  1  0  -0.097254  0  3.721797  0  0  -0.120924  0  3.979834  0  0  -0.123339  0  3.999443  0  0  -0.077667  -0.119264  0  3.966507  0
C  C62  1  0.87792634  0.50019838  0.84202114  1  0  0.677668  0  3.873564  0  0  0.636452  0  4.166729  0  0  0.668762  0  4.160934  0  0  0.193549  0.614558  0  4.169771  0
C  C63  1  0.87775653  0.99982120  0.65797245  1  0  0.678235  0  3.872773  0  0  0.636551  0  4.166619  0  0  0.668885  0  4.160772  0  0  0.193429  0.614649  0  4.16967  0
C  C64  1  0.12207633  0.49979836  0.15798605  1  0  0.677862  0  3.87339  0  0  0.636575  0  4.166631  0  0  0.668906  0  4.160811  0  0  0.19368  0.614682  0  4.169678  0
C  C65  1  0.12222550  0.00017020  0.34202081  1  0  0.678402  0  3.872688  0  0  0.636716  0  4.166573  0  0  0.669053  0  4.16072  0  0  0.193415  0.614814  0  4.169625  0
C  C66  1  0.06058505  0.61472740  0.87142234  1  0  -0.261601  0  3.686459  0  0  -0.299234  0  3.934422  0  0  -0.304586  0  3.941888  0  0  -0.171364  -0.295524  0  3.929201  0
C  C67  1  0.06029764  0.88528047  0.62859312  1  0  -0.261623  0  3.685759  0  0  -0.299321  0  3.934096  0  0  -0.304743  0  3.941612  0  0  -0.171294  -0.295525  0  3.92875  0
C  C68  1  0.93942137  0.38527534  0.12858492  1  0  -0.261622  0  3.686311  0  0  -0.299121  0  3.934249  0  0  -0.304481  0  3.941712  0  0  -0.171296  -0.295416  0  3.929055  0
C  C69  1  0.93971440  0.11471303  0.37140443  1  0  -0.261746  0  3.685715  0  0  -0.299512  0  3.934176  0  0  -0.304937  0  3.941689  0  0  -0.171282  -0.295709  0  3.928825  0
C  C70  1  0.19177695  0.66507516  0.80424648  1  0  -0.108809  0  3.670232  0  0  -0.14867  0  3.936503  0  0  -0.147041  0  3.94768  0  0  -0.155834  -0.14969  0  3.928542  0
C  C71  1  0.19168583  0.83496129  0.69574352  1  0  -0.109114  0  3.6696  0  0  -0.148882  0  3.935721  0  0  -0.147377  0  3.947175  0  0  -0.155913  -0.149882  0  3.927709  0
C  C72  1  0.80823885  0.33492552  0.19575823  1  0  -0.108837  0  3.670181  0  0  -0.148782  0  3.936505  0  0  -0.147157  0  3.947698  0  0  -0.155868  -0.149789  0  3.928518  0
C  C73  1  0.80830934  0.16503638  0.30426087  1  0  -0.108987  0  3.669521  0  0  -0.148772  0  3.935679  0  0  -0.147291  0  3.947189  0  0  -0.155852  -0.149767  0  3.927656  0
S  S74  1  0.97148901  0.75006089  0.75004809  1  0  -0.072483  0  2.273944  0  0  -0.047977  0  2.620068  0  0  -0.056914  0  2.621615  0  0  -0.037136  -0.041411  0  2.618775  0
S  S75  1  0.02851553  0.24993581  0.24995735  1  0  -0.072578  0  2.273804  0  0  -0.048072  0  2.619999  0  0  -0.057011  0  2.621549  0  0  -0.037178  -0.041507  0  2.6187  0
N  N76  1  0.54840456  0.17411712  0.83124908  1  0  -0.328412  0  3.287515  0  0  -0.241075  0  3.567236  0  0  -0.260302  0  3.578923  0  0  -0.328941  -0.228184  0  3.559197  0
N  N77  1  0.54838688  0.32588465  0.66873418  1  0  -0.328491  0  3.287453  0  0  -0.241387  0  3.567441  0  0  -0.26063  0  3.57916  0  0  -0.328914  -0.228467  0  3.559371  0
N  N78  1  0.45159060  0.82588241  0.16874970  1  0  -0.32832  0  3.287568  0  0  -0.241  0  3.567313  0  0  -0.260234  0  3.57901  0  0  -0.328888  -0.22811  0  3.559276  0
N  N79  1  0.45161578  0.67411775  0.33125969  1  0  -0.328512  0  3.287551  0  0  -0.241364  0  3.567508  0  0  -0.260611  0  3.579225  0  0  -0.328884  -0.228439  0  3.559439  0
O  O80  1  0.97582836  0.40195319  0.79060643  1  0  -0.670062  0  2.03958  0  0  -0.586792  0  2.308642  0  0  -0.616701  0  2.295296  0  0  -0.342595  -0.565797  0  2.316954  0
O  O81  1  0.97574398  0.09804578  0.70938912  1  0  -0.67039  0  2.039996  0  0  -0.586825  0  2.309088  0  0  -0.616737  0  2.295734  0  0  -0.342534  -0.565834  0  2.317403  0
O  O82  1  0.02419494  0.59804831  0.20939141  1  0  -0.670049  0  2.039893  0  0  -0.586727  0  2.308919  0  0  -0.616642  0  2.295562  0  0  -0.342589  -0.565737  0  2.317234  0
O  O83  1  0.02423055  0.90194873  0.29060853  1  0  -0.670388  0  2.040084  0  0  -0.58685  0  2.309224  0  0  -0.616762  0  2.295868  0  0  -0.342506  -0.565863  0  2.317546  0
O  O84  1  0.65743411  0.50346738  0.86635325  1  0  -0.622041  0  1.882839  0  0  -0.580108  0  2.098022  0  0  -0.602292  0  2.089772  0  0  -0.334086  -0.564659  0  2.103124  0
O  O85  1  0.65726879  0.99656866  0.63364247  1  0  -0.622357  0  1.881975  0  0  -0.58037  0  2.097544  0  0  -0.602541  0  2.089269  0  0  -0.334211  -0.564935  0  2.102668  0
O  O86  1  0.34258169  0.49653308  0.13364273  1  0  -0.622268  0  1.882301  0  0  -0.580344  0  2.097537  0  0  -0.602538  0  2.08928  0  0  -0.334269  -0.564895  0  2.102642  0
O  O87  1  0.34273012  0.00342545  0.36633946  1  0  -0.622489  0  1.881951  0  0  -0.580467  0  2.097509  0  0  -0.602639  0  2.089234  0  0  -0.334261  -0.565021  0  2.102612  0
