# generated using pymatgen
data_ScH5C6(NO3)2
_symmetry_space_group_name_H-M   'P 1'
_cell_length_a   6.62014439
_cell_length_b   9.73710407
_cell_length_c   13.21059513
_cell_angle_alpha   89.99994950
_cell_angle_beta   90.00074400
_cell_angle_gamma   102.16972710
_symmetry_Int_Tables_number   1
_chemical_formula_structural   ScH5C6(NO3)2
_chemical_formula_sum   'Sc4 H20 C24 N8 O24'
_cell_volume   832.43168336
_cell_formula_units_Z   4
loop_
 _symmetry_equiv_pos_site_id
 _symmetry_equiv_pos_as_xyz
  1  'x, y, z'
loop_
 _atom_site_type_symbol
 _atom_site_label
 _atom_site_symmetry_multiplicity
 _atom_site_fract_x
 _atom_site_fract_y
 _atom_site_fract_z
 _atom_site_occupancy
 _atom_site_hle17_bader_spin_density
 _atom_site_hle17_ddec_charge
 _atom_site_hle17_ddec_spin_density
 _atom_site_hle17_ddec_sum_bond_order
 _atom_site_hle17_magmom
 _atom_site_hse06_10hf_bader_spin_density
 _atom_site_hse06_10hf_ddec_charge
 _atom_site_hse06_10hf_ddec_spin_density
 _atom_site_hse06_10hf_ddec_sum_bond_order
 _atom_site_hse06_10hf_magmom
 _atom_site_hse06_bader_spin_density
 _atom_site_hse06_ddec_charge
 _atom_site_hse06_ddec_spin_density
 _atom_site_hse06_ddec_sum_bond_order
 _atom_site_hse06_magmom
 _atom_site_pbe_bader_spin_density
 _atom_site_pbe_cm5_charge
 _atom_site_pbe_ddec_charge
 _atom_site_pbe_ddec_spin_density
 _atom_site_pbe_ddec_sum_bond_order
 _atom_site_pbe_magmom
Sc  Sc0  1  0.89120737  0.62580037  0.95447602  1  0  1.92342  0  1.705078  0  0  1.807845  0  2.139868  0  0  1.917347  0  2.04371  0  0  1.181543  1.730229  0  2.20421  0
Sc  Sc1  1  0.10879257  0.87420177  0.45447316  1  0  1.923447  0  1.704994  0  0  1.807853  0  2.139786  0  0  1.917355  0  2.043631  0  0  1.181563  1.730242  0  2.204132  0
Sc  Sc2  1  0.10879138  0.37420089  0.04552809  1  0  1.923402  0  1.705089  0  0  1.807808  0  2.139894  0  0  1.917322  0  2.04371  0  0  1.181539  1.730195  0  2.204233  0
Sc  Sc3  1  0.89121371  0.12579944  0.54552035  1  0  1.923416  0  1.70506  0  0  1.807814  0  2.139886  0  0  1.917348  0  2.043673  0  0  1.181537  1.730215  0  2.204205  0
H  H4  1  0.06277505  0.82217316  0.73075429  1  0  0.095134  0  0.919354  0  0  0.097962  0  0.98488  0  0  0.102255  0  0.979074  0  0  0.141514  0.094725  0  0.98933  0
H  H5  1  0.93722353  0.67782836  0.23075478  1  0  0.095164  0  0.919385  0  0  0.097986  0  0.984896  0  0  0.10228  0  0.979089  0  0  0.141531  0.094747  0  0.989343  0
H  H6  1  0.93723507  0.17782592  0.26924300  1  0  0.095024  0  0.919436  0  0  0.097913  0  0.984891  0  0  0.102204  0  0.979091  0  0  0.141542  0.09468  0  0.989345  0
H  H7  1  0.06276521  0.32217929  0.76924402  1  0  0.095119  0  0.919356  0  0  0.097888  0  0.984916  0  0  0.102177  0  0.979122  0  0  0.141531  0.094658  0  0.989361  0
H  H8  1  0.59868272  0.40325602  0.60146983  1  0  0.140951  0  0.958485  0  0  0.145519  0  1.02305  0  0  0.150515  0  1.019267  0  0  0.124504  0.141919  0  1.025852  0
H  H9  1  0.40131329  0.09674454  0.10147061  1  0  0.140955  0  0.95848  0  0  0.145513  0  1.023039  0  0  0.150511  0  1.019255  0  0  0.124508  0.141916  0  1.025843  0
H  H10  1  0.40131116  0.59674423  0.39853352  1  0  0.140991  0  0.958492  0  0  0.145537  0  1.023069  0  0  0.150534  0  1.019283  0  0  0.124514  0.141936  0  1.02587  0
H  H11  1  0.59869999  0.90325030  0.89852517  1  0  0.140941  0  0.958492  0  0  0.145458  0  1.023086  0  0  0.150459  0  1.0193  0  0  0.12449  0.141861  0  1.025889  0
H  H12  1  0.24942973  0.56430381  0.88893182  1  0  0.45885  0  0.804831  0  0  0.445156  0  0.837512  0  0  0.455652  0  0.823102  0  0  0.328105  0.43756  0  0.847942  0
H  H13  1  0.75056513  0.93569713  0.38892712  1  0  0.458902  0  0.804771  0  0  0.445159  0  0.837518  0  0  0.455658  0  0.823104  0  0  0.328135  0.437566  0  0.847946  0
H  H14  1  0.75056546  0.43569117  0.11106774  1  0  0.458917  0  0.804736  0  0  0.445187  0  0.83747  0  0  0.455683  0  0.823061  0  0  0.328153  0.437591  0  0.847902  0
H  H15  1  0.24943094  0.06430520  0.61107169  1  0  0.458865  0  0.80481  0  0  0.445144  0  0.837528  0  0  0.455639  0  0.823119  0  0  0.328103  0.437549  0  0.847958  0
H  H16  1  0.66485035  0.81047750  0.03657560  1  0  0.434939  0  0.871401  0  0  0.401375  0  0.940502  0  0  0.413727  0  0.922863  0  0  0.297345  0.392584  0  0.953071  0
H  H17  1  0.33514094  0.68952143  0.53657625  1  0  0.43495  0  0.871384  0  0  0.401371  0  0.940502  0  0  0.413724  0  0.922862  0  0  0.297321  0.392581  0  0.953068  0
H  H18  1  0.33514339  0.18952696  0.96342774  1  0  0.434976  0  0.871352  0  0  0.401393  0  0.940481  0  0  0.413746  0  0.922841  0  0  0.297362  0.392603  0  0.953049  0
H  H19  1  0.66485144  0.31047883  0.46342709  1  0  0.434946  0  0.871397  0  0  0.401359  0  0.940535  0  0  0.413713  0  0.922895  0  0  0.297308  0.392562  0  0.953116  0
H  H20  1  0.52246435  0.65289746  0.03432093  1  0  0.440457  0  0.862605  0  0  0.408524  0  0.927687  0  0  0.422273  0  0.907841  0  0  0.302156  0.398715  0  0.94181  0
H  H21  1  0.47753408  0.84710036  0.53431788  1  0  0.44037  0  0.862733  0  0  0.408452  0  0.927793  0  0  0.422199  0  0.907951  0  0  0.302104  0.398642  0  0.941915  0
H  H22  1  0.47752906  0.34710595  0.96568165  1  0  0.440418  0  0.862666  0  0  0.408504  0  0.927714  0  0  0.422251  0  0.907875  0  0  0.302132  0.39869  0  0.941846  0
H  H23  1  0.52246816  0.15289772  0.46568471  1  0  0.440385  0  0.862711  0  0  0.408453  0  0.927796  0  0  0.422201  0  0.907954  0  0  0.302093  0.398641  0  0.941922  0
C  C24  1  0.95711334  0.73032967  0.70057848  1  0  0.354468  0  3.604682  0  0  0.30722  0  3.881353  0  0  0.323959  0  3.88979  0  0  0.209882  0.295709  0  3.875874  0
C  C25  1  0.04288829  0.76966964  0.20057904  1  0  0.354419  0  3.604708  0  0  0.307197  0  3.881337  0  0  0.323937  0  3.889775  0  0  0.209895  0.295698  0  3.875851  0
C  C26  1  0.04289795  0.26966834  0.29941881  1  0  0.3547  0  3.60447  0  0  0.307398  0  3.881168  0  0  0.324139  0  3.889605  0  0  0.209941  0.295881  0  3.875703  0
C  C27  1  0.95710778  0.23033270  0.79941976  1  0  0.354529  0  3.604503  0  0  0.307339  0  3.881178  0  0  0.324079  0  3.889613  0  0  0.209869  0.295823  0  3.875708  0
C  C28  1  0.81534397  0.59820360  0.56429426  1  0  0.139474  0  3.721519  0  0  0.139935  0  3.966762  0  0  0.145372  0  3.983178  0  0  0.135729  0.136127  0  3.955885  0
C  C29  1  0.18465641  0.90179324  0.06429492  1  0  0.139571  0  3.721475  0  0  0.140054  0  3.966625  0  0  0.145495  0  3.983037  0  0  0.135774  0.136248  0  3.95576  0
C  C30  1  0.18466478  0.40179128  0.43570681  1  0  0.139773  0  3.721349  0  0  0.140059  0  3.966761  0  0  0.145494  0  3.983177  0  0  0.135765  0.136253  0  3.955892  0
C  C31  1  0.81534686  0.09820800  0.93570389  1  0  0.13946  0  3.721549  0  0  0.139935  0  3.966729  0  0  0.145375  0  3.983148  0  0  0.135767  0.136137  0  3.955849  0
C  C32  1  0.69989065  0.49878128  0.62817748  1  0  -0.118315  0  3.634348  0  0  -0.148437  0  3.879423  0  0  -0.154119  0  3.895394  0  0  -0.050503  -0.144832  0  3.869194  0
C  C33  1  0.30010791  0.00122039  0.12817841  1  0  -0.118354  0  3.634194  0  0  -0.148441  0  3.879219  0  0  -0.154127  0  3.895192  0  0  -0.05049  -0.144834  0  3.869001  0
C  C34  1  0.30011159  0.50121680  0.37182359  1  0  -0.118444  0  3.634256  0  0  -0.148493  0  3.87934  0  0  -0.154172  0  3.895306  0  0  -0.050498  -0.144885  0  3.869116  0
C  C35  1  0.69990105  0.99877975  0.87181812  1  0  -0.118341  0  3.634283  0  0  -0.148375  0  3.879309  0  0  -0.15407  0  3.895293  0  0  -0.050475  -0.14477  0  3.869093  0
C  C36  1  0.72323559  0.52435433  0.73118805  1  0  0.165549  0  3.710912  0  0  0.16444  0  3.95684  0  0  0.170806  0  3.972384  0  0  0.146026  0.159878  0  3.946798  0
C  C37  1  0.27675965  0.97564616  0.23118775  1  0  0.165678  0  3.710593  0  0  0.164521  0  3.956569  0  0  0.170887  0  3.972114  0  0  0.145984  0.159958  0  3.946546  0
C  C38  1  0.27676816  0.47564374  0.26881302  1  0  0.165607  0  3.710767  0  0  0.164538  0  3.95669  0  0  0.170904  0  3.972231  0  0  0.146084  0.159974  0  3.946656  0
C  C39  1  0.72324629  0.02435400  0.76880802  1  0  0.16568  0  3.710553  0  0  0.164543  0  3.956494  0  0  0.170909  0  3.972048  0  0  0.146  0.159974  0  3.946482  0
C  C40  1  0.60181754  0.42373526  0.80664984  1  0  0.609903  0  3.910921  0  0  0.562502  0  4.208471  0  0  0.594936  0  4.20137  0  0  0.221402  0.540309  0  4.212783  0
C  C41  1  0.39817969  0.07626692  0.30665288  1  0  0.609777  0  3.910894  0  0  0.562369  0  4.208477  0  0  0.594802  0  4.201378  0  0  0.221388  0.540169  0  4.212804  0
C  C42  1  0.39817806  0.57627024  0.19335351  1  0  0.610027  0  3.910698  0  0  0.562478  0  4.208467  0  0  0.594914  0  4.201366  0  0  0.221398  0.540298  0  4.212771  0
C  C43  1  0.60183393  0.92372898  0.69334441  1  0  0.60991  0  3.910796  0  0  0.562483  0  4.208433  0  0  0.594917  0  4.201337  0  0  0.221415  0.540275  0  4.212769  0
C  C44  1  0.81909295  0.57884922  0.45102232  1  0  0.6374  0  3.899604  0  0  0.588534  0  4.198986  0  0  0.622501  0  4.190298  0  0  0.227667  0.565398  0  4.204249  0
C  C45  1  0.18089347  0.92114879  0.95102406  1  0  0.637262  0  3.900034  0  0  0.58847  0  4.199298  0  0  0.622435  0  4.190606  0  0  0.22767  0.565324  0  4.204582  0
C  C46  1  0.18089854  0.42114367  0.54897497  1  0  0.637097  0  3.899857  0  0  0.588394  0  4.199081  0  0  0.622359  0  4.190395  0  0  0.22762  0.565243  0  4.204364  0
C  C47  1  0.81909905  0.07884725  0.04897626  1  0  0.637342  0  3.899942  0  0  0.588478  0  4.199325  0  0  0.622444  0  4.190635  0  0  0.227684  0.565335  0  4.204602  0
N  N48  1  0.85471407  0.63745960  0.76796499  1  0  -0.397562  0  3.120522  0  0  -0.352051  0  3.385628  0  0  -0.375059  0  3.40267  0  0  -0.31612  -0.336438  0  3.37409  0
N  N49  1  0.14528549  0.86254202  0.26796541  1  0  -0.397568  0  3.120439  0  0  -0.352048  0  3.385549  0  0  -0.375057  0  3.402592  0  0  -0.316084  -0.336435  0  3.37402  0
N  N50  1  0.14529270  0.36253845  0.23203457  1  0  -0.397651  0  3.120377  0  0  -0.35214  0  3.385515  0  0  -0.375149  0  3.402554  0  0  -0.316238  -0.336531  0  3.373987  0
N  N51  1  0.85471778  0.13745922  0.73203037  1  0  -0.397575  0  3.120315  0  0  -0.352048  0  3.3854  0  0  -0.37506  0  3.402439  0  0  -0.316052  -0.336433  0  3.373878  0
N  N52  1  0.93904855  0.71625098  0.59991604  1  0  -0.401403  0  3.137911  0  0  -0.355818  0  3.403582  0  0  -0.378695  0  3.421889  0  0  -0.305403  -0.339952  0  3.390832  0
N  N53  1  0.06094708  0.78374704  0.09991595  1  0  -0.401462  0  3.137896  0  0  -0.35591  0  3.403571  0  0  -0.378789  0  3.421875  0  0  -0.305473  -0.340041  0  3.39082  0
N  N54  1  0.06095602  0.28374498  0.40008276  1  0  -0.401596  0  3.137713  0  0  -0.355968  0  3.403488  0  0  -0.378849  0  3.421792  0  0  -0.305443  -0.340101  0  3.390741  0
N  N55  1  0.93904817  0.21625741  0.90008285  1  0  -0.401477  0  3.137761  0  0  -0.355902  0  3.403431  0  0  -0.378779  0  3.42173  0  0  -0.305467  -0.340035  0  3.390681  0
O  O56  1  0.63974366  0.46132840  0.90107719  1  0  -0.71866  0  2.076925  0  0  -0.659152  0  2.327029  0  0  -0.696669  0  2.318469  0  0  -0.362122  -0.632421  0  2.331796  0
O  O57  1  0.36024179  0.03867203  0.40107774  1  0  -0.718727  0  2.07697  0  0  -0.659162  0  2.327006  0  0  -0.69668  0  2.318444  0  0  -0.362146  -0.632437  0  2.331812  0
O  O58  1  0.36024645  0.53868346  0.09892388  1  0  -0.718805  0  2.076843  0  0  -0.659219  0  2.327007  0  0  -0.696748  0  2.31845  0  0  -0.362178  -0.632463  0  2.331709  0
O  O59  1  0.63977012  0.96131861  0.59891955  1  0  -0.718744  0  2.076873  0  0  -0.659179  0  2.326874  0  0  -0.696697  0  2.318307  0  0  -0.362183  -0.632452  0  2.331668  0
O  O60  1  0.47974884  0.31710576  0.77763867  1  0  -0.517382  0  1.867876  0  0  -0.479407  0  2.071171  0  0  -0.498641  0  2.064013  0  0  -0.288505  -0.46602  0  2.075918  0
O  O61  1  0.52024591  0.18289109  0.27764245  1  0  -0.517266  0  1.868019  0  0  -0.479293  0  2.071331  0  0  -0.498525  0  2.064175  0  0  -0.28846  -0.465899  0  2.076082  0
O  O62  1  0.52024107  0.68290083  0.22236392  1  0  -0.517389  0  1.867813  0  0  -0.47934  0  2.071154  0  0  -0.49857  0  2.063989  0  0  -0.288448  -0.465979  0  2.075921  0
O  O63  1  0.47976367  0.81710167  0.72235636  1  0  -0.517362  0  1.868  0  0  -0.479374  0  2.071308  0  0  -0.498605  0  2.064142  0  0  -0.288464  -0.465969  0  2.076047  0
O  O64  1  0.92653984  0.68311113  0.40242453  1  0  -0.70358  0  2.087304  0  0  -0.660932  0  2.357309  0  0  -0.698938  0  2.350401  0  0  -0.373207  -0.633916  0  2.360858  0
O  O65  1  0.07344613  0.81688465  0.90242563  1  0  -0.703608  0  2.087412  0  0  -0.661008  0  2.357417  0  0  -0.699013  0  2.350502  0  0  -0.373257  -0.633982  0  2.36097  0
O  O66  1  0.07345905  0.31688592  0.59757579  1  0  -0.703539  0  2.087534  0  0  -0.660911  0  2.35745  0  0  -0.698917  0  2.350538  0  0  -0.373213  -0.633893  0  2.361005  0
O  O67  1  0.92655145  0.18311768  0.09757469  1  0  -0.703602  0  2.087254  0  0  -0.660977  0  2.357305  0  0  -0.698984  0  2.350391  0  0  -0.373247  -0.63395  0  2.360858  0
O  O68  1  0.72799980  0.46619555  0.41154541  1  0  -0.55533  0  1.973064  0  0  -0.506299  0  2.191924  0  0  -0.529321  0  2.183584  0  0  -0.283883  -0.490364  0  2.197584  0
O  O69  1  0.27197771  0.03380285  0.91154877  1  0  -0.555195  0  1.973392  0  0  -0.506214  0  2.192224  0  0  -0.529234  0  2.183883  0  0  -0.28385  -0.490282  0  2.197888  0
O  O70  1  0.27198703  0.53380159  0.58845718  1  0  -0.55519  0  1.973032  0  0  -0.506219  0  2.191822  0  0  -0.529241  0  2.183487  0  0  -0.283879  -0.490279  0  2.197478  0
O  O71  1  0.72801720  0.96620055  0.08845079  1  0  -0.555203  0  1.973472  0  0  -0.506201  0  2.192344  0  0  -0.529221  0  2.184006  0  0  -0.283865  -0.490272  0  2.198009  0
O  O72  1  0.12447886  0.51913606  0.92440144  1  0  -1.071207  0  1.683185  0  0  -1.033894  0  1.928044  0  0  -1.083715  0  1.899894  0  0  -0.706287  -0.998554  0  1.947094  0
O  O73  1  0.87551727  0.98086602  0.42439602  1  0  -1.07125  0  1.683161  0  0  -1.033886  0  1.928108  0  0  -1.083715  0  1.899955  0  0  -0.706309  -0.998541  0  1.947161  0
O  O74  1  0.87551804  0.48086417  0.07560342  1  0  -1.071271  0  1.683082  0  0  -1.033913  0  1.927994  0  0  -1.083735  0  1.899846  0  0  -0.706341  -0.99857  0  1.947045  0
O  O75  1  0.12448011  0.01913104  0.57560354  1  0  -1.071214  0  1.683136  0  0  -1.033864  0  1.928025  0  0  -1.083688  0  1.899877  0  0  -0.706275  -0.998518  0  1.947076  0
O  O76  1  0.63659694  0.71958823  0.99751635  1  0  -0.917108  0  1.876058  0  0  -0.873021  0  2.089675  0  0  -0.904185  0  2.05224  0  0  -0.629856  -0.85067  0  2.115489  0
O  O77  1  0.36339523  0.78040987  0.49751373  1  0  -0.917052  0  1.876163  0  0  -0.872976  0  2.089815  0  0  -0.904146  0  2.05239  0  0  -0.629773  -0.850625  0  2.115629  0
O  O78  1  0.36340249  0.28041514  0.00248926  1  0  -0.917101  0  1.876083  0  0  -0.873013  0  2.089726  0  0  -0.904179  0  2.052292  0  0  -0.629835  -0.850663  0  2.115545  0
O  O79  1  0.63660133  0.21958930  0.50249113  1  0  -0.917034  0  1.876115  0  0  -0.872972  0  2.089779  0  0  -0.904144  0  2.052349  0  0  -0.62976  -0.850611  0  2.1156  0
