# generated using pymatgen
data_CoH23C25N4O5
_symmetry_space_group_name_H-M   'P 1'
_cell_length_a   9.71778204
_cell_length_b   16.24621663
_cell_length_c   16.63539080
_cell_angle_alpha   89.99876082
_cell_angle_beta   89.99890961
_cell_angle_gamma   93.62174132
_symmetry_Int_Tables_number   1
_chemical_formula_structural   CoH23C25N4O5
_chemical_formula_sum   'Co4 H92 C100 N16 O20'
_cell_volume   2621.10352508
_cell_formula_units_Z   4
loop_
 _symmetry_equiv_pos_site_id
 _symmetry_equiv_pos_as_xyz
  1  'x, y, z'
loop_
 _atom_site_type_symbol
 _atom_site_label
 _atom_site_symmetry_multiplicity
 _atom_site_fract_x
 _atom_site_fract_y
 _atom_site_fract_z
 _atom_site_occupancy
 _atom_site_pbe_bader_charge
 _atom_site_pbe_bader_spin_density
 _atom_site_pbe_cm5_charge
 _atom_site_pbe_ddec_charge
 _atom_site_pbe_ddec_spin_density
 _atom_site_pbe_ddec_sum_bond_order
 _atom_site_pbe_magmom
Co  Co0  1  0.86833704  0.29037122  0.29690909  1  1.200547  2.557464  0.6672  0.801545  2.77622  2.577765  2.504
Co  Co1  1  0.63166634  0.20962447  0.79690372  1  1.20058  2.557499  0.667181  0.801614  2.776305  2.577447  2.504
Co  Co2  1  0.13165336  0.70962933  0.70309819  1  1.200568  2.557477  0.667228  0.801619  2.776278  2.577601  2.504
Co  Co3  1  0.36832045  0.79036563  0.20308913  1  1.200543  2.55747  0.667208  0.80154  2.776195  2.577635  2.504
H  H4  1  0.12683383  0.51745574  0.27255911  1  0.109937  0.000623  0.099388  0.108372  0.000271  1.034304  0.0
H  H5  1  0.37316729  0.98254394  0.77254830  1  0.110067  0.000623  0.099408  0.108392  0.000271  1.034226  0.0
H  H6  1  0.87317227  0.48253963  0.72744817  1  0.109681  0.000624  0.099407  0.108406  0.000271  1.034172  0.0
H  H7  1  0.62681685  0.01745609  0.22744636  1  0.109935  0.000623  0.099383  0.108366  0.000271  1.034208  0.0
H  H8  1  0.52792470  0.60110528  0.35798592  1  0.059841  0.000637  0.10633  0.122264  0.000269  1.023658  0.0
H  H9  1  0.97207574  0.89889935  0.85798238  1  0.059925  0.000637  0.106351  0.122331  0.000269  1.023676  0.0
H  H10  1  0.47207513  0.39889637  0.64201595  1  0.059882  0.000637  0.106357  0.122276  0.000269  1.02368  0.0
H  H11  1  0.02792292  0.10111529  0.14202369  1  0.059866  0.000638  0.106327  0.122197  0.000269  1.02371  0.0
H  H12  1  0.36968403  0.35011634  0.40360364  1  0.092188  0.000111  0.103237  0.113254  8e-06  1.019629  0.0
H  H13  1  0.13032754  0.14988265  0.90360616  1  0.092233  0.000111  0.103239  0.113259  8e-06  1.019637  0.0
H  H14  1  0.63032467  0.64988269  0.59639883  1  0.092276  0.000111  0.103292  0.113347  8e-06  1.019436  0.0
H  H15  1  0.86966927  0.85012645  0.09640773  1  0.09224  0.000111  0.103381  0.113505  8e-06  1.01954  0.0
H  H16  1  0.66897959  0.56432628  0.46304948  1  0.047508  2.2e-05  0.09518  0.059272  -4e-06  1.003146  0.0
H  H17  1  0.83102642  0.93566893  0.96304854  1  0.047424  2.2e-05  0.095195  0.059336  -4e-06  1.003049  0.0
H  H18  1  0.33103370  0.43566897  0.53695479  1  0.047401  2.2e-05  0.095187  0.059322  -4e-06  1.003056  0.0
H  H19  1  0.16895556  0.06433731  0.03695574  1  0.04724  2.2e-05  0.095185  0.059309  -4e-06  1.003064  0.0
H  H20  1  0.72527416  0.52978045  0.36709086  1  0.011554  -3.2e-05  0.091748  0.048101  -7.1e-05  1.000597  0.0
H  H21  1  0.77473353  0.97021952  0.86708681  1  0.011496  -3.2e-05  0.091736  0.048036  -7.1e-05  1.000663  0.0
H  H22  1  0.27473351  0.47021860  0.63291822  1  0.011402  -3.2e-05  0.091788  0.04813  -7.1e-05  1.000401  0.0
H  H23  1  0.22526039  0.02979087  0.13291266  1  0.01102  -3.2e-05  0.091701  0.048022  -7.1e-05  1.000576  0.0
H  H24  1  0.83338898  0.41233964  0.43310438  1  0.032385  0.000637  0.089049  0.085041  0.00042  1.031037  0.0
H  H25  1  0.66662210  0.08766070  0.93310360  1  0.032452  0.000638  0.08908  0.085094  0.00042  1.030962  0.0
H  H26  1  0.16662419  0.58766180  0.56689268  1  0.032417  0.000637  0.08907  0.085047  0.00042  1.031045  0.0
H  H27  1  0.33336846  0.91234788  0.06689346  1  0.032534  0.000637  0.089132  0.085168  0.000419  1.031063  0.0
H  H28  1  0.77604126  0.44481477  0.52817516  1  0.035686  8.3e-05  0.088441  0.090732  0.0  1.010077  0.0
H  H29  1  0.72396001  0.05517875  0.02817749  1  0.035736  8.3e-05  0.088405  0.090676  0.0  1.010042  0.0
H  H30  1  0.22396849  0.55517745  0.47182070  1  0.035676  8.3e-05  0.088407  0.090666  0.0  1.010051  0.0
H  H31  1  0.27602707  0.94483421  0.97182739  1  0.035288  8.3e-05  0.088434  0.090711  0.0  1.010015  0.0
H  H32  1  0.92252433  0.57867514  0.51105461  1  0.016293  5.3e-05  0.08476  0.077531  -4.8e-05  1.003515  0.0
H  H33  1  0.57746480  0.92132501  0.01105864  1  0.016189  5.3e-05  0.084806  0.077622  -4.8e-05  1.003604  0.0
H  H34  1  0.07747821  0.42132399  0.48894546  1  0.016052  5.3e-05  0.084822  0.077692  -4.8e-05  1.003578  0.0
H  H35  1  0.42253183  0.07868286  0.98894684  1  0.015953  5.3e-05  0.084853  0.077679  -4.8e-05  1.003646  0.0
H  H36  1  0.98282615  0.54194084  0.41830842  1  0.025118  2.3e-05  0.084755  0.078383  -2.4e-05  0.989677  0.0
H  H37  1  0.51717851  0.95806350  0.91831530  1  0.025118  2.3e-05  0.084791  0.078412  -2.4e-05  0.989773  0.0
H  H38  1  0.01718310  0.45806189  0.58168924  1  0.025535  2.3e-05  0.084763  0.0784  -2.4e-05  0.989823  0.0
H  H39  1  0.48281990  0.04194248  0.08169078  1  0.025446  2.3e-05  0.084746  0.078402  -2.4e-05  0.989795  0.0
H  H40  1  0.54355158  0.26741151  0.24621561  1  0.101849  0.000962  0.124039  0.128406  0.000218  1.001418  0.001
H  H41  1  0.95644539  0.23257869  0.74620254  1  0.102074  0.000962  0.124046  0.128361  0.000218  1.001517  0.001
H  H42  1  0.45644140  0.73259950  0.75379408  1  0.101926  0.000962  0.124039  0.128405  0.000218  1.001345  0.001
H  H43  1  0.04353636  0.76741210  0.25379753  1  0.101795  0.000962  0.124047  0.128422  0.000218  1.001572  0.001
H  H44  1  0.83318899  0.47101724  0.23171084  1  0.156339  0.000521  0.140585  0.110939  -7.8e-05  0.999211  0.0
H  H45  1  0.66680406  0.02898512  0.73170649  1  0.15654  0.000521  0.140531  0.110948  -7.7e-05  0.999317  0.0
H  H46  1  0.16680512  0.52898758  0.76828743  1  0.156341  0.000521  0.140611  0.110949  -7.8e-05  0.999276  0.0
H  H47  1  0.33318200  0.97100005  0.26827074  1  0.15673  0.000521  0.140615  0.110908  -7.8e-05  0.999378  0.0
H  H48  1  0.41363717  0.40188113  0.18325396  1  0.143807  0.000852  0.128514  0.131869  0.000354  0.993668  0.0
H  H49  1  0.08636073  0.09810359  0.68325926  1  0.143724  0.000852  0.128491  0.131897  0.000354  0.993779  0.0
H  H50  1  0.58637694  0.59811968  0.81673409  1  0.143578  0.000853  0.128478  0.131875  0.000354  0.993502  0.0
H  H51  1  0.91362663  0.90188342  0.31674982  1  0.143682  0.000852  0.128528  0.131822  0.000354  0.993638  0.0
H  H52  1  0.69980869  0.57528478  0.16138510  1  0.072895  8.4e-05  0.122316  0.114287  1.5e-05  0.948315  0.0
H  H53  1  0.80018842  0.92471102  0.66138834  1  0.072785  8.4e-05  0.122283  0.114188  1.5e-05  0.948244  0.0
H  H54  1  0.30018524  0.42471881  0.83859933  1  0.072891  8.4e-05  0.122276  0.114153  1.5e-05  0.948396  0.0
H  H55  1  0.19982834  0.07527986  0.33859790  1  0.073331  8.4e-05  0.122341  0.114123  1.5e-05  0.948493  0.0
H  H56  1  0.52727792  0.57497561  0.19630860  1  0.09634  6.6e-05  0.114851  0.109196  -9.1e-05  1.002984  0.0
H  H57  1  0.97271611  0.92501384  0.69631773  1  0.096222  6.6e-05  0.114822  0.109091  -9.1e-05  1.003039  0.0
H  H58  1  0.47272099  0.42501987  0.80367644  1  0.096118  6.6e-05  0.114785  0.109135  -9.1e-05  1.003058  0.0
H  H59  1  0.02728944  0.07497783  0.30368053  1  0.096247  6.6e-05  0.114743  0.108984  -9.1e-05  1.003056  0.0
H  H60  1  0.75015411  0.50172361  0.03073343  1  0.075614  7e-06  0.091888  0.086112  -3e-06  1.071919  0.0
H  H61  1  0.74985950  0.99828619  0.53073928  1  0.075616  7e-06  0.091845  0.086002  -3e-06  1.072088  0.0
H  H62  1  0.24984457  0.49828423  0.96924921  1  0.075505  7e-06  0.091824  0.086018  -3e-06  1.071869  0.0
H  H63  1  0.25016248  0.00170522  0.46925297  1  0.075567  7e-06  0.09182  0.086021  -3e-06  1.071884  0.0
H  H64  1  0.33477554  0.54140461  0.10465783  1  0.081886  1.7e-05  0.101894  0.106729  -3e-05  1.010728  0.0
H  H65  1  0.16521808  0.95858500  0.60466546  1  0.08181  1.7e-05  0.10194  0.10682  -3e-05  1.010568  0.0
H  H66  1  0.66520486  0.45859795  0.89533021  1  0.081911  1.7e-05  0.101895  0.106797  -3e-05  1.010621  0.0
H  H67  1  0.83479865  0.04141268  0.39532980  1  0.082017  1.7e-05  0.101904  0.106811  -3e-05  1.010505  0.0
H  H68  1  0.58963895  0.25313257  0.38838108  1  0.125595  0.000647  0.140716  0.105023  8.8e-05  0.997951  0.0
H  H69  1  0.91037334  0.24686635  0.88837544  1  0.125396  0.000647  0.140718  0.10509  8.8e-05  0.997994  0.0
H  H70  1  0.41034767  0.74684950  0.61162620  1  0.125859  0.000647  0.140767  0.105104  8.8e-05  0.998027  0.0
H  H71  1  0.08964374  0.75314059  0.11162583  1  0.12546  0.000647  0.140746  0.105056  8.8e-05  0.998163  0.0
H  H72  1  0.99715327  0.24810976  0.47346194  1  0.158887  0.000828  0.121885  0.126667  0.0002  1.010854  0.001
H  H73  1  0.50285948  0.25188959  0.97345470  1  0.159141  0.000828  0.121894  0.126678  0.0002  1.01075  0.001
H  H74  1  0.00284434  0.75188389  0.52654113  1  0.158982  0.000828  0.121934  0.126773  0.0002  1.010672  0.001
H  H75  1  0.49712184  0.74811914  0.02653876  1  0.158832  0.000829  0.121859  0.126591  0.000201  1.010831  0.001
H  H76  1  0.81536957  0.18986679  0.59455119  1  0.139457  0.000803  0.118041  0.117422  0.000211  1.054243  0.0
H  H77  1  0.68462775  0.31013509  0.09454315  1  0.139225  0.000803  0.118074  0.117483  0.000211  1.054133  0.0
H  H78  1  0.18463379  0.81011008  0.40545188  1  0.138597  0.000803  0.118084  0.117416  0.000211  1.054372  0.0
H  H79  1  0.31535886  0.68990940  0.90543768  1  0.139  0.000803  0.118133  0.117484  0.000211  1.054102  0.0
H  H80  1  0.45234874  0.20980130  0.51415091  1  0.085489  9.8e-05  0.123529  0.114222  1.5e-05  0.941635  0.0
H  H81  1  0.04765453  0.29019047  0.01413941  1  0.085294  9.8e-05  0.123517  0.114157  1.5e-05  0.941606  0.0
H  H82  1  0.54764772  0.79017073  0.48585516  1  0.085593  9.8e-05  0.12349  0.114237  1.5e-05  0.941622  0.0
H  H83  1  0.95233404  0.70982555  0.98585344  1  0.085704  9.8e-05  0.123553  0.114168  1.5e-05  0.941624  0.0
H  H84  1  0.54167224  0.18613425  0.60307915  1  0.113104  0.000421  0.122006  0.116706  0.000197  0.975922  0.0
H  H85  1  0.95832882  0.31385995  0.10307761  1  0.113219  0.000421  0.121994  0.116715  0.000197  0.975754  0.0
H  H86  1  0.45833447  0.81384442  0.39692633  1  0.113291  0.00042  0.12196  0.116674  0.000197  0.975961  0.0
H  H87  1  0.04167158  0.68616640  0.89692305  1  0.112889  0.000421  0.121968  0.116582  0.000197  0.975912  0.0
H  H88  1  0.57404991  0.09808202  0.39117865  1  0.117883  6.5e-05  0.10266  0.110295  -1.1e-05  1.029018  0.0
H  H89  1  0.92594827  0.40191952  0.89116836  1  0.117835  6.5e-05  0.102632  0.110218  -1.1e-05  1.029085  0.0
H  H90  1  0.42593069  0.90188716  0.60883283  1  0.117687  6.5e-05  0.102685  0.110268  -1.1e-05  1.029152  0.0
H  H91  1  0.07408127  0.59810206  0.10881608  1  0.11758  6.5e-05  0.102619  0.110228  -1.1e-05  1.029249  0.0
H  H92  1  0.46117537  0.05008837  0.63884274  1  0.080383  3.7e-05  0.102882  0.107912  -9.4e-05  1.021002  0.0
H  H93  1  0.03885871  0.44990180  0.13882195  1  0.080665  3.7e-05  0.10291  0.107981  -9.4e-05  1.020905  0.0
H  H94  1  0.53881082  0.94988382  0.36117897  1  0.080779  3.7e-05  0.102992  0.108083  -9.4e-05  1.020891  0.0
H  H95  1  0.96118231  0.55012084  0.86116490  1  0.080961  3.7e-05  0.102932  0.107998  -9.4e-05  1.02088  0.0
C  C96  1  0.12386878  0.35926959  0.33085820  1  1.529138  0.001447  0.196694  0.563894  0.001154  4.216268  -0.001
C  C97  1  0.37613270  0.14071523  0.83084736  1  1.529062  0.001449  0.196961  0.564154  0.001151  4.21625  -0.001
C  C98  1  0.87612360  0.64072351  0.66915509  1  1.528382  0.001446  0.196827  0.564163  0.001149  4.216046  -0.001
C  C99  1  0.62385968  0.85927787  0.16915030  1  1.529134  0.001448  0.196828  0.564134  0.00115  4.216353  -0.001
C  C100  1  0.23628141  0.42655377  0.33789908  1  -0.078042  0.003742  -0.020916  -0.016677  0.001908  4.011301  0.003
C  C101  1  0.26371709  0.07344020  0.83788430  1  -0.078569  0.003742  -0.020923  -0.016438  0.001907  4.011186  0.003
C  C102  1  0.76373085  0.57344150  0.66210820  1  -0.078342  0.003742  -0.020883  -0.016644  0.001907  4.011379  0.003
C  C103  1  0.73627461  0.92656218  0.16210555  1  -0.078347  0.003742  -0.020931  -0.016713  0.001908  4.011458  0.003
C  C104  1  0.22062835  0.50443379  0.30441611  1  0.032747  0.002053  -0.096112  -0.149812  0.001132  3.982196  0.001
C  C105  1  0.27936821  0.99556271  0.80440486  1  0.032649  0.002053  -0.096272  -0.150047  0.001132  3.98248  0.001
C  C106  1  0.77937419  0.49556534  0.69559538  1  0.032937  0.002051  -0.09619  -0.149909  0.001131  3.982395  0.001
C  C107  1  0.72062647  0.00443900  0.19559220  1  0.032519  0.002053  -0.096139  -0.149853  0.001132  3.982777  0.001
C  C108  1  0.32608359  0.56627345  0.31204018  1  -0.061644  0.00247  -0.025011  -0.020493  0.001218  4.032282  0.002
C  C109  1  0.17391316  0.93372596  0.81203261  1  -0.061778  0.002472  -0.025025  -0.020597  0.001218  4.032679  0.002
C  C110  1  0.67391735  0.43372879  0.68796650  1  -0.061687  0.002469  -0.025036  -0.020552  0.001217  4.032788  0.002
C  C111  1  0.82607126  0.06627592  0.18796806  1  -0.061937  0.002472  -0.025189  -0.020705  0.001218  4.032999  0.002
C  C112  1  0.44809700  0.55134637  0.35327825  1  0.030677  0.001114  -0.102755  -0.23498  0.000622  3.963544  0.001
C  C113  1  0.05191576  0.94865180  0.85328614  1  0.030759  0.001113  -0.10274  -0.235095  0.000621  3.963527  0.001
C  C114  1  0.55191321  0.44864893  0.64671761  1  0.031198  0.001113  -0.10264  -0.234888  0.000621  3.963601  0.001
C  C115  1  0.94807797  0.05135735  0.14672174  1  0.030932  0.001113  -0.102683  -0.234861  0.000622  3.963707  0.001
C  C116  1  0.46421894  0.47312238  0.38585472  1  0.397768  0.000516  0.08182  0.254324  0.000187  4.083038  0.0
C  C117  1  0.03579969  0.02687878  0.88586509  1  0.397539  0.000516  0.081818  0.254418  0.000187  4.083033  0.0
C  C118  1  0.53580117  0.52687029  0.61413633  1  0.397616  0.000516  0.081774  0.254294  0.000187  4.083295  0.0
C  C119  1  0.96419776  0.97313464  0.11414219  1  0.397883  0.000515  0.081879  0.254469  0.000187  4.083132  0.0
C  C120  1  0.35764386  0.41117938  0.37844045  1  0.015709  0.000211  -0.092307  -0.210794  -0.000255  3.96865  0.0
C  C121  1  0.14237177  0.08882077  0.87844592  1  0.015598  0.00021  -0.092292  -0.210929  -0.000255  3.968805  0.0
C  C122  1  0.64237671  0.58881638  0.62155722  1  0.015231  0.00021  -0.092367  -0.21091  -0.000256  3.968476  0.0
C  C123  1  0.85763437  0.91118881  0.12155895  1  0.015475  0.000211  -0.092512  -0.211201  -0.000255  3.968913  0.0
C  C124  1  0.30942299  0.64764130  0.27257956  1  1.549045  0.001006  0.192025  0.54803  0.000567  4.226287  0.0
C  C125  1  0.19057206  0.85235909  0.77257653  1  1.549281  0.001007  0.191992  0.548177  0.000569  4.226414  0.0
C  C126  1  0.69058438  0.35236270  0.72741870  1  1.548963  0.001006  0.191844  0.547925  0.000567  4.226309  0.0
C  C127  1  0.80940704  0.14764164  0.22742774  1  1.54938  0.001009  0.192069  0.548295  0.000571  4.22628  0.0
C  C128  1  0.69648481  0.50970773  0.42862330  1  0.400586  2.4e-05  -0.067583  0.044105  -2.7e-05  3.894722  0.0
C  C129  1  0.80352642  0.99028762  0.92862031  1  0.400105  2.4e-05  -0.067564  0.044097  -2.7e-05  3.894489  0.0
C  C130  1  0.30352884  0.49028999  0.57138157  1  0.400182  2.4e-05  -0.067586  0.044024  -2.7e-05  3.894267  0.0
C  C131  1  0.19647767  0.00972199  0.07138096  1  0.400792  2.4e-05  -0.067566  0.044086  -2.7e-05  3.894359  0.0
C  C132  1  0.81200231  0.46695093  0.46879890  1  0.000895  0.000617  -0.174573  -0.186703  0.000282  3.960403  0.0
C  C133  1  0.68799942  0.03304251  0.96879724  1  0.001038  0.000617  -0.174549  -0.186633  0.000282  3.960184  0.0
C  C134  1  0.18800687  0.53304439  0.53120176  1  0.00129  0.000616  -0.17459  -0.186663  0.000282  3.960339  0.0
C  C135  1  0.31198805  0.96696611  0.03120403  1  0.001606  0.000617  -0.17459  -0.186636  0.000282  3.960433  0.0
C  C136  1  0.94392620  0.52206201  0.47800146  1  -0.029212  1.8e-05  -0.165563  -0.13338  -6e-05  3.940794  0.0
C  C137  1  0.55607777  0.97793659  0.97800328  1  -0.029028  1.8e-05  -0.165649  -0.133494  -6e-05  3.941171  0.0
C  C138  1  0.05609959  0.47793429  0.52200281  1  -0.001089  1.8e-05  -0.165652  -0.133593  -6e-05  3.941332  0.0
C  C139  1  0.44391233  0.02206891  0.02200340  1  -0.000944  1.8e-05  -0.1657  -0.133719  -6e-05  3.941318  0.0
C  C140  1  0.58280055  0.33022948  0.23494117  1  0.44914  -0.000148  0.001449  -0.032835  -0.001005  3.992392  0.0
C  C141  1  0.91719680  0.16976779  0.73493107  1  0.449377  -0.00015  0.001472  -0.032637  -0.001006  3.992353  0.0
C  C142  1  0.41720384  0.66977518  0.76507032  1  0.449364  -0.000147  0.001379  -0.032922  -0.001003  3.993107  0.0
C  C143  1  0.08278326  0.83022550  0.26506239  1  0.449598  -0.000148  0.00149  -0.032916  -0.001004  3.992873  0.0
C  C144  1  0.73706883  0.43355633  0.22787356  1  0.961919  0.002015  0.141404  0.081319  0.001579  3.923782  0.002
C  C145  1  0.76291605  0.06644562  0.72786916  1  0.961831  0.002014  0.141632  0.081403  0.00158  3.924006  0.002
C  C146  1  0.26292762  0.56645030  0.77212049  1  0.960981  0.002017  0.141376  0.081401  0.001579  3.923564  0.002
C  C147  1  0.23706569  0.93354517  0.27212249  1  0.960873  0.002018  0.141362  0.081378  0.001582  3.923763  0.002
C  C148  1  0.51863673  0.39557663  0.20292656  1  0.272411  0.006141  0.008747  -0.091048  0.0032  3.91172  0.004
C  C149  1  0.98136559  0.10441268  0.70292975  1  0.27203  0.006142  0.008639  -0.091277  0.003201  3.911792  0.004
C  C150  1  0.48136252  0.60442811  0.79705547  1  0.272779  0.006139  0.008878  -0.090952  0.003199  3.912104  0.004
C  C151  1  0.01862524  0.89556994  0.29706431  1  0.272175  0.006141  0.008796  -0.090768  0.0032  3.911914  0.004
C  C152  1  0.59920905  0.54055650  0.16060336  1  0.281556  0.001046  -0.040932  -0.109687  0.00057  3.872992  0.001
C  C153  1  0.90078939  0.95944114  0.66061136  1  0.281761  0.001046  -0.04083  -0.109338  0.00057  3.872664  0.001
C  C154  1  0.40079020  0.45944824  0.83938228  1  0.281612  0.001046  -0.040738  -0.109381  0.00057  3.872898  0.001
C  C155  1  0.09922456  0.04055163  0.33937848  1  0.281061  0.001046  -0.040759  -0.109031  0.00057  3.872982  0.001
C  C156  1  0.54816745  0.52455096  0.07621085  1  -0.022619  0.000219  -0.012999  0.086852  0.000104  3.982867  0.0
C  C157  1  0.95184254  0.97545100  0.57621494  1  -0.022765  0.000219  -0.013012  0.086713  0.000104  3.982839  0.0
C  C158  1  0.45181891  0.47545706  0.92378501  1  -0.022886  0.00022  -0.012971  0.086857  0.000104  3.982497  0.0
C  C159  1  0.04818625  0.02454463  0.42378212  1  -0.023202  0.00022  -0.013039  0.086745  0.000104  3.982395  0.0
C  C160  1  0.64044741  0.50165362  0.01691651  1  -0.083892  0.000326  -0.095414  -0.133661  0.000158  3.998896  0.0
C  C161  1  0.85956505  0.99834541  0.51691934  1  -0.083497  0.000326  -0.095369  -0.133483  0.000158  3.998903  0.0
C  C162  1  0.35954979  0.49835115  0.98308416  1  -0.083501  0.000326  -0.095378  -0.133599  0.000157  3.999037  0.0
C  C163  1  0.14045552  0.00165035  0.48308193  1  -0.083454  0.000326  -0.095346  -0.133573  0.000157  3.998943  0.0
C  C164  1  0.40717875  0.52295758  0.05884505  1  -0.021099  0.000212  -0.090478  -0.129835  9.5e-05  3.993954  0.0
C  C165  1  0.09282869  0.97703909  0.55884648  1  -0.020868  0.000212  -0.090527  -0.129972  9.5e-05  3.993773  0.0
C  C166  1  0.59281740  0.47705401  0.94114419  1  -0.020745  0.000212  -0.090527  -0.130088  9.4e-05  3.993468  0.0
C  C167  1  0.90718555  0.02294873  0.44114396  1  -0.021037  0.000212  -0.090489  -0.130069  9.4e-05  3.993115  0.0
C  C168  1  0.67697175  0.24428376  0.42712580  1  0.988357  0.004875  0.149304  0.102751  0.002911  3.920534  0.004
C  C169  1  0.82303834  0.25571550  0.92712154  1  0.989347  0.004866  0.149282  0.102478  0.002908  3.920712  0.004
C  C170  1  0.32301821  0.75570691  0.57288148  1  0.988185  0.004878  0.149252  0.102515  0.002911  3.920423  0.004
C  C171  1  0.17695587  0.74428994  0.07287372  1  0.98968  0.004872  0.149344  0.102575  0.002911  3.920636  0.004
C  C172  1  0.88560560  0.24025185  0.47467572  1  0.383628  0.002436  0.005265  -0.020942  0.001261  3.975295  0.002
C  C173  1  0.61440886  0.25975238  0.97467669  1  0.384516  0.002434  0.005285  -0.020833  0.001261  3.975426  0.002
C  C174  1  0.11438774  0.75973382  0.52532615  1  0.383271  0.002434  0.005252  -0.021101  0.00126  3.974958  0.002
C  C175  1  0.38557642  0.74026926  0.02532458  1  0.38391  0.002436  0.005192  -0.021101  0.001262  3.976029  0.002
C  C176  1  0.79718311  0.21141079  0.53411605  1  0.291575  0.00481  0.001417  -0.095214  0.002472  3.895321  0.003
C  C177  1  0.70282345  0.28858498  0.03410947  1  0.291335  0.004806  0.00143  -0.095372  0.002469  3.895629  0.003
C  C178  1  0.20281650  0.78856861  0.46588401  1  0.29328  0.004811  0.001338  -0.095227  0.002473  3.895029  0.003
C  C179  1  0.29717201  0.71143589  0.96588759  1  0.292176  0.004808  0.001461  -0.095249  0.002471  3.895946  0.003
C  C180  1  0.53869796  0.17637916  0.53776129  1  0.278326  0.00094  -0.036622  -0.106632  0.000552  3.876002  0.001
C  C181  1  0.96130278  0.32361970  0.03775351  1  0.278565  0.00094  -0.036533  -0.106548  0.000552  3.875786  0.001
C  C182  1  0.46130212  0.82360332  0.46224899  1  0.277893  0.00094  -0.036471  -0.106583  0.000552  3.875802  0.001
C  C183  1  0.03869025  0.67640553  0.96224355  1  0.278088  0.00094  -0.036364  -0.106145  0.000552  3.875211  0.001
C  C184  1  0.51923829  0.08515231  0.51759512  1  -0.112937  0.000173  -0.012477  0.08033  7.6e-05  3.971784  0.0
C  C185  1  0.98077312  0.41485181  0.01757738  1  -0.11316  0.000172  -0.012642  0.080152  7.6e-05  3.972176  0.0
C  C186  1  0.48076235  0.91482707  0.48242659  1  -0.112065  0.000172  -0.012523  0.080321  7.6e-05  3.971866  0.0
C  C187  1  0.01923595  0.58517749  0.98240946  1  -0.112497  0.000172  -0.012535  0.080351  7.6e-05  3.971356  0.0
C  C188  1  0.54002988  0.05588882  0.43942583  1  -0.027636  4e-05  -0.091761  -0.133857  8e-06  3.967573  0.0
C  C189  1  0.95998777  0.44412239  0.93941125  1  -0.027607  4e-05  -0.091483  -0.133496  8e-06  3.968  0.0
C  C190  1  0.45996506  0.94409374  0.56059408  1  -0.028505  4e-05  -0.091667  -0.133586  8e-06  3.967847  0.0
C  C191  1  0.04005100  0.55590584  0.06057438  1  -0.027827  4e-05  -0.091535  -0.133505  8e-06  3.967435  0.0
C  C192  1  0.47879942  0.02827883  0.57774482  1  -0.03004  8.5e-05  -0.09034  -0.138731  2.6e-05  3.98643  0.0
C  C193  1  0.02122120  0.47171857  0.07772857  1  -0.029868  8.5e-05  -0.090437  -0.138915  2.6e-05  3.986202  0.0
C  C194  1  0.52120056  0.97170303  0.42227448  1  -0.030227  8.5e-05  -0.090403  -0.138924  2.6e-05  3.986259  0.0
C  C195  1  0.97882103  0.52830529  0.92225948  1  -0.030723  8.5e-05  -0.090544  -0.13914  2.6e-05  3.986653  0.0
N  N196  1  0.80912584  0.26004682  0.40798258  1  -1.203778  0.063222  -0.366272  -0.310464  0.033192  3.685951  0.04
N  N197  1  0.69088229  0.23995602  0.90798072  1  -1.204695  0.063206  -0.366196  -0.310393  0.033184  3.685968  0.04
N  N198  1  0.19085951  0.73995443  0.59202470  1  -1.203388  0.063209  -0.366251  -0.310326  0.033191  3.685837  0.04
N  N199  1  0.30910662  0.76004146  0.09202476  1  -1.204186  0.063219  -0.366284  -0.310314  0.033189  3.686226  0.04
N  N200  1  0.66530930  0.21441949  0.50299515  1  -1.237078  0.004503  -0.2405  0.043383  0.001913  3.768476  0.003
N  N201  1  0.83469930  0.28557638  0.00299138  1  -1.237595  0.004499  -0.240645  0.04351  0.001911  3.768406  0.003
N  N202  1  0.33468863  0.78556241  0.49701273  1  -1.238207  0.004502  -0.240549  0.043458  0.001912  3.768025  0.003
N  N203  1  0.16529916  0.71444383  0.99700027  1  -1.238549  0.004502  -0.240718  0.043487  0.001912  3.768286  0.003
N  N204  1  0.71930706  0.35467326  0.25026291  1  -1.231739  0.065235  -0.367283  -0.308846  0.034137  3.674122  0.045
N  N205  1  0.78069068  0.14532302  0.75025844  1  -1.232246  0.065239  -0.367414  -0.309065  0.034136  3.67454  0.045
N  N206  1  0.28069685  0.64533512  0.74974377  1  -1.231212  0.065242  -0.367302  -0.30893  0.034139  3.674112  0.045
N  N207  1  0.21929248  0.85466343  0.24973802  1  -1.231044  0.06524  -0.367325  -0.308779  0.034137  3.673825  0.045
N  N208  1  0.61730751  0.46050019  0.19921757  1  -1.208061  0.002568  -0.239211  0.042283  0.0008  3.776929  0.001
N  N209  1  0.88268531  0.03949368  0.69922503  1  -1.20782  0.002569  -0.239211  0.042376  0.000801  3.776851  0.001
N  N210  1  0.38269631  0.53950757  0.80077228  1  -1.208083  0.002568  -0.239331  0.042145  0.000801  3.777101  0.001
N  N211  1  0.11729860  0.96049090  0.30077444  1  -1.208007  0.00257  -0.23935  0.041908  0.000802  3.777385  0.001
O  O212  1  0.13591172  0.29020325  0.36232431  1  -1.171864  0.024746  -0.331196  -0.556665  0.012095  2.083895  0.02
O  O213  1  0.36409705  0.20978195  0.86231395  1  -1.171603  0.024747  -0.33138  -0.556892  0.012097  2.083867  0.02
O  O214  1  0.86407950  0.70980285  0.63770762  1  -1.171045  0.02476  -0.331293  -0.55678  0.012101  2.083441  0.02
O  O215  1  0.63589955  0.79020491  0.13769514  1  -1.171578  0.024752  -0.331298  -0.55679  0.012099  2.083938  0.02
O  O216  1  0.01444474  0.37892083  0.29133082  1  -1.150882  0.102374  -0.340632  -0.568481  0.052381  2.33086  0.08
O  O217  1  0.48554905  0.12107309  0.79131137  1  -1.150676  0.102347  -0.340705  -0.568569  0.052372  2.330938  0.08
O  O218  1  0.98554018  0.62107053  0.70868067  1  -1.150626  0.102344  -0.340726  -0.568703  0.052371  2.33098  0.08
O  O219  1  0.51443201  0.87892698  0.20867427  1  -1.150614  0.102339  -0.340665  -0.568609  0.052369  2.330671  0.08
O  O220  1  0.20025195  0.66158857  0.23575492  1  -1.175196  0.036479  -0.323102  -0.56534  0.017876  2.159164  0.03
O  O221  1  0.29974850  0.83841261  0.73575999  1  -1.175142  0.036458  -0.323027  -0.565351  0.017865  2.159187  0.03
O  O222  1  0.79975193  0.33839879  0.76423493  1  -1.175304  0.036461  -0.323041  -0.565337  0.017866  2.159243  0.03
O  O223  1  0.70022761  0.16158878  0.26423888  1  -1.175568  0.036451  -0.323137  -0.5655  0.01786  2.159357  0.03
O  O224  1  0.41487343  0.70105027  0.27543437  1  -1.142997  0.099421  -0.335972  -0.552435  0.050882  2.309025  0.076
O  O225  1  0.08512469  0.79895061  0.77543184  1  -1.143094  0.099427  -0.335972  -0.552449  0.050881  2.30923  0.076
O  O226  1  0.58512041  0.29895270  0.72457050  1  -1.142901  0.099443  -0.335931  -0.552378  0.050892  2.308562  0.076
O  O227  1  0.91486087  0.20104506  0.22458025  1  -1.142751  0.099423  -0.335935  -0.552421  0.050881  2.309153  0.076
O  O228  1  0.57944596  0.45081337  0.42477675  1  -1.069534  5.5e-05  -0.184035  -0.210051  -5.5e-05  2.553071  0.0
O  O229  1  0.92056270  0.04918967  0.92477878  1  -1.068973  5.5e-05  -0.183972  -0.20997  -5.5e-05  2.552981  0.0
O  O230  1  0.42056899  0.54918618  0.57522572  1  -1.069041  5.5e-05  -0.183965  -0.209933  -5.5e-05  2.553126  0.0
O  O231  1  0.07943110  0.95082689  0.07522850  1  -1.069515  5.5e-05  -0.184002  -0.209991  -5.5e-05  2.553036  0.0
