# generated using pymatgen
data_Cu2H10C3(IN)2
_symmetry_space_group_name_H-M   'P 1'
_cell_length_a   7.30072972
_cell_length_b   8.92664065
_cell_length_c   15.27628036
_cell_angle_alpha   91.27292850
_cell_angle_beta   89.97519531
_cell_angle_gamma   114.13094406
_symmetry_Int_Tables_number   1
_chemical_formula_structural   Cu2H10C3(IN)2
_chemical_formula_sum   'Cu8 H40 C12 I8 N8'
_cell_volume   908.30590027
_cell_formula_units_Z   4
loop_
 _symmetry_equiv_pos_site_id
 _symmetry_equiv_pos_as_xyz
  1  'x, y, z'
loop_
 _atom_site_type_symbol
 _atom_site_label
 _atom_site_symmetry_multiplicity
 _atom_site_fract_x
 _atom_site_fract_y
 _atom_site_fract_z
 _atom_site_occupancy
 _atom_site_hle17_bader_spin_density
 _atom_site_hle17_ddec_charge
 _atom_site_hle17_ddec_spin_density
 _atom_site_hle17_ddec_sum_bond_order
 _atom_site_hle17_magmom
 _atom_site_hse06_10hf_bader_spin_density
 _atom_site_hse06_10hf_ddec_charge
 _atom_site_hse06_10hf_ddec_spin_density
 _atom_site_hse06_10hf_ddec_sum_bond_order
 _atom_site_hse06_10hf_magmom
 _atom_site_hse06_bader_spin_density
 _atom_site_hse06_ddec_charge
 _atom_site_hse06_ddec_spin_density
 _atom_site_hse06_ddec_sum_bond_order
 _atom_site_hse06_magmom
 _atom_site_pbe_bader_spin_density
 _atom_site_pbe_cm5_charge
 _atom_site_pbe_ddec_charge
 _atom_site_pbe_ddec_spin_density
 _atom_site_pbe_ddec_sum_bond_order
 _atom_site_pbe_magmom
Cu  Cu0  1  0.53515772  0.93339784  0.17377376  1  0  0.216757  0  2.170851  0  0  0.151716  0  2.622173  0  0  0.166043  0  2.565886  0  0  0.220163  0.143351  0  2.659424  0
Cu  Cu1  1  0.60141559  0.06671979  0.32606022  1  0  0.216578  0  2.171171  0  0  0.151639  0  2.622103  0  0  0.165901  0  2.565903  0  0  0.220196  0.143345  0  2.659235  0
Cu  Cu2  1  0.46483454  0.06659902  0.82623021  1  0  0.216813  0  2.170781  0  0  0.151775  0  2.622082  0  0  0.166129  0  2.565788  0  0  0.220181  0.143411  0  2.659347  0
Cu  Cu3  1  0.39859008  0.93328198  0.67394314  1  0  0.216579  0  2.171301  0  0  0.151626  0  2.622199  0  0  0.165806  0  2.56608  0  0  0.220208  0.143329  0  2.65934  0
Cu  Cu4  1  0.89492861  0.14295966  0.22269252  1  0  0.206574  0  2.269045  0  0  0.151341  0  2.721695  0  0  0.161822  0  2.668129  0  0  0.223117  0.145449  0  2.757145  0
Cu  Cu5  1  0.75122901  0.85707527  0.27743615  1  0  0.20618  0  2.270607  0  0  0.151096  0  2.723358  0  0  0.161639  0  2.669732  0  0  0.22316  0.145244  0  2.758772  0
Cu  Cu6  1  0.10506545  0.85704079  0.77730624  1  0  0.206594  0  2.269016  0  0  0.151398  0  2.721627  0  0  0.161929  0  2.668055  0  0  0.223125  0.145504  0  2.757085  0
Cu  Cu7  1  0.24877773  0.14293139  0.72256593  1  0  0.206164  0  2.270483  0  0  0.151064  0  2.723229  0  0  0.161583  0  2.669597  0  0  0.22315  0.145204  0  2.758667  0
H  H8  1  0.23320705  0.89160799  0.07700078  1  0  0.267298  0  0.935488  0  0  0.258582  0  1.000178  0  0  0.263706  0  0.996958  0  0  0.261701  0.254581  0  1.003065  0
H  H9  1  0.34113165  0.10845407  0.42283363  1  0  0.267294  0  0.935192  0  0  0.25829  0  1.000455  0  0  0.263427  0  0.997189  0  0  0.261652  0.254286  0  1.003367  0
H  H10  1  0.76679900  0.10839728  0.92299278  1  0  0.267185  0  0.935852  0  0  0.258493  0  1.000434  0  0  0.263605  0  0.997236  0  0  0.261769  0.254496  0  1.003324  0
H  H11  1  0.65887161  0.89153193  0.57718007  1  0  0.267361  0  0.935403  0  0  0.258354  0  1.000618  0  0  0.263485  0  0.997356  0  0  0.261796  0.254353  0  1.003527  0
H  H12  1  0.38959413  0.84368120  0.01746313  1  0  0.269358  0  0.911163  0  0  0.264421  0  0.968585  0  0  0.268874  0  0.966294  0  0  0.273658  0.261154  0  0.970418  0
H  H13  1  0.54535439  0.15646434  0.48236674  1  0  0.269368  0  0.911705  0  0  0.264269  0  0.969106  0  0  0.268711  0  0.966827  0  0  0.273876  0.261  0  0.970957  0
H  H14  1  0.61041991  0.15631813  0.98254151  1  0  0.269447  0  0.910776  0  0  0.264468  0  0.968323  0  0  0.268924  0  0.966026  0  0  0.273605  0.261199  0  0.970158  0
H  H15  1  0.45465569  0.84354349  0.51763273  1  0  0.269345  0  0.911255  0  0  0.26425  0  0.968711  0  0  0.268691  0  0.966422  0  0  0.273721  0.260974  0  0.970573  0
H  H16  1  0.15040189  0.43952665  0.22442374  1  0  0.262482  0  0.932718  0  0  0.257136  0  0.99179  0  0  0.26176  0  0.989018  0  0  0.266502  0.253739  0  0.994035  0
H  H17  1  0.71067220  0.56069658  0.27564035  1  0  0.261938  0  0.932792  0  0  0.25628  0  0.992181  0  0  0.260915  0  0.989392  0  0  0.266528  0.25289  0  0.994407  0
H  H18  1  0.84959045  0.56046762  0.77557235  1  0  0.262522  0  0.932599  0  0  0.257183  0  0.991704  0  0  0.261808  0  0.988932  0  0  0.2665  0.253782  0  0.993948  0
H  H19  1  0.28931852  0.43930268  0.72436036  1  0  0.261967  0  0.932665  0  0  0.256314  0  0.992076  0  0  0.260947  0  0.989282  0  0  0.266574  0.252926  0  0.994293  0
H  H20  1  0.27161069  0.32100859  0.21743864  1  0  0.262099  0  0.935374  0  0  0.254777  0  0.998161  0  0  0.25953  0  0.995128  0  0  0.263583  0.251085  0  1.00081  0
H  H21  1  0.95040024  0.67929202  0.28269219  1  0  0.26216  0  0.935519  0  0  0.254942  0  0.998312  0  0  0.259703  0  0.995285  0  0  0.263539  0.251261  0  1.000931  0
H  H22  1  0.72838292  0.67898822  0.78256271  1  0  0.262288  0  0.935406  0  0  0.254947  0  0.998199  0  0  0.2597  0  0.995166  0  0  0.263713  0.251256  0  1.000847  0
H  H23  1  0.04960156  0.32070472  0.71730523  1  0  0.26218  0  0.935763  0  0  0.254986  0  0.998496  0  0  0.259744  0  0.995464  0  0  0.263599  0.251308  0  1.001116  0
H  H24  1  0.06749068  0.61192104  0.04085561  1  0  0.034736  0  0.969131  0  0  0.055387  0  1.033119  0  0  0.055117  0  1.034153  0  0  0.087445  0.055542  0  1.032447  0
H  H25  1  0.45461098  0.38820698  0.45875503  1  0  0.034874  0  0.968974  0  0  0.055611  0  1.033091  0  0  0.055337  0  1.034146  0  0  0.087598  0.055779  0  1.032383  0
H  H26  1  0.93252125  0.38807680  0.95913462  1  0  0.034762  0  0.969188  0  0  0.055371  0  1.03316  0  0  0.055101  0  1.034194  0  0  0.087374  0.055526  0  1.032486  0
H  H27  1  0.54538666  0.61179242  0.54125354  1  0  0.034881  0  0.968984  0  0  0.055576  0  1.03313  0  0  0.055306  0  1.034184  0  0  0.087597  0.055743  0  1.032423  0
H  H28  1  0.12860491  0.63779494  0.15333976  1  0  0.038746  0  0.963757  0  0  0.056458  0  1.031723  0  0  0.056664  0  1.031731  0  0  0.081931  0.056147  0  1.031975  0
H  H29  1  0.49081781  0.36227967  0.34635581  1  0  0.037377  0  0.964121  0  0  0.056037  0  1.031438  0  0  0.056177  0  1.031527  0  0  0.081536  0.055764  0  1.031649  0
H  H30  1  0.87138910  0.36220541  0.84665311  1  0  0.038843  0  0.963849  0  0  0.056555  0  1.031764  0  0  0.05676  0  1.031768  0  0  0.081943  0.056244  0  1.032016  0
H  H31  1  0.50916639  0.63771477  0.65364945  1  0  0.037348  0  0.964071  0  0  0.055995  0  1.031395  0  0  0.056139  0  1.031474  0  0  0.081507  0.05572  0  1.03161  0
H  H32  1  0.44832550  0.59390518  0.11547261  1  0  0.069974  0  0.963127  0  0  0.082899  0  1.036201  0  0  0.084294  0  1.03532  0  0  0.075736  0.081706  0  1.037087  0
H  H33  1  0.85410112  0.40635518  0.38461148  1  0  0.070272  0  0.96345  0  0  0.0827  0  1.036827  0  0  0.084068  0  1.035976  0  0  0.07574  0.08151  0  1.037697  0
H  H34  1  0.55167346  0.40609411  0.88453007  1  0  0.069986  0  0.963099  0  0  0.082903  0  1.036196  0  0  0.084296  0  1.03531  0  0  0.07573  0.081711  0  1.037087  0
H  H35  1  0.14588837  0.59364161  0.61538791  1  0  0.070241  0  0.96346  0  0  0.082719  0  1.036783  0  0  0.084089  0  1.03593  0  0  0.075758  0.081519  0  1.037666  0
H  H36  1  0.35820898  0.55027777  0.00624382  1  0  0.074819  0  0.941905  0  0  0.093849  0  1.002583  0  0  0.094402  0  1.003361  0  0  0.083716  0.093383  0  1.002147  0
H  H37  1  0.80676936  0.44969417  0.49382367  1  0  0.075356  0  0.942602  0  0  0.093949  0  1.003442  0  0  0.09457  0  1.004158  0  0  0.083692  0.093431  0  1.003058  0
H  H38  1  0.64179834  0.44971909  0.99376015  1  0  0.07481  0  0.941949  0  0  0.093869  0  1.002598  0  0  0.094419  0  1.003375  0  0  0.083728  0.093404  0  1.00216  0
H  H39  1  0.19323623  0.55030744  0.50617117  1  0  0.075405  0  0.942741  0  0  0.093997  0  1.003555  0  0  0.094619  0  1.004271  0  0  0.083712  0.09348  0  1.003168  0
H  H40  1  0.03439511  0.32506331  0.06584011  1  0  0.042855  0  0.959609  0  0  0.059483  0  1.027981  0  0  0.059693  0  1.028116  0  0  0.083271  0.059104  0  1.02821  0
H  H41  1  0.70853414  0.67501647  0.43419536  1  0  0.043127  0  0.959853  0  0  0.06003  0  1.027771  0  0  0.060288  0  1.027895  0  0  0.083504  0.059629  0  1.028044  0
H  H42  1  0.96560195  0.67493218  0.93415534  1  0  0.042904  0  0.959646  0  0  0.059541  0  1.027982  0  0  0.059753  0  1.028122  0  0  0.083287  0.05916  0  1.028212  0
H  H43  1  0.29146485  0.32499386  0.56580610  1  0  0.043084  0  0.959946  0  0  0.059986  0  1.027903  0  0  0.060248  0  1.028023  0  0  0.083473  0.059591  0  1.028169  0
H  H44  1  0.25110788  0.28570572  0.07208760  1  0  0.051514  0  0.961538  0  0  0.065921  0  1.032752  0  0  0.065973  0  1.033443  0  0  0.081236  0.065688  0  1.032581  0
H  H45  1  0.96463476  0.71449271  0.42807910  1  0  0.052395  0  0.960899  0  0  0.066685  0  1.032079  0  0  0.066773  0  1.032787  0  0  0.081431  0.066437  0  1.031909  0
H  H46  1  0.74889414  0.71429970  0.92791448  1  0  0.051549  0  0.961479  0  0  0.065925  0  1.032717  0  0  0.065978  0  1.033408  0  0  0.081257  0.065689  0  1.032545  0
H  H47  1  0.03536355  0.28550529  0.57191964  1  0  0.052327  0  0.960961  0  0  0.066672  0  1.032117  0  0  0.066762  0  1.032823  0  0  0.081427  0.066421  0  1.031949  0
C  C48  1  0.19412801  0.65177972  0.08757163  1  0  0.078719  0  3.658427  0  0  0.020567  0  3.922521  0  0  0.024281  0  3.936935  0  0  -0.090014  0.018102  0  3.912546  0
C  C49  1  0.54179738  0.34831811  0.41222053  1  0  0.080645  0  3.658622  0  0  0.021379  0  3.923209  0  0  0.025103  0  3.937686  0  0  -0.089588  0.018906  0  3.913177  0
C  C50  1  0.80587164  0.34821821  0.91242318  1  0  0.07854  0  3.659041  0  0  0.020527  0  3.922868  0  0  0.02424  0  3.937281  0  0  -0.089911  0.018068  0  3.912889  0
C  C51  1  0.45819943  0.65168237  0.58777954  1  0  0.080714  0  3.658499  0  0  0.021515  0  3.923059  0  0  0.025249  0  3.9375  0  0  -0.08956  0.019039  0  3.913029  0
C  C52  1  0.31044447  0.54499486  0.07500038  1  0  -0.175833  0  3.686326  0  0  -0.209446  0  3.934705  0  0  -0.212561  0  3.950357  0  0  -0.17894  -0.207132  0  3.923907  0
C  C53  1  0.76474149  0.45509487  0.42503164  1  0  -0.176678  0  3.690823  0  0  -0.209417  0  3.938639  0  0  -0.212509  0  3.954347  0  0  -0.17873  -0.20706  0  3.927784  0
C  C54  1  0.68955859  0.45500441  0.92500099  1  0  -0.175864  0  3.686556  0  0  -0.209541  0  3.934882  0  0  -0.21264  0  3.95051  0  0  -0.179006  -0.207229  0  3.924081  0
C  C55  1  0.23524109  0.54490181  0.57496185  1  0  -0.176715  0  3.690589  0  0  -0.20953  0  3.938539  0  0  -0.212614  0  3.954236  0  0  -0.178761  -0.207175  0  3.927693  0
C  C56  1  0.18302479  0.36697698  0.09725917  1  0  0.075425  0  3.650723  0  0  0.020847  0  3.910251  0  0  0.024345  0  3.924475  0  0  -0.091267  0.018571  0  3.900597  0
C  C57  1  0.81542910  0.63314566  0.40283029  1  0  0.072591  0  3.652072  0  0  0.018191  0  3.911101  0  0  0.021573  0  3.925479  0  0  -0.092371  0.015895  0  3.901462  0
C  C58  1  0.81696756  0.63301733  0.90273889  1  0  0.075284  0  3.65074  0  0  0.02074  0  3.91025  0  0  0.024227  0  3.924482  0  0  -0.091296  0.018461  0  3.900594  0
C  C59  1  0.18456162  0.36685359  0.59716978  1  0  0.072713  0  3.652084  0  0  0.01823  0  3.911223  0  0  0.021608  0  3.925592  0  0  -0.092343  0.015941  0  3.901573  0
I  I60  1  0.86229798  0.89734986  0.10894948  1  0  -0.322141  0  1.56607  0  0  -0.281542  0  1.979025  0  0  -0.289847  0  1.940524  0  0  -0.166993  -0.276385  0  2.005717  0
I  I61  1  0.96449146  0.10275190  0.39113977  1  0  -0.321972  0  1.56588  0  0  -0.281573  0  1.979344  0  0  -0.289865  0  1.940852  0  0  -0.166988  -0.276433  0  2.006039  0
I  I62  1  0.13768909  0.10264208  0.89105380  1  0  -0.3221  0  1.565937  0  0  -0.281512  0  1.978873  0  0  -0.289818  0  1.940374  0  0  -0.166972  -0.276357  0  2.005577  0
I  I63  1  0.03552024  0.89725096  0.60885639  1  0  -0.321956  0  1.565795  0  0  -0.281591  0  1.979273  0  0  -0.289865  0  1.940778  0  0  -0.166993  -0.276451  0  2.005975  0
I  I64  1  0.60947005  0.25330094  0.17730630  1  0  -0.334627  0  1.461662  0  0  -0.290236  0  1.85243  0  0  -0.296166  0  1.811836  0  0  -0.153655  -0.286834  0  1.88094  0
I  I65  1  0.35586436  0.74662823  0.32286041  1  0  -0.335123  0  1.459608  0  0  -0.290448  0  1.849914  0  0  -0.296418  0  1.80944  0  0  -0.153771  -0.287056  0  1.878342  0
I  I66  1  0.39052570  0.74669467  0.82269635  1  0  -0.33466  0  1.461641  0  0  -0.290268  0  1.85238  0  0  -0.296198  0  1.811796  0  0  -0.153671  -0.28686  0  1.880874  0
I  I67  1  0.64414084  0.25336986  0.67714357  1  0  -0.335135  0  1.459633  0  0  -0.290441  0  1.849934  0  0  -0.296386  0  1.809461  0  0  -0.153766  -0.287049  0  1.878371  0
N  N68  1  0.32362032  0.82839560  0.07793753  1  0  -0.558144  0  3.207368  0  0  -0.503706  0  3.461381  0  0  -0.521806  0  3.46049  0  0  -0.655596  -0.491139  0  3.46192  0
N  N69  1  0.49472002  0.17174867  0.42192357  1  0  -0.558548  0  3.207736  0  0  -0.503413  0  3.461011  0  0  -0.521536  0  3.460317  0  0  -0.656138  -0.490825  0  3.46143  0
N  N70  1  0.67641105  0.17159729  0.92205003  1  0  -0.558076  0  3.207606  0  0  -0.503666  0  3.461584  0  0  -0.521761  0  3.460697  0  0  -0.655631  -0.491104  0  3.462126  0
N  N71  1  0.50531260  0.82826318  0.57809426  1  0  -0.558638  0  3.207867  0  0  -0.503415  0  3.460999  0  0  -0.521515  0  3.460275  0  0  -0.656115  -0.490822  0  3.461415  0
N  N72  1  0.15118505  0.33771699  0.19221326  1  0  -0.560086  0  3.236479  0  0  -0.50813  0  3.488175  0  0  -0.525767  0  3.488088  0  0  -0.665317  -0.495888  0  3.488202  0
N  N73  1  0.81316796  0.66252857  0.30786306  1  0  -0.558383  0  3.235704  0  0  -0.506584  0  3.487915  0  0  -0.524234  0  3.487936  0  0  -0.665151  -0.494242  0  3.487733  0
N  N74  1  0.84879915  0.66228840  0.80778685  1  0  -0.560283  0  3.236414  0  0  -0.508355  0  3.488077  0  0  -0.526  0  3.488  0  0  -0.665462  -0.496104  0  3.488109  0
N  N75  1  0.18681512  0.33747184  0.69213308  1  0  -0.558383  0  3.235704  0  0  -0.506645  0  3.488039  0  0  -0.524324  0  3.488153  0  0  -0.665237  -0.494292  0  3.487839  0
