# generated using pymatgen
data_Cd3H28C26S2(NO2)10
_symmetry_space_group_name_H-M   'P 1'
_cell_length_a   7.75480312
_cell_length_b   10.13702526
_cell_length_c   11.71128023
_cell_angle_alpha   93.71700215
_cell_angle_beta   89.10716332
_cell_angle_gamma   100.58164776
_symmetry_Int_Tables_number   1
_chemical_formula_structural   Cd3H28C26S2(NO2)10
_chemical_formula_sum   'Cd3 H28 C26 S2 N10 O20'
_cell_volume   903.06509609
_cell_formula_units_Z   1
loop_
 _symmetry_equiv_pos_site_id
 _symmetry_equiv_pos_as_xyz
  1  'x, y, z'
loop_
 _atom_site_type_symbol
 _atom_site_label
 _atom_site_symmetry_multiplicity
 _atom_site_fract_x
 _atom_site_fract_y
 _atom_site_fract_z
 _atom_site_occupancy
 _atom_site_hle17_bader_spin_density
 _atom_site_hle17_ddec_charge
 _atom_site_hle17_ddec_spin_density
 _atom_site_hle17_ddec_sum_bond_order
 _atom_site_hle17_magmom
 _atom_site_hse06_10hf_bader_spin_density
 _atom_site_hse06_10hf_ddec_charge
 _atom_site_hse06_10hf_ddec_spin_density
 _atom_site_hse06_10hf_ddec_sum_bond_order
 _atom_site_hse06_10hf_magmom
 _atom_site_hse06_bader_spin_density
 _atom_site_hse06_ddec_charge
 _atom_site_hse06_ddec_spin_density
 _atom_site_hse06_ddec_sum_bond_order
 _atom_site_hse06_magmom
 _atom_site_pbe_bader_spin_density
 _atom_site_pbe_cm5_charge
 _atom_site_pbe_ddec_charge
 _atom_site_pbe_ddec_spin_density
 _atom_site_pbe_ddec_sum_bond_order
 _atom_site_pbe_magmom
Cd  Cd0  1  0.73602293  0.97320994  0.34296136  1  0  1.211832  0  1.580633  0  0  1.02961  0  2.017766  0  0  1.087857  0  1.96055  0  0  0.770219  0.98464  0  2.059843  0
Cd  Cd1  1  0.26397921  0.02679092  0.65703800  1  0  1.211834  0  1.580589  0  0  1.029633  0  2.017725  0  0  1.087877  0  1.960512  0  0  0.770247  0.984663  0  2.059805  0
Cd  Cd2  1  0.49999686  0.50000093  0.99999993  1  0  1.245624  0  1.593327  0  0  1.066859  0  2.036248  0  0  1.119103  0  1.982668  0  0  0.803122  1.029318  0  2.073679  0
H  H3  1  0.42072107  0.07562021  0.41466207  1  0  0.413934  0  0.878025  0  0  0.384426  0  0.952027  0  0  0.394304  0  0.9377  0  0  0.296116  0.3774  0  0.961337  0
H  H4  1  0.57928295  0.92438270  0.58533487  1  0  0.413867  0  0.87806  0  0  0.384388  0  0.952048  0  0  0.39426  0  0.937734  0  0  0.296113  0.377361  0  0.961311  0
H  H5  1  0.35235764  0.92566578  0.39450875  1  0  0.429879  0  0.866809  0  0  0.399532  0  0.931423  0  0  0.410535  0  0.915469  0  0  0.294349  0.391827  0  0.942547  0
H  H6  1  0.64764657  0.07433810  0.60548996  1  0  0.429956  0  0.866662  0  0  0.399585  0  0.931344  0  0  0.410593  0  0.915386  0  0  0.294396  0.391879  0  0.942469  0
H  H7  1  0.10850600  0.06391231  0.37961809  1  0  0.438962  0  0.850376  0  0  0.408828  0  0.911717  0  0  0.419225  0  0.896532  0  0  0.297095  0.401194  0  0.922967  0
H  H8  1  0.89149790  0.93608042  0.62038415  1  0  0.438774  0  0.850649  0  0  0.408704  0  0.911859  0  0  0.419098  0  0.896678  0  0  0.297082  0.401081  0  0.923084  0
H  H9  1  0.10676564  0.98728103  0.25296052  1  0  0.403833  0  0.910108  0  0  0.361834  0  0.991932  0  0  0.373681  0  0.975047  0  0  0.279479  0.353254  0  1.004199  0
H  H10  1  0.89323600  0.01270770  0.74704060  1  0  0.403775  0  0.910206  0  0  0.361754  0  0.992043  0  0  0.373598  0  0.975159  0  0  0.279425  0.353172  0  1.004312  0
H  H11  1  0.37226543  0.43338781  0.76203324  1  0  0.429491  0  0.860436  0  0  0.399881  0  0.928474  0  0  0.41036  0  0.913164  0  0  0.295714  0.39233  0  0.939488  0
H  H12  1  0.62772583  0.56661106  0.23796853  1  0  0.429453  0  0.860487  0  0  0.399844  0  0.928526  0  0  0.410324  0  0.913213  0  0  0.2957  0.392293  0  0.93954  0
H  H13  1  0.23278652  0.49541199  0.83447508  1  0  0.438325  0  0.863504  0  0  0.406564  0  0.927521  0  0  0.417597  0  0.911572  0  0  0.294164  0.39875  0  0.938798  0
H  H14  1  0.76720810  0.50458989  0.16552605  1  0  0.438414  0  0.863381  0  0  0.406664  0  0.927382  0  0  0.417696  0  0.911435  0  0  0.294217  0.398847  0  0.938661  0
H  H15  1  0.89207306  0.18629767  0.13085954  1  0  0.348084  0  0.863322  0  0  0.327524  0  0.923937  0  0  0.336013  0  0.916537  0  0  0.329972  0.321463  0  0.929252  0
H  H16  1  0.10792524  0.81370322  0.86913896  1  0  0.348066  0  0.863304  0  0  0.327494  0  0.923916  0  0  0.335983  0  0.916519  0  0  0.329981  0.321437  0  0.929229  0
H  H17  1  0.47737521  0.69142946  0.80010940  1  0  0.349894  0  0.889788  0  0  0.330918  0  0.952809  0  0  0.338901  0  0.946126  0  0  0.3063  0.325099  0  0.957802  0
H  H18  1  0.52261611  0.30856944  0.19989067  1  0  0.349922  0  0.889837  0  0  0.330924  0  0.952889  0  0  0.338907  0  0.946206  0  0  0.306303  0.325105  0  0.957881  0
H  H19  1  0.57399660  0.84974726  0.75241475  1  0  0.34267  0  0.887797  0  0  0.324736  0  0.950158  0  0  0.331922  0  0.944757  0  0  0.311505  0.31965  0  0.954041  0
H  H20  1  0.42599888  0.15025265  0.24758368  1  0  0.342647  0  0.887877  0  0  0.324699  0  0.950252  0  0  0.331881  0  0.944857  0  0  0.311489  0.31961  0  0.954134  0
H  H21  1  0.70881157  0.46728618  0.36320429  1  0  0.100813  0  0.989073  0  0  0.106571  0  1.060183  0  0  0.110976  0  1.055733  0  0  0.106289  0.103358  0  1.063635  0
H  H22  1  0.29119726  0.53271564  0.63679515  1  0  0.100827  0  0.98904  0  0  0.106536  0  1.060205  0  0  0.110934  0  1.055764  0  0  0.106301  0.103324  0  1.063655  0
H  H23  1  0.85341378  0.29798417  0.66532964  1  0  0.11793  0  0.927078  0  0  0.12776  0  0.986797  0  0  0.131973  0  0.982834  0  0  0.114417  0.124585  0  0.989728  0
H  H24  1  0.14659738  0.70201664  0.33466973  1  0  0.118005  0  0.927102  0  0  0.127838  0  0.986805  0  0  0.132051  0  0.982842  0  0  0.114452  0.124656  0  0.989749  0
H  H25  1  0.80870754  0.71599719  0.67767639  1  0  0.10872  0  0.976245  0  0  0.112242  0  1.051752  0  0  0.116458  0  1.047991  0  0  0.106952  0.109185  0  1.05439  0
H  H26  1  0.19129542  0.28400167  0.32232198  1  0  0.108743  0  0.976157  0  0  0.112253  0  1.051669  0  0  0.116475  0  1.047915  0  0  0.106971  0.109198  0  1.054309  0
H  H27  1  0.54457314  0.73282012  0.18341573  1  0  0.071941  0  0.967596  0  0  0.081599  0  1.031393  0  0  0.083666  0  1.027236  0  0  0.12926  0.080007  0  1.034329  0
H  H28  1  0.45542484  0.26717973  0.81658527  1  0  0.071946  0  0.967607  0  0  0.081655  0  1.031341  0  0  0.083723  0  1.027183  0  0  0.129283  0.080063  0  1.034278  0
H  H29  1  0.94723753  0.24947476  0.92840514  1  0  0.108588  0  0.946783  0  0  0.115425  0  1.010791  0  0  0.118305  0  1.007304  0  0  0.136367  0.113113  0  1.013675  0
H  H30  1  0.05275541  0.75052517  0.07159244  1  0  0.108642  0  0.946818  0  0  0.115452  0  1.010847  0  0  0.11833  0  1.007365  0  0  0.136397  0.113138  0  1.013729  0
C  C31  1  0.75005737  0.60520017  0.51345906  1  0  -0.072511  0  3.743264  0  0  -0.045461  0  3.981966  0  0  -0.056911  0  4.005852  0  0  -0.018874  -0.038527  0  3.966861  0
C  C32  1  0.24994889  0.39480167  0.48654037  1  0  -0.072415  0  3.743079  0  0  -0.045385  0  3.981794  0  0  -0.056792  0  4.005623  0  0  -0.018843  -0.038446  0  3.966677  0
C  C33  1  0.74175460  0.48052594  0.45348970  1  0  -0.045281  0  3.685516  0  0  -0.085146  0  3.933779  0  0  -0.080575  0  3.952121  0  0  -0.070425  -0.08859  0  3.923145  0
C  C34  1  0.25825582  0.51947691  0.54650810  1  0  -0.045352  0  3.685468  0  0  -0.085162  0  3.933785  0  0  -0.080597  0  3.95211  0  0  -0.070473  -0.088607  0  3.923151  0
C  C35  1  0.77867509  0.37027900  0.50734327  1  0  -0.065388  0  3.761384  0  0  -0.039031  0  4.000015  0  0  -0.049898  0  4.023872  0  0  -0.01793  -0.032449  0  3.984782  0
C  C36  1  0.22133615  0.62972185  0.49265355  1  0  -0.065337  0  3.761456  0  0  -0.039029  0  4.000134  0  0  -0.0499  0  4.023988  0  0  -0.01787  -0.03245  0  3.984908  0
C  C37  1  0.82257816  0.38354976  0.62334318  1  0  -0.033683  0  3.677665  0  0  -0.075735  0  3.928574  0  0  -0.069875  0  3.944551  0  0  -0.067399  -0.078201  0  3.916829  0
C  C38  1  0.17743226  0.61645309  0.37665462  1  0  -0.033814  0  3.677734  0  0  -0.075852  0  3.928658  0  0  -0.06999  0  3.944637  0  0  -0.067438  -0.078315  0  3.916912  0
C  C39  1  0.83032798  0.50790297  0.68324248  1  0  -0.12818  0  3.734697  0  0  -0.095262  0  3.982857  0  0  -0.105602  0  4.005176  0  0  -0.017569  -0.088967  0  3.967532  0
C  C40  1  0.16967546  0.49209788  0.31675689  1  0  -0.128089  0  3.734572  0  0  -0.095159  0  3.982694  0  0  -0.105505  0  4.005022  0  0  -0.017576  -0.088861  0  3.967363  0
C  C41  1  0.79643329  0.61932264  0.62958578  1  0  -0.036396  0  3.672751  0  0  -0.07871  0  3.923022  0  0  -0.073044  0  3.940032  0  0  -0.071003  -0.081141  0  3.910849  0
C  C42  1  0.20357143  0.38067820  0.37041358  1  0  -0.036486  0  3.672592  0  0  -0.078774  0  3.922861  0  0  -0.073132  0  3.939871  0  0  -0.071025  -0.081208  0  3.910688  0
C  C43  1  0.71624734  0.72213473  0.45136268  1  0  0.662595  0  3.891314  0  0  0.610409  0  4.180135  0  0  0.64451  0  4.174798  0  0  0.209578  0.587089  0  4.183139  0
C  C44  1  0.28375880  0.27786705  0.54864016  1  0  0.662597  0  3.891192  0  0  0.610414  0  4.180025  0  0  0.6445  0  4.174688  0  0  0.209608  0.587095  0  4.183021  0
C  C45  1  0.77090256  0.23872540  0.44029797  1  0  0.631689  0  3.937755  0  0  0.583801  0  4.22142  0  0  0.616735  0  4.218403  0  0  0.193434  0.561439  0  4.222393  0
C  C46  1  0.22911355  0.76127440  0.55969964  1  0  0.631632  0  3.937572  0  0  0.58376  0  4.221243  0  0  0.616696  0  4.218224  0  0  0.193386  0.561392  0  4.222225  0
C  C47  1  0.59714067  0.79720893  0.11585820  1  0  0.325432  0  3.748541  0  0  0.265418  0  4.024582  0  0  0.286646  0  4.034917  0  0  0.16853  0.251453  0  4.017007  0
C  C48  1  0.40285451  0.20278994  0.88414187  1  0  0.325373  0  3.748553  0  0  0.265323  0  4.024609  0  0  0.286551  0  4.03494  0  0  0.168463  0.25136  0  4.017029  0
C  C49  1  0.61444101  0.82516970  0.91902333  1  0  0.489965  0  3.827369  0  0  0.44889  0  4.099931  0  0  0.473412  0  4.10987  0  0  0.251256  0.432234  0  4.093216  0
C  C50  1  0.38555009  0.17482821  0.08097582  1  0  0.490038  0  3.827144  0  0  0.44899  0  4.099688  0  0  0.473487  0  4.109659  0  0  0.251272  0.432339  0  4.092958  0
C  C51  1  0.71664735  0.95400525  0.94585671  1  0  -0.067518  0  3.805062  0  0  -0.061616  0  4.055472  0  0  -0.070486  0  4.078955  0  0  0.076642  -0.056145  0  4.040086  0
C  C52  1  0.28334699  0.04599561  0.05414520  1  0  -0.067572  0  3.805035  0  0  -0.061694  0  4.055457  0  0  -0.070557  0  4.078948  0  0  0.076625  -0.056219  0  4.040064  0
C  C53  1  0.87173185  0.15332237  0.95102198  1  0  0.273292  0  3.598301  0  0  0.20896  0  3.879493  0  0  0.223767  0  3.889939  0  0  0.162232  0.19914  0  3.872448  0
C  C54  1  0.12826316  0.84667554  0.04897546  1  0  0.273223  0  3.598231  0  0  0.208894  0  3.87941  0  0  0.223701  0  3.88985  0  0  0.162257  0.199083  0  3.872366  0
C  C55  1  0.74447528  0.99559078  0.06167437  1  0  0.344804  0  3.829709  0  0  0.304033  0  4.099003  0  0  0.319873  0  4.118147  0  0  0.218476  0.293706  0  4.085556  0
C  C56  1  0.25552223  0.00440707  0.93832564  1  0  0.344741  0  3.829746  0  0  0.30396  0  4.099006  0  0  0.3198  0  4.118149  0  0  0.218472  0.293628  0  4.085573  0
S  S57  1  0.88075768  0.52068762  0.83189376  1  0  1.333657  0  5.623726  0  0  1.229855  0  6.144841  0  0  1.279104  0  6.120389  0  0  0.523298  1.195642  0  6.160967  0
S  S58  1  0.11923335  0.47931531  0.16810657  1  0  1.333558  0  5.623942  0  0  1.229769  0  6.145048  0  0  1.279022  0  6.120596  0  0  0.523242  1.195552  0  6.161175  0
N  N59  1  0.68339090  0.91999606  0.14993311  1  0  -0.473707  0  3.194351  0  0  -0.399774  0  3.479589  0  0  -0.426846  0  3.49295  0  0  -0.347515  -0.38082  0  3.469329  0
N  N60  1  0.31660842  0.08000381  0.85006618  1  0  -0.473689  0  3.194479  0  0  -0.399766  0  3.479731  0  0  -0.426838  0  3.493092  0  0  -0.347509  -0.38081  0  3.469471  0
N  N61  1  0.56580454  0.74562993  0.00837562  1  0  -0.503168  0  3.115078  0  0  -0.433435  0  3.39397  0  0  -0.460541  0  3.404927  0  0  -0.341741  -0.415136  0  3.386551  0
N  N62  1  0.43418744  0.25437194  0.99162721  1  0  -0.503138  0  3.114805  0  0  -0.433414  0  3.393709  0  0  -0.460511  0  3.404673  0  0  -0.341704  -0.415112  0  3.386277  0
N  N63  1  0.79822134  0.05421813  0.87782657  1  0  -0.378863  0  3.051827  0  0  -0.328907  0  3.311028  0  0  -0.344  0  3.326166  0  0  -0.327031  -0.31856  0  3.300913  0
N  N64  1  0.20177285  0.94578178  0.12217186  1  0  -0.378807  0  3.051669  0  0  -0.328864  0  3.3109  0  0  -0.343956  0  3.326035  0  0  -0.327058  -0.318514  0  3.300779  0
N  N65  1  0.84123846  0.12280342  0.06288187  1  0  -0.360532  0  3.328052  0  0  -0.296045  0  3.569531  0  0  -0.314447  0  3.578858  0  0  -0.368119  -0.283563  0  3.562956  0
N  N66  1  0.15876005  0.87719846  0.93711840  1  0  -0.360419  0  3.328149  0  0  -0.295851  0  3.569535  0  0  -0.31425  0  3.57886  0  0  -0.368098  -0.283387  0  3.562981  0
N  N67  1  0.56168488  0.78149001  0.81350212  1  0  -0.619717  0  3.102248  0  0  -0.57846  0  3.338554  0  0  -0.601162  0  3.335824  0  0  -0.552195  -0.56292  0  3.340517  0
N  N68  1  0.43830962  0.21851181  0.18650242  1  0  -0.619775  0  3.102212  0  0  -0.578487  0  3.33851  0  0  -0.601184  0  3.335793  0  0  -0.552225  -0.562956  0  3.340495  0
O  O69  1  0.73787371  0.83896497  0.50532131  1  0  -0.68755  0  2.044324  0  0  -0.608046  0  2.275641  0  0  -0.637465  0  2.264147  0  0  -0.323673  -0.586543  0  2.284466  0
O  O70  1  0.26212989  0.16103684  0.49468068  1  0  -0.687709  0  2.044202  0  0  -0.608165  0  2.275539  0  0  -0.637589  0  2.264051  0  0  -0.323754  -0.586659  0  2.284371  0
O  O71  1  0.43792186  0.99960541  0.36126108  1  0  -0.840202  0  1.901108  0  0  -0.782173  0  2.109931  0  0  -0.804023  0  2.076481  0  0  -0.583324  -0.766957  0  2.132544  0
O  O72  1  0.56208010  0.00039954  0.63873514  1  0  -0.840192  0  1.900949  0  0  -0.782225  0  2.109977  0  0  -0.804077  0  2.076513  0  0  -0.583383  -0.76701  0  2.132548  0
O  O73  1  0.67116957  0.70639337  0.34703771  1  0  -0.645673  0  1.972967  0  0  -0.584612  0  2.201945  0  0  -0.612607  0  2.193157  0  0  -0.313942  -0.564192  0  2.206903  0
O  O74  1  0.32883271  0.29360843  0.65296513  1  0  -0.645612  0  1.973019  0  0  -0.584557  0  2.201998  0  0  -0.612548  0  2.193212  0  0  -0.313913  -0.564142  0  2.20696  0
O  O75  1  0.03371132  0.02421226  0.31452758  1  0  -0.852532  0  1.887075  0  0  -0.787163  0  2.101212  0  0  -0.80897  0  2.063912  0  0  -0.5968  -0.771716  0  2.128304  0
O  O76  1  0.96629022  0.97577137  0.68547748  1  0  -0.852312  0  1.887354  0  0  -0.78694  0  2.101555  0  0  -0.808739  0  2.064265  0  0  -0.596755  -0.771495  0  2.128636  0
O  O77  1  0.74994673  0.23044165  0.33317026  1  0  -0.624516  0  1.913776  0  0  -0.569928  0  2.142922  0  0  -0.595345  0  2.135268  0  0  -0.327256  -0.551153  0  2.146944  0
O  O78  1  0.25006734  0.76956019  0.66682663  1  0  -0.624476  0  1.913705  0  0  -0.56985  0  2.142806  0  0  -0.595265  0  2.135153  0  0  -0.32724  -0.55107  0  2.146823  0
O  O79  1  0.36334503  0.50464670  0.82307197  1  0  -0.847821  0  1.882553  0  0  -0.780502  0  2.077997  0  0  -0.803525  0  2.044263  0  0  -0.573759  -0.764018  0  2.101719  0
O  O80  1  0.63664681  0.49535422  0.17692738  1  0  -0.847874  0  1.882523  0  0  -0.780556  0  2.077955  0  0  -0.803573  0  2.044209  0  0  -0.573785  -0.764067  0  2.101674  0
O  O81  1  0.78403453  0.13646120  0.49739734  1  0  -0.678495  0  2.049107  0  0  -0.603084  0  2.280233  0  0  -0.633452  0  2.271126  0  0  -0.333607  -0.580443  0  2.286858  0
O  O82  1  0.21597850  0.86354165  0.50259962  1  0  -0.67845  0  2.048864  0  0  -0.603082  0  2.280008  0  0  -0.633451  0  2.270901  0  0  -0.333606  -0.580441  0  2.286635  0
O  O83  1  0.72148395  0.44622669  0.88638915  1  0  -0.714215  0  2.056798  0  0  -0.649437  0  2.341852  0  0  -0.675457  0  2.325476  0  0  -0.357363  -0.630802  0  2.35265  0
O  O84  1  0.27850117  0.55377238  0.11360323  1  0  -0.714114  0  2.056875  0  0  -0.649335  0  2.341934  0  0  -0.675356  0  2.325557  0  0  -0.357303  -0.630694  0  2.352724  0
O  O85  1  0.91833720  0.66324293  0.86758599  1  0  -0.65939  0  2.001379  0  0  -0.611859  0  2.256993  0  0  -0.631964  0  2.243659  0  0  -0.33101  -0.597596  0  2.265757  0
O  O86  1  0.08165020  0.33675596  0.13241578  1  0  -0.659392  0  2.001228  0  0  -0.611867  0  2.256839  0  0  -0.63197  0  2.243493  0  0  -0.331026  -0.597601  0  2.265606  0
O  O87  1  0.02630067  0.44783376  0.84441088  1  0  -0.663813  0  1.987039  0  0  -0.607891  0  2.230125  0  0  -0.629206  0  2.213502  0  0  -0.332674  -0.592815  0  2.241231  0
O  O88  1  0.97369375  0.55216802  0.15559621  1  0  -0.663811  0  1.987291  0  0  -0.607917  0  2.230399  0  0  -0.629231  0  2.213771  0  0  -0.332654  -0.592836  0  2.241505  0
