# generated using pymatgen
data_Zr6H28C50S5O47F2
_symmetry_space_group_name_H-M   'P 1'
_cell_length_a   14.78396297
_cell_length_b   14.77371633
_cell_length_c   14.81513926
_cell_angle_alpha   60.16931924
_cell_angle_beta   59.69122553
_cell_angle_gamma   60.19036659
_symmetry_Int_Tables_number   1
_chemical_formula_structural   Zr6H28C50S5O47F2
_chemical_formula_sum   'Zr6 H28 C50 S5 O47 F2'
_cell_volume   2288.85038771
_cell_formula_units_Z   1
loop_
 _symmetry_equiv_pos_site_id
 _symmetry_equiv_pos_as_xyz
  1  'x, y, z'
loop_
 _atom_site_type_symbol
 _atom_site_label
 _atom_site_symmetry_multiplicity
 _atom_site_fract_x
 _atom_site_fract_y
 _atom_site_fract_z
 _atom_site_occupancy
 _atom_site_pbe_bader_charge
 _atom_site_pbe_bader_spin_density
 _atom_site_pbe_cm5_charge
 _atom_site_pbe_ddec_charge
 _atom_site_pbe_ddec_spin_density
 _atom_site_pbe_ddec_sum_bond_order
 _atom_site_pbe_magmom
Zr  Zr0  1  0.87402025  0.87521509  0.61939583  1  2.639294  0  1.635644  2.374649  0  2.74503  0
Zr  Zr1  1  0.11051634  0.11779278  0.38218150  1  2.630751  0  1.633936  2.372803  0  2.75975  0
Zr  Zr2  1  0.11323785  0.87530186  0.61719338  1  2.634657  0  1.6321  2.376913  0  2.740193  0
Zr  Zr3  1  0.87058935  0.11843182  0.38287274  1  2.639269  0  1.638886  2.375611  0  2.744963  0
Zr  Zr4  1  0.11153951  0.88376624  0.37543798  1  2.630753  0  1.627354  2.36549  0  2.763425  0
Zr  Zr5  1  0.87283804  0.11303569  0.62339341  1  2.6304  0  1.634081  2.37818  0  2.745093  0
H  H6  1  0.08924449  0.71480566  0.58968453  1  0.597415  0  0.332875  0.426621  0  0.853762  0
H  H7  1  0.08260415  0.09960982  0.21743608  1  0.606625  0  0.33703  0.431858  0  0.844159  0
H  H8  1  0.08873071  0.08719869  0.59595504  1  0.607957  0  0.328423  0.420253  0  0.863454  0
H  H9  1  0.71054903  0.08754013  0.59708088  1  0.612036  0  0.334009  0.424208  0  0.856947  0
H  H10  1  0.82237114  0.62086831  0.59133915  1  0.094013  0  0.121871  0.128937  0  0.970852  0
H  H11  1  0.16650581  0.55732787  0.38386707  1  0.154006  0  0.119284  0.138486  0  1.007575  0
H  H12  1  0.82807043  0.44860347  0.59185648  1  0.104144  0  0.120131  0.126365  0  0.9779  0
H  H13  1  0.55621823  0.86450594  0.91282884  1  0.125044  0  0.120586  0.129114  0  0.970693  0
H  H14  1  0.58640526  0.14466048  0.90310692  1  0.142305  0  0.12154  0.145761  0  1.007089  0
H  H15  1  0.38549692  0.88047623  0.07904589  1  0.130698  0  0.117062  0.127936  0  0.994157  0
H  H16  1  0.09293462  0.82489487  0.11962310  1  0.146857  0  0.122173  0.130514  0  0.9652  0
H  H17  1  0.87004579  0.15983151  0.06920899  1  0.139924  0  0.11991  0.133707  0  1.013135  0
H  H18  1  0.08911242  0.82827206  0.95165646  1  0.154685  0  0.115127  0.122284  0  0.999804  0
H  H19  1  0.56002977  0.41559627  0.65641652  1  0.10688  0  0.123068  0.133531  0  0.965307  0
H  H20  1  0.61617184  0.42250915  0.33855211  1  0.183714  0  0.121652  0.137077  0  1.004197  0
H  H21  1  0.39583169  0.58678600  0.63871296  1  0.135581  0  0.120892  0.14005  0  0.982738  0
H  H22  1  0.75208917  0.60014323  0.93495778  1  0.084375  0  0.106138  0.122095  0  0.967111  0
H  H23  1  0.86749219  0.51412949  0.85645028  1  0.06968  0  0.100216  0.114064  0  0.977372  0
H  H24  1  0.86206717  0.35021818  0.02852472  1  0.077335  0  0.09798  0.119594  0  1.002613  0
H  H25  1  0.74698357  0.43600549  0.10746797  1  0.113762  0  0.104062  0.131077  0  0.98627  0
H  H26  1  0.61162544  0.09591819  0.32882663  1  0.107308  0  0.123711  0.131844  0  0.963505  0
H  H27  1  0.57004461  0.86392252  0.66016219  1  0.136888  0  0.118571  0.136026  0  1.007877  0
H  H28  1  0.44399288  0.08800851  0.33649030  1  0.191573  0  0.115032  0.139017  0  1.043036  0
H  H29  1  0.25958958  0.18313332  0.42831427  1  0.657502  0  0.310489  0.370174  0  0.976103  0
H  H30  1  0.26112106  0.30456246  0.15374303  1  0.659934  0  0.329157  0.40809  0  0.892015  0
H  H31  1  0.91576024  0.25747341  0.69846396  1  0.657346  0  0.307445  0.364857  0  0.98615  0
H  H32  1  0.30147049  0.67408396  0.32953873  1  0.636966  0  0.310291  0.357923  0  0.991434  0
H  H33  1  0.20271297  0.89639731  0.76457696  1  0.664064  0  0.310923  0.373012  0  0.964625  0
C  C34  1  0.99371105  0.69945903  0.48902913  1  1.568867  0  0.241114  0.641261  0  4.099712  0
C  C35  1  0.29477788  0.00886886  0.19430131  1  1.564529  0  0.243963  0.651353  0  4.069305  0
C  C36  1  0.99619514  0.30238882  0.49909431  1  1.555498  0  0.245352  0.642578  0  4.076727  0
C  C37  1  0.68975726  0.99255610  0.80484275  1  1.552061  0  0.24127  0.64095  0  4.090596  0
C  C38  1  0.98533578  0.70251852  0.80956198  1  1.564768  0  0.242981  0.674039  0  4.080166  0
C  C39  1  0.69700151  0.98755391  0.49594768  1  1.561371  0  0.24239  0.643962  0  4.094205  0
C  C40  1  0.97808759  0.31313841  0.21186110  1  1.564226  0  0.24027  0.66743  0  4.081722  0
C  C41  1  0.30355311  0.98634968  0.50286788  1  1.53496  0  0.247155  0.646128  0  4.054991  0
C  C42  1  0.30778671  0.69929122  0.48331580  1  1.560309  0  0.248916  0.646885  0  4.052607  0
C  C43  1  0.99086157  0.99333696  0.80912114  1  1.535749  0  0.244257  0.642878  0  4.071861  0
C  C44  1  0.69352094  0.30265689  0.50500664  1  1.553712  0  0.242653  0.643707  0  4.090487  0
C  C45  1  0.98518555  0.99590460  0.20145510  1  1.553819  0  0.241792  0.641798  0  4.098815  0
C  C46  1  0.00015221  0.40509858  0.49080371  1  -0.006656  0  -0.001868  -0.035096  0  3.912281  0
C  C47  1  0.99379057  0.59966865  0.48664780  1  0.02807  0  -0.004353  -0.02184  0  3.951634  0
C  C48  1  0.09663927  0.43651668  0.43059017  1  -0.181462  0  0.000204  -0.083481  0  3.856738  0
C  C49  1  0.89813133  0.56947959  0.54584107  1  -0.056531  0  -0.062472  -0.065915  0  3.928134  0
C  C50  1  0.09197993  0.53402463  0.42849327  1  0.029473  0  -0.066362  -0.095073  0  3.921287  0
C  C51  1  0.90183287  0.47333577  0.54659357  1  0.047105  0  -0.068026  -0.075135  0  3.94022  0
C  C52  1  0.39053364  0.01811440  0.08762018  1  -0.039392  0  0.001366  -0.036412  0  3.879322  0
C  C53  1  0.58342559  0.00202407  0.89995927  1  -0.016944  0  -0.006782  -0.026522  0  3.964296  0
C  C54  1  0.44604125  0.09649571  0.03488319  1  -0.180229  0  -0.001623  -0.082538  0  3.850779  0
C  C55  1  0.52551247  0.92908823  0.94683964  1  -0.04391  0  -0.061833  -0.065523  0  3.917476  0
C  C56  1  0.54181432  0.08672634  0.94221914  1  0.068315  0  -0.069794  -0.104983  0  3.929211  0
C  C57  1  0.42990074  0.93852338  0.03911834  1  0.047286  0  -0.064699  -0.053325  0  3.914256  0
C  C58  1  0.98221146  0.99706338  0.91222005  1  -0.008142  0  -0.001499  -0.037046  0  3.901302  0
C  C59  1  0.98120250  0.99244300  0.10451459  1  -0.019266  0  -0.003875  -0.020049  0  3.950727  0
C  C60  1  0.91834301  0.09152938  0.94678296  1  -0.141814  0  -0.001384  -0.081573  0  3.858825  0
C  C61  1  0.04325559  0.89853153  0.07190107  1  -0.000111  0  -0.061583  -0.062685  0  3.912634  0
C  C62  1  0.91774149  0.08723948  0.04310504  1  0.020454  0  -0.06887  -0.101753  0  3.943205  0
C  C63  1  0.04199481  0.90123053  0.97734466  1  -0.045443  0  -0.06756  -0.071005  0  3.928666  0
C  C64  1  0.41278727  0.60169001  0.47958251  1  -0.057706  0  -0.00184  -0.045212  0  3.895276  0
C  C65  1  0.59696263  0.40710306  0.49918488  1  -0.020398  0  -0.004965  -0.020839  0  3.950998  0
C  C66  1  0.47862539  0.55555655  0.39269591  1  -0.169632  0  -0.004914  -0.095086  0  3.909168  0
C  C67  1  0.53649705  0.45425787  0.58325875  1  0.010134  0  -0.062984  -0.072436  0  3.918455  0
C  C68  1  0.56766299  0.45844236  0.40457348  1  -0.032529  0  -0.069285  -0.097821  0  3.940541  0
C  C69  1  0.44480605  0.54979610  0.57327627  1  0.038709  0  -0.063898  -0.070263  0  3.902573  0
C  C70  1  0.97466221  0.61286956  0.91835789  1  -0.003859  0  -0.017622  -0.174886  0  3.977686  0
C  C71  1  0.96991984  0.42008865  0.11909925  1  0.003769  0  -0.016474  -0.171341  0  3.969969  0
C  C72  1  0.90951319  0.54851304  0.95836967  1  0.032815  0  -0.002404  0.069162  0  3.893558  0
C  C73  1  0.02960432  0.48930380  0.08377336  1  0.548237  0  0.099976  0.15878  0  4.042452  0
C  C74  1  0.90709609  0.45633054  0.05451403  1  0.020542  0  -0.002598  0.069413  0  3.896965  0
C  C75  1  0.03225396  0.58163121  0.98724743  1  0.518407  0  0.099161  0.156088  0  4.04171  0
C  C76  1  0.83177261  0.53293252  0.93304095  1  -0.024673  0  -0.144469  -0.18775  0  3.848524  0
C  C77  1  0.82873325  0.42909658  0.04196439  1  -0.034236  0  -0.148846  -0.196212  0  3.834493  0
C  C78  1  0.40848944  0.97623215  0.50399868  1  0.006418  0  -0.004076  -0.042428  0  3.909914  0
C  C79  1  0.60046372  0.98072470  0.49462611  1  -0.009974  0  -0.004861  -0.023693  0  3.960688  0
C  C80  1  0.44627183  0.90975570  0.59567234  1  -0.190488  0  -0.00389  -0.08745  0  3.872746  0
C  C81  1  0.56581391  0.04355670  0.40282851  1  0.002265  0  -0.060033  -0.056711  0  3.905927  0
C  C82  1  0.54201867  0.91272767  0.58930911  1  0.048486  0  -0.071985  -0.105193  0  3.946972  0
C  C83  1  0.47107929  0.03999589  0.40799545  1  -0.037489  0  -0.068709  -0.074404  0  3.904689  0
S  S84  1  0.23427286  0.35970982  0.35777417  1  3.124665  0  0.551485  1.182681  0  5.970513  0
S  S85  1  0.42075410  0.20576414  0.07682550  1  3.103186  0  0.545194  1.170571  0  5.972151  0
S  S86  1  0.83901631  0.22678337  0.87539705  1  3.104082  0  0.540617  1.159234  0  5.995342  0
S  S87  1  0.47119830  0.61744606  0.25570108  1  3.125421  0  0.536843  1.147766  0  6.04734  0
S  S88  1  0.38254553  0.81947374  0.72813481  1  3.099782  0  0.539035  1.167527  0  5.996556  0
O  O89  1  0.91653572  0.73664700  0.56744255  1  -1.173521  0  -0.348709  -0.611999  0  2.282554  0
O  O90  1  0.25752497  0.07737975  0.24342731  1  -1.171309  0  -0.360711  -0.617731  0  2.35909  0
O  O91  1  0.06850881  0.26019554  0.42395663  1  -1.183676  0  -0.347954  -0.60246  0  2.424724  0
O  O92  1  0.72879104  0.91451425  0.76701548  1  -1.171461  0  -0.348418  -0.612297  0  2.261833  0
O  O93  1  0.06631089  0.73876063  0.76479669  1  -1.169101  0  -0.364466  -0.626988  0  2.277804  0
O  O94  1  0.73251385  0.06774788  0.42163506  1  -1.175564  0  -0.349459  -0.611563  0  2.268823  0
O  O95  1  0.90530874  0.26942783  0.24641143  1  -1.172383  0  -0.352073  -0.610238  0  2.252589  0
O  O96  1  0.25961080  0.91207876  0.57448991  1  -1.184626  0  -0.349711  -0.607486  0  2.402855  0
O  O97  1  0.26327139  0.73839443  0.40979892  1  -1.192308  0  -0.34405  -0.628372  0  2.374726  0
O  O98  1  0.91528566  0.06437434  0.76811719  1  -1.181236  0  -0.346237  -0.60433  0  2.399659  0
O  O99  1  0.73285081  0.26337293  0.58147429  1  -1.174538  0  -0.353117  -0.616853  0  2.253244  0
O  O100  1  0.06393368  0.92077022  0.23790807  1  -1.179473  0  -0.355147  -0.616361  0  2.283131  0
O  O101  1  0.07425387  0.91900412  0.76750184  1  -1.183429  0  -0.33179  -0.614842  0  2.293499  0
O  O102  1  0.72941320  0.25960717  0.43180356  1  -1.172325  0  -0.352938  -0.610389  0  2.302392  0
O  O103  1  0.91154061  0.07491883  0.23905992  1  -1.182183  0  -0.349184  -0.610126  0  2.278304  0
O  O104  1  0.26500386  0.73628168  0.56199382  1  -1.166631  0  -0.328877  -0.57745  0  2.284905  0
O  O105  1  0.91388933  0.73508315  0.76610267  1  -1.170123  0  -0.347477  -0.607631  0  2.255424  0
O  O106  1  0.26187138  0.07134573  0.43027382  1  -1.182685  0  -0.325976  -0.603209  0  2.31222  0
O  O107  1  0.05806850  0.26987956  0.24749564  1  -1.165958  0  -0.350965  -0.606784  0  2.302243  0
O  O108  1  0.73538247  0.91341268  0.57365341  1  -1.173773  0  -0.357421  -0.614841  0  2.298201  0
O  O109  1  0.73430908  0.06545275  0.76677209  1  -1.175241  0  -0.358022  -0.605516  0  2.308321  0
O  O110  1  0.07210470  0.73830268  0.41401079  1  -1.179681  0  -0.354298  -0.611425  0  2.28306  0
O  O111  1  0.25562032  0.93225127  0.23062655  1  -1.173353  0  -0.348211  -0.612219  0  2.285162  0
O  O112  1  0.92000708  0.26245351  0.58194323  1  -1.188948  0  -0.33128  -0.615816  0  2.307379  0
O  O113  1  0.79100999  0.06173446  0.56978532  1  -1.234365  0  -0.693276  -1.06777  0  2.370182  0
O  O114  1  0.06076069  0.06189259  0.56894007  1  -1.234907  0  -0.697164  -1.07639  0  2.378557  0
O  O115  1  0.05726061  0.07012345  0.29769381  1  -1.230626  0  -0.696372  -1.076049  0  2.365234  0
O  O116  1  0.06251425  0.79493086  0.56345302  1  -1.226292  0  -0.69335  -1.074085  0  2.356928  0
O  O117  1  0.14281972  0.94868629  0.44818681  1  -1.20031  0  -0.793035  -1.147264  0  2.129721  0
O  O118  1  0.94392493  0.94894708  0.44974703  1  -1.199481  0  -0.789779  -1.149669  0  2.131025  0
O  O119  1  0.94164916  0.14578333  0.45441536  1  -1.196862  0  -0.791816  -1.150322  0  2.132683  0
O  O120  1  0.94438936  0.94484814  0.64925604  1  -1.195413  0  -0.791853  -1.149503  0  2.134409  0
O  O121  1  0.25472783  0.24192529  0.44889643  1  -1.259708  0  -0.368194  -0.549158  0  2.253217  0
O  O122  1  0.30842073  0.40670341  0.34094291  1  -1.274752  0  -0.300963  -0.503775  0  2.13648  0
O  O123  1  0.23460164  0.35279390  0.26376448  1  -1.298971  0  -0.305475  -0.556771  0  2.265571  0
O  O124  1  0.29330827  0.27550042  0.09220128  1  -1.220516  0  -0.365497  -0.552407  0  2.230618  0
O  O125  1  0.48555221  0.27328324  0.98368991  1  -1.279344  0  -0.305655  -0.51064  0  2.136338  0
O  O126  1  0.43731237  0.15654797  0.18160686  1  -1.299941  0  -0.315129  -0.546208  0  2.21449  0
O  O127  1  0.93132550  0.25689468  0.75764350  1  -1.25806  0  -0.376833  -0.557869  0  2.241444  0
O  O128  1  0.81488507  0.29970019  0.92797077  1  -1.288501  0  -0.3018  -0.518838  0  2.169692  0
O  O129  1  0.75055418  0.22260282  0.86367130  1  -1.273145  0  -0.300557  -0.516436  0  2.170654  0
O  O130  1  0.35010606  0.62995584  0.27680099  1  -1.217445  0  -0.356276  -0.511136  0  2.207712  0
O  O131  1  0.54623032  0.53984758  0.19681798  1  -1.295289  0  -0.29902  -0.507338  0  2.14233  0
O  O132  1  0.48306767  0.72421877  0.21155123  1  -1.293413  0  -0.315387  -0.542106  0  2.176111  0
O  O133  1  0.26283187  0.90217046  0.77267823  1  -1.257217  0  -0.370745  -0.551326  0  2.241362  0
O  O134  1  0.43951690  0.78940009  0.79895393  1  -1.285131  0  -0.315058  -0.521755  0  2.112867  0
O  O135  1  0.37416041  0.73470966  0.71392586  1  -1.284791  0  -0.312429  -0.536355  0  2.149269  0
F  F136  1  0.08626455  0.47029362  0.14329199  1  -0.615154  0  -0.08283  -0.095381  0  1.432446  0
F  F137  1  0.09205581  0.64105213  0.96373016  1  -0.617187  0  -0.086222  -0.105157  0  1.39707  0
