# generated using pymatgen
data_CoH8C11N2O5
_symmetry_space_group_name_H-M   'P 1'
_cell_length_a   6.18248446
_cell_length_b   8.47794263
_cell_length_c   11.05878034
_cell_angle_alpha   85.28577494
_cell_angle_beta   87.24816955
_cell_angle_gamma   85.55737106
_symmetry_Int_Tables_number   1
_chemical_formula_structural   CoH8C11N2O5
_chemical_formula_sum   'Co2 H16 C22 N4 O10'
_cell_volume   575.44049937
_cell_formula_units_Z   2
loop_
 _symmetry_equiv_pos_site_id
 _symmetry_equiv_pos_as_xyz
  1  'x, y, z'
loop_
 _atom_site_type_symbol
 _atom_site_label
 _atom_site_symmetry_multiplicity
 _atom_site_fract_x
 _atom_site_fract_y
 _atom_site_fract_z
 _atom_site_occupancy
 _atom_site_hle17_ddec_charge
 _atom_site_hle17_ddec_spin_density
 _atom_site_hle17_ddec_sum_bond_order
 _atom_site_hle17_magmom
 _atom_site_hse06_10hf_ddec_charge
 _atom_site_hse06_10hf_ddec_spin_density
 _atom_site_hse06_10hf_ddec_sum_bond_order
 _atom_site_hse06_10hf_magmom
 _atom_site_hse06_ddec_charge
 _atom_site_hse06_ddec_spin_density
 _atom_site_hse06_ddec_sum_bond_order
 _atom_site_hse06_magmom
 _atom_site_pbe_cm5_charge
 _atom_site_pbe_ddec_charge
 _atom_site_pbe_ddec_spin_density
 _atom_site_pbe_ddec_sum_bond_order
 _atom_site_pbe_magmom
Co  Co0  1  0.89928841  0.04342800  0.12705163  1  1.064316  -2.871859  1.91113  -2.599  1.03376  -2.860352  2.312211  -2.661  1.107204  -2.892395  2.241871  -2.73  0.670008  0.978543  -2.839038  2.364524  -2.602
Co  Co1  1  0.10072817  0.95657168  0.87294977  1  1.064056  -2.871747  1.911329  -2.599  1.033621  -2.860336  2.312377  -2.661  1.107062  -2.892381  2.242051  -2.73  0.669985  0.978404  -2.839092  2.364726  -2.602
H  H2  1  0.88221728  0.13353262  0.71529181  1  0.418659  0.000683  0.898105  0.001  0.385397  0.00012  0.965501  0.0  0.39851  0.000266  0.946936  0.0  0.284907  0.376138  -5.3e-05  0.978401  0.0
H  H3  1  0.11778881  0.86645758  0.28470787  1  0.418633  0.000683  0.898141  0.001  0.385369  0.00012  0.965536  0.0  0.398481  0.000266  0.946973  0.0  0.28491  0.376109  -5.4e-05  0.978436  0.0
H  H4  1  0.11610734  0.09088702  0.64667823  1  0.420364  -0.000138  0.820853  -0.001  0.407104  -0.000775  0.873014  -0.001  0.415399  -0.00051  0.864202  -0.001  0.322516  0.402056  -0.001052  0.877773  -0.002
H  H5  1  0.88391357  0.90910315  0.35332533  1  0.420223  -0.000139  0.821127  -0.001  0.40704  -0.000776  0.873164  -0.001  0.415336  -0.00051  0.864349  -0.001  0.322499  0.401984  -0.001053  0.877933  -0.002
H  H6  1  0.13135468  0.49578047  0.09527320  1  0.103006  -0.0001  0.948265  0.0  0.113927  -6.3e-05  1.009906  0.0  0.117147  -2.1e-05  1.008073  0.0  0.106755  0.11171  -0.00011  1.011193  0.0
H  H7  1  0.86863514  0.50422746  0.90472889  1  0.102968  -0.000101  0.948298  0.0  0.113917  -6.3e-05  1.009927  0.0  0.117167  -2.1e-05  1.008056  0.0  0.106779  0.111685  -0.00011  1.011235  0.0
H  H8  1  0.12324755  0.63184564  0.80066652  1  0.085358  -0.000577  0.95773  -0.002  0.0925  -0.000429  1.02349  -0.001  0.09524  -0.000273  1.020945  -0.001  0.116622  0.089907  -0.000606  1.026156  -0.001
H  H9  1  0.87675542  0.36815764  0.19932983  1  0.085324  -0.000576  0.957724  -0.002  0.092472  -0.000429  1.023476  -0.001  0.095205  -0.000273  1.020949  -0.001  0.116607  0.089872  -0.000606  1.026149  -0.001
H  H10  1  0.55196833  0.98622806  0.75917548  1  0.095225  -0.000466  0.947664  -0.002  0.101103  -0.000328  1.012907  -0.001  0.104315  -0.000196  1.009846  -0.001  0.119441  0.097824  -0.000466  1.016539  -0.001
H  H11  1  0.44806506  0.01377034  0.24083430  1  0.095398  -0.000465  0.947532  -0.002  0.101176  -0.000327  1.012888  -0.001  0.104388  -0.000195  1.009828  -0.001  0.119476  0.097895  -0.000466  1.01652  -0.001
H  H12  1  0.37132157  0.45093366  0.68032114  1  0.116308  -0.00019  0.93171  0.0  0.126286  -0.000308  0.988737  0.0  0.129829  -0.000204  0.9876  0.0  0.11141  0.123622  -0.000417  0.98973  0.0
H  H13  1  0.62867318  0.54906848  0.31967112  1  0.116284  -0.000193  0.931717  0.0  0.126303  -0.000308  0.988701  0.0  0.12985  -0.000204  0.987563  0.0  0.111396  0.123636  -0.000417  0.989695  0.0
H  H14  1  0.81299133  0.82513720  0.63278517  1  0.119139  -0.000133  0.957991  0.0  0.12269  -0.000307  1.027269  0.0  0.127536  -0.000171  1.023231  0.0  0.106986  0.118806  -0.000453  1.030964  0.0
H  H15  1  0.18702544  0.17485164  0.36722950  1  0.119077  -0.000135  0.958037  0.0  0.122635  -0.000307  1.027325  0.0  0.12748  -0.000172  1.02329  0.0  0.106935  0.118752  -0.000453  1.031018  0.0
H  H16  1  0.70739497  0.39875879  0.56562123  1  0.085154  -0.00021  0.930862  0.0  0.092356  -0.000118  0.997981  0.0  0.096948  -8.1e-05  0.99236  0.0  0.116269  0.088586  -0.000116  1.002916  0.0
H  H17  1  0.29259074  0.60124201  0.43438145  1  0.085135  -0.000211  0.930844  0.0  0.09234  -0.000118  0.997952  0.0  0.096933  -8.2e-05  0.992329  0.0  0.116261  0.088571  -0.000116  1.002883  0.0
C  C18  1  0.29454943  0.76793426  0.12264569  1  0.689857  0.003285  3.83743  0.002  0.643684  -0.000508  4.136169  -0.002  0.680986  -0.000226  4.125034  -0.001  0.226617  0.617452  -0.000868  4.142543  -0.002
C  C19  1  0.70543886  0.23206285  0.87736794  1  0.689864  0.003288  3.837205  0.002  0.643694  -0.000507  4.135937  -0.002  0.680973  -0.000227  4.124839  -0.001  0.226603  0.617459  -0.000867  4.142316  -0.002
C  C20  1  0.40825940  0.63353494  0.05777816  1  -0.043927  -0.000412  3.703243  -0.002  -0.035872  -0.00093  3.945226  -0.002  -0.038835  -0.000502  3.963123  -0.002  -0.002612  -0.033959  -0.001287  3.933043  -0.003
C  C21  1  0.59173440  0.36646357  0.94221977  1  -0.043899  -0.000439  3.703242  -0.002  -0.035828  -0.000931  3.945224  -0.002  -0.038787  -0.000502  3.963134  -0.002  -0.002572  -0.033905  -0.001289  3.933031  -0.003
C  C22  1  0.29420430  0.49848467  0.05345436  1  -0.084305  0.001049  3.703215  0.0  -0.120711  -6.7e-05  3.963231  -0.001  -0.121137  2.8e-05  3.982497  0.0  -0.079115  -0.119739  -6.1e-05  3.949533  -0.001
C  C23  1  0.70577310  0.50152350  0.94652835  1  -0.084319  0.00108  3.70323  0.0  -0.120789  -6.6e-05  3.963302  -0.001  -0.121238  3e-05  3.982561  0.0  -0.079246  -0.119816  -6.1e-05  3.949611  -0.001
C  C24  1  0.61849174  0.63500580  0.00367005  1  -0.063745  -0.006133  3.716998  -0.01  -0.052361  -0.003818  3.953867  -0.006  -0.057595  -0.002545  3.972588  -0.004  -0.008806  -0.048699  -0.004986  3.941174  -0.008
C  C25  1  0.38150085  0.36500109  0.99632112  1  -0.063933  -0.006115  3.717205  -0.01  -0.052572  -0.003818  3.95407  -0.006  -0.057802  -0.002543  3.972775  -0.004  -0.008866  -0.048918  -0.004985  3.941385  -0.008
C  C26  1  0.27788835  0.66855877  0.76160504  1  0.127239  0.024468  3.699855  0.016  0.097494  0.007998  3.962247  0.005  0.105965  0.006905  3.978662  0.004  0.043202  0.090399  0.010315  3.95458  0.006
C  C27  1  0.72210533  0.33144092  0.23839283  1  0.127355  0.024426  3.699711  0.016  0.097631  0.007998  3.962114  0.005  0.106102  0.006904  3.978526  0.004  0.043263  0.090559  0.010314  3.954399  0.006
C  C28  1  0.51663948  0.86798647  0.73752968  1  0.127209  0.02339  3.675462  0.015  0.100807  0.007579  3.931675  0.004  0.109866  0.006914  3.945906  0.004  0.042667  0.092875  0.009037  3.926597  0.005
C  C29  1  0.48336535  0.13200828  0.26248517  1  0.127113  0.023346  3.675329  0.015  0.100801  0.007578  3.931557  0.004  0.109861  0.006912  3.945785  0.004  0.042704  0.092868  0.009034  3.926479  0.005
C  C30  1  0.75521862  0.77300431  0.00547036  1  0.672598  0.020554  3.82623  0.015  0.631631  0.005227  4.121058  0.002  0.672038  0.002943  4.111773  0.0  0.223734  0.601639  0.008551  4.125649  0.005
C  C31  1  0.24478795  0.22699542  0.99452604  1  0.672639  0.020554  3.826659  0.015  0.631712  0.005228  4.121434  0.002  0.672121  0.002942  4.112145  0.0  0.223777  0.60172  0.008552  4.126028  0.005
C  C32  1  0.41474625  0.57025053  0.69323685  1  -0.134609  -0.00891  3.70124  -0.013  -0.15609  -0.002681  3.953249  -0.005  -0.163434  -0.002812  3.973627  -0.004  -0.073833  -0.152137  -0.001667  3.941647  -0.004
C  C33  1  0.58524919  0.42975144  0.30676805  1  -0.134559  -0.008883  3.701107  -0.013  -0.156087  -0.002679  3.953113  -0.005  -0.163435  -0.002812  3.973501  -0.004  -0.073814  -0.152143  -0.001666  3.941528  -0.004
C  C34  1  0.66091970  0.77773159  0.66659689  1  -0.127807  -0.00966  3.669144  -0.014  -0.14681  -0.003011  3.912491  -0.005  -0.152569  -0.003049  3.929759  -0.005  -0.076322  -0.144645  -0.002145  3.904347  -0.004
C  C35  1  0.33908409  0.22227035  0.33341217  1  -0.127709  -0.00963  3.669375  -0.014  -0.146776  -0.00301  3.912778  -0.005  -0.15253  -0.003047  3.93004  -0.005  -0.076312  -0.144616  -0.002144  3.90463  -0.004
C  C36  1  0.61214536  0.62394402  0.64400290  1  0.0805  0.023804  3.791435  0.015  0.096996  0.009873  4.022245  0.006  0.100418  0.007355  4.042923  0.004  0.004052  0.094185  0.014817  4.010629  0.008
C  C37  1  0.38785153  0.37605684  0.35599657  1  0.080413  0.023754  3.791588  0.015  0.096948  0.00987  4.022408  0.006  0.100363  0.007354  4.043099  0.004  0.004057  0.094131  0.014811  4.010794  0.008
C  C38  1  0.75757477  0.51794874  0.57551549  1  0.098931  0.003516  3.664349  0.001  0.063389  0.002586  3.932025  0.001  0.071984  0.000291  3.93982  0.0  0.07269  0.054278  0.010231  3.93106  0.005
C  C39  1  0.24240190  0.48205459  0.42447477  1  0.098986  0.003591  3.664673  0.001  0.06346  0.002589  3.932327  0.001  0.072056  0.000292  3.940126  0.0  0.072723  0.054352  0.010233  3.931358  0.005
N  N40  1  0.32807016  0.81464813  0.78569578  1  -0.329032  -0.045921  3.326257  -0.082  -0.283042  -0.030994  3.616312  -0.049  -0.306057  -0.02566  3.62907  -0.04  -0.336429  -0.269145  -0.034873  3.612258  -0.055
N  N41  1  0.67193576  0.18534558  0.21430732  1  -0.329209  -0.045894  3.326188  -0.082  -0.28322  -0.03099  3.616247  -0.049  -0.306232  -0.025658  3.628997  -0.04  -0.336492  -0.269329  -0.034874  3.612197  -0.055
N  N42  1  0.94293340  0.56059528  0.52928453  1  -0.218239  0.009217  3.033701  0.007  -0.189318  0.003945  3.324827  0.003  -0.197023  0.002959  3.338182  0.002  -0.220167  -0.185616  0.007013  3.319676  0.005
N  N43  1  0.05706152  0.43940566  0.47070869  1  -0.218325  0.009145  3.03405  0.007  -0.18941  0.003941  3.325169  0.003  -0.197116  0.002952  3.338523  0.002  -0.2202  -0.18571  0.007005  3.320018  0.005
O  O44  1  0.19575001  0.88332812  0.06129403  1  -0.664576  -0.038622  2.180759  -0.075  -0.630584  -0.034797  2.461267  -0.061  -0.66837  -0.026887  2.449889  -0.049  -0.298514  -0.601774  -0.043416  2.467392  -0.074
O  O45  1  0.80423854  0.11667974  0.93871445  1  -0.664455  -0.038607  2.180909  -0.075  -0.630433  -0.034788  2.461389  -0.061  -0.668209  -0.026881  2.450033  -0.049  -0.298456  -0.601629  -0.043406  2.467518  -0.074
O  O46  1  0.29059887  0.75208944  0.23773960  1  -0.603637  -0.002938  1.971339  -0.006  -0.553982  -0.002377  2.188389  -0.004  -0.58173  -0.001211  2.177839  -0.003  -0.305052  -0.531748  -0.003964  2.193961  -0.007
O  O47  1  0.70938517  0.24791138  0.76226224  1  -0.603822  -0.002942  1.970736  -0.006  -0.554186  -0.002378  2.1878  -0.004  -0.581933  -0.001212  2.177269  -0.003  -0.305169  -0.531944  -0.003965  2.193369  -0.007
O  O48  1  0.89323901  0.79065154  0.91682815  1  -0.614545  -0.047409  2.151658  -0.083  -0.584715  -0.034427  2.434604  -0.055  -0.625472  -0.024926  2.42668  -0.039  -0.301592  -0.54966  -0.046083  2.436428  -0.075
O  O49  1  0.10676365  0.20935181  0.08316279  1  -0.614545  -0.047407  2.151918  -0.083  -0.58474  -0.034427  2.434863  -0.055  -0.625496  -0.024926  2.426931  -0.039  -0.30162  -0.549681  -0.046089  2.436669  -0.075
O  O50  1  0.27245341  0.14088759  0.90503713  1  -0.600822  -0.043803  2.073485  -0.076  -0.57221  -0.032268  2.34243  -0.051  -0.609628  -0.023389  2.330187  -0.036  -0.303036  -0.540709  -0.042908  2.348233  -0.069
O  O51  1  0.72755276  0.85911454  0.09495643  1  -0.600861  -0.043799  2.073383  -0.076  -0.572212  -0.032265  2.342321  -0.051  -0.609631  -0.023387  2.330081  -0.036  -0.302989  -0.540717  -0.042909  2.348128  -0.069
O  O52  1  0.00298106  0.04460865  0.69925132  1  -0.818278  -0.032535  1.91938  -0.053  -0.783169  -0.028788  2.121431  -0.043  -0.811273  -0.022613  2.090055  -0.034  -0.562312  -0.759908  -0.035357  2.140861  -0.052
O  O53  1  0.99702591  0.95538867  0.30074791  1  -0.818173  -0.032535  1.919606  -0.053  -0.783128  -0.028788  2.121579  -0.043  -0.811234  -0.022612  2.0902  -0.034  -0.562323  -0.759869  -0.035364  2.141009  -0.052
