# generated using pymatgen
data_FeH22Au2(C6N)6
_symmetry_space_group_name_H-M   'P 1'
_cell_length_a   12.86378662
_cell_length_b   16.14546044
_cell_length_c   17.83851124
_cell_angle_alpha   110.17274154
_cell_angle_beta   111.11744206
_cell_angle_gamma   90.01878301
_symmetry_Int_Tables_number   1
_chemical_formula_structural   FeH22Au2(C6N)6
_chemical_formula_sum   'Fe4 H88 Au8 C144 N24'
_cell_volume   3211.09962311
_cell_formula_units_Z   4
loop_
 _symmetry_equiv_pos_site_id
 _symmetry_equiv_pos_as_xyz
  1  'x, y, z'
loop_
 _atom_site_type_symbol
 _atom_site_label
 _atom_site_symmetry_multiplicity
 _atom_site_fract_x
 _atom_site_fract_y
 _atom_site_fract_z
 _atom_site_occupancy
 _atom_site_pbe_bader_charge
 _atom_site_pbe_bader_spin_density
 _atom_site_pbe_cm5_charge
 _atom_site_pbe_ddec_charge
 _atom_site_pbe_ddec_spin_density
 _atom_site_pbe_ddec_sum_bond_order
 _atom_site_pbe_magmom
Fe  Fe0  1  0.96242718  0.24043526  0.42858931  1  1.44275  3.642859  0.781274  0.815306  3.863816  2.905578  3.613
Fe  Fe1  1  0.46600626  0.74045616  0.42859082  1  1.44505  3.644461  0.781797  0.815971  3.866059  2.903664  3.614
Fe  Fe2  1  0.35684658  0.17517715  0.21806733  1  1.464638  3.645828  0.805502  0.828043  3.875517  2.980103  3.619
Fe  Fe3  1  0.86129086  0.67487227  0.21778648  1  1.453512  3.642014  0.805285  0.821601  3.871501  2.980633  3.617
H  H4  1  0.90270370  0.04619241  0.29353581  1  0.112456  0.001669  0.115726  0.088773  0.000454  1.003016  0.001
H  H5  1  0.39057425  0.54634331  0.29365794  1  0.122501  0.001567  0.116003  0.089075  0.000321  1.002289  0.001
H  H6  1  0.97658056  0.28855203  0.27884991  1  0.087738  0.00144  0.113347  0.081314  0.000198  1.018359  0.001
H  H7  1  0.30230011  0.78866288  0.27876831  1  0.112936  0.001494  0.113169  0.081187  0.000272  1.016853  0.001
H  H8  1  0.85345463  0.96588174  0.13691652  1  0.100364  0.000832  0.105445  0.113141  0.000281  1.014344  0.0
H  H9  1  0.28361302  0.46597997  0.13700784  1  0.09429  0.000661  0.105403  0.11374  7.5e-05  1.0125  0.0
H  H10  1  0.93303812  0.21883380  0.12170089  1  0.079652  0.000736  0.103591  0.108688  0.000208  1.035903  0.0
H  H11  1  0.18866398  0.71879592  0.12162348  1  0.088107  0.000727  0.103395  0.108874  0.000208  1.036341  0.0
H  H12  1  0.89534049  0.91156382  0.02194190  1  0.084797  9e-06  0.09993  0.098167  5e-06  1.025547  0.0
H  H13  1  0.12655700  0.41162840  0.02193233  1  0.083032  2e-06  0.100024  0.098238  -8e-06  1.025219  0.0
H  H14  1  0.80282078  0.15815504  0.99120115  1  0.094644  3.8e-05  0.099982  0.099897  3.7e-05  1.039056  0.0
H  H15  1  0.18872860  0.65823375  0.99127416  1  0.105721  3.9e-05  0.100012  0.099569  3.5e-05  1.039373  0.0
H  H16  1  0.81839360  0.83509299  0.86557452  1  0.069828  2.7e-05  0.095859  0.093274  6e-06  1.061636  0.0
H  H17  1  0.04717688  0.33519887  0.86554004  1  0.070275  2.9e-05  0.095616  0.092837  7e-06  1.062017  0.0
H  H18  1  0.72778902  0.08280551  0.83544289  1  0.069703  5.1e-05  0.100147  0.097244  2.6e-05  1.043758  0.0
H  H19  1  0.10802461  0.58293384  0.83549797  1  0.059663  5.2e-05  0.099966  0.0969  2.5e-05  1.044069  0.0
H  H20  1  0.66964476  0.02135442  0.70884310  1  0.104462  0.000801  0.103528  0.109082  0.000286  1.048366  0.0
H  H21  1  0.03900776  0.52161269  0.70887234  1  0.099569  0.000804  0.10369  0.108938  0.000287  1.04756  0.0
H  H22  1  0.72851527  0.76920896  0.74107787  1  0.075963  0.000788  0.101884  0.106176  0.000274  1.04833  0.0
H  H23  1  0.01319832  0.26935222  0.74110629  1  0.068896  0.000787  0.101822  0.106268  0.000276  1.0469  0.0
H  H24  1  0.56377437  0.93650199  0.55458883  1  0.105398  0.001653  0.115047  0.086575  0.000464  1.010097  0.001
H  H25  1  0.99078562  0.43684722  0.55462523  1  0.102149  0.001676  0.115005  0.086566  0.000485  1.009968  0.001
H  H26  1  0.62036635  0.69530275  0.58446611  1  0.112814  0.001758  0.11821  0.091044  0.000498  0.989049  0.001
H  H27  1  0.96436338  0.19553446  0.58442168  1  0.118639  0.001741  0.118717  0.09148  0.000478  0.989025  0.001
H  H28  1  0.41101486  0.11649572  0.06162378  1  0.162229  0.002063  0.112762  0.08214  0.000739  1.046634  0.001
H  H29  1  0.65071319  0.61656009  0.06170973  1  0.120604  0.002163  0.110551  0.079106  0.000631  1.048955  0.001
H  H30  1  0.10445839  0.10261293  0.08641094  1  0.072348  0.00186  0.116268  0.088334  0.000518  1.007264  0.001
H  H31  1  0.98229397  0.60286970  0.08672034  1  0.121163  0.001819  0.11367  0.08524  0.000387  1.00897  0.001
H  H32  1  0.32297121  0.04574656  0.90254362  1  0.082961  0.000857  0.102068  0.104494  0.000274  1.056014  0.0
H  H33  1  0.58015359  0.54598944  0.90292230  1  0.084049  0.000879  0.101189  0.103775  0.000369  1.057211  0.0
H  H34  1  0.00068055  0.03297598  0.92689196  1  0.068799  0.000948  0.102083  0.107593  0.000308  1.056805  0.0
H  H35  1  0.92676074  0.53336184  0.92745358  1  0.097734  0.000951  0.101055  0.106495  0.000399  1.058377  0.0
H  H36  1  0.95518136  0.91930627  0.80322994  1  0.059348  -0.0  0.099284  0.098132  -2.1e-05  1.038282  0.0
H  H37  1  0.84835494  0.41927364  0.80347139  1  0.06754  4e-06  0.099084  0.098351  -6.1e-05  1.037265  0.0
H  H38  1  0.22938150  0.05116100  0.78217929  1  0.073535  3.5e-05  0.096019  0.091402  2.5e-05  1.051211  0.0
H  H39  1  0.55365223  0.55154942  0.78259347  1  0.050299  5.8e-05  0.096487  0.093122  1e-06  1.051023  0.0
H  H40  1  0.87659312  0.83774919  0.64578566  1  0.079792  2e-05  0.10023  0.102125  -4.9e-05  1.022523  0.0
H  H41  1  0.76935657  0.33765778  0.64602106  1  0.072949  5e-06  0.100124  0.101786  -2.2e-05  1.021547  0.0
H  H42  1  0.15026064  0.97112704  0.62521177  1  0.035397  -5.6e-05  0.096142  0.092465  -0.000116  1.037644  0.0
H  H43  1  0.47536418  0.47122849  0.62567990  1  0.081283  -5.6e-05  0.096143  0.092172  -8.6e-05  1.037571  0.0
H  H44  1  0.13984589  0.83548317  0.53260446  1  0.102031  0.000786  0.102718  0.109369  0.000249  1.022818  0.0
H  H45  1  0.39305523  0.33590809  0.53304664  1  0.072497  0.00078  0.104  0.111163  0.000152  1.021525  0.0
H  H46  1  0.78994266  0.82863641  0.50253879  1  0.094474  0.000959  0.10586  0.119461  0.000326  1.011877  0.0
H  H47  1  0.71300230  0.32864031  0.50300885  1  0.08293  0.000948  0.10681  0.120858  0.000225  1.009583  0.0
H  H48  1  0.07426107  0.74539878  0.37588941  1  0.113163  0.002121  0.11718  0.093123  0.000571  0.997426  0.001
H  H49  1  0.30186267  0.24567167  0.37605247  1  0.137136  0.002076  0.119696  0.096008  0.000664  0.99439  0.001
H  H50  1  0.73931405  0.73809525  0.34719399  1  0.126584  0.001925  0.118746  0.097051  0.00041  0.98717  0.001
H  H51  1  0.60808585  0.23800402  0.34743799  1  0.115844  0.001855  0.121051  0.099158  0.000437  0.983587  0.001
H  H52  1  0.72478848  0.39970115  0.03301357  1  0.080664  -0.000173  0.099538  0.105345  -0.00024  1.008315  0.0
H  H53  1  0.30770583  0.89942775  0.03309714  1  0.074666  -7.8e-05  0.09967  0.105522  -0.000125  1.008849  0.0
H  H54  1  0.92098716  0.38155823  0.11161299  1  0.046193  -0.000158  0.084953  0.085135  -0.000169  1.059324  0.0
H  H55  1  0.18984258  0.88131060  0.11153999  1  0.077685  -0.000252  0.08433  0.084803  -0.00032  1.060567  0.0
H  H56  1  0.02810160  0.28632586  0.03261321  1  0.05915  -5.5e-05  0.096798  0.097755  -5.3e-05  1.013956  0.0
H  H57  1  0.00363837  0.78607395  0.03238062  1  0.062555  -0.00024  0.096814  0.097221  -0.000257  1.014024  0.0
H  H58  1  0.56083603  0.36766285  0.89511766  1  0.076058  -4e-06  0.097904  0.099529  -7e-06  1.032508  0.0
H  H59  1  0.33409336  0.86730283  0.89514958  1  0.069993  -1.1e-05  0.097559  0.098648  -9e-06  1.033812  0.0
H  H60  1  0.47121348  0.29081427  0.73654715  1  0.077092  -6e-06  0.09401  0.093869  8e-06  1.06371  0.0
H  H61  1  0.26516849  0.79057988  0.73658573  1  0.067559  -5e-06  0.094145  0.094414  1.2e-05  1.061711  0.0
H  H62  1  0.94952131  0.11090018  0.73493359  1  0.057428  -4e-06  0.099313  0.105646  -1.4e-05  1.010197  0.0
H  H63  1  0.78486270  0.61075894  0.73470366  1  0.060275  -5e-06  0.099594  0.10631  -1.7e-05  1.010512  0.0
H  H64  1  0.03796550  0.18619528  0.89360617  1  0.070182  -2.8e-05  0.098832  0.103851  -3.9e-05  1.012939  0.0
H  H65  1  0.85500593  0.68585109  0.89336567  1  0.071146  -6.8e-05  0.098949  0.104404  -0.000106  1.014739  0.0
H  H66  1  0.47921294  0.18876321  0.59870667  1  0.056439  -7.6e-05  0.099519  0.10318  -9.3e-05  1.00568  0.0
H  H67  1  0.11921812  0.68895642  0.59867604  1  0.065249  -6.3e-05  0.099904  0.103759  -8.6e-05  1.00494  0.0
H  H68  1  0.58884825  0.09853462  0.51806291  1  0.05197  -0.000241  0.089917  0.090127  -0.000282  1.033531  0.0
H  H69  1  0.92895609  0.59875195  0.51792980  1  0.093541  -0.000218  0.089844  0.090158  -0.000259  1.032467  0.0
H  H70  1  0.78542118  0.08207891  0.59580077  1  0.055788  -0.00011  0.090492  0.089353  -0.000107  1.035687  0.0
H  H71  1  0.80995271  0.58214852  0.59557632  1  0.059659  -0.000105  0.090642  0.089395  -0.000105  1.035919  0.0
H  H72  1  0.45590286  0.73052308  0.05359245  1  0.076019  -0.00021  0.091953  0.088072  -0.000238  1.033754  0.0
H  H73  1  0.59730316  0.23048160  0.05357974  1  0.079715  -0.000261  0.091732  0.087842  -0.00031  1.035113  0.0
H  H74  1  0.38646231  0.70662116  0.89745731  1  0.076027  -1e-06  0.095632  0.098051  7e-06  1.049164  0.0
H  H75  1  0.51092783  0.20656474  0.89741999  1  0.064803  -6e-06  0.095586  0.09782  5e-06  1.049148  0.0
H  H76  1  0.46615486  0.60136423  0.10020169  1  0.089199  3.2e-05  0.103802  0.112892  -1.9e-05  0.988263  0.0
H  H77  1  0.63377132  0.10136409  0.10019877  1  0.089508  -0.00012  0.104046  0.112904  -0.000196  0.98794  0.0
H  H78  1  0.31563525  0.60401339  0.74332273  1  0.046439  -1.1e-05  0.09852  0.103991  -6e-06  1.024308  0.0
H  H79  1  0.42773467  0.10390103  0.74327027  1  0.043228  -1.2e-05  0.098284  0.104072  -8e-06  1.023323  0.0
H  H80  1  0.26139563  0.45072907  0.63390704  1  0.055192  -0.000224  0.093562  0.094187  -0.000302  1.039777  0.0
H  H81  1  0.37270759  0.95060136  0.63387860  1  0.058144  -0.000206  0.093402  0.094026  -0.000276  1.038387  0.0
H  H82  1  0.36313655  0.28568172  0.95350534  1  0.059283  -3e-05  0.100157  0.10667  -3.2e-05  1.00174  0.0
H  H83  1  0.59063492  0.78572291  0.95357054  1  0.057947  -0.000112  0.100255  0.106618  -0.000131  1.001788  0.0
H  H84  1  0.43200883  0.43780232  0.06304101  1  0.053673  -0.00018  0.08035  0.079901  -0.000195  1.08475  0.0
H  H85  1  0.63118879  0.93787352  0.06307825  1  0.052993  -0.000206  0.080078  0.079638  -0.00024  1.084602  0.0
H  H86  1  0.22916767  0.28682173  0.59692567  1  0.106137  -0.000231  0.101258  0.111297  -0.000502  1.018507  0.0
H  H87  1  0.36786811  0.78670923  0.59694582  1  0.063248  -0.000244  0.101228  0.11105  -0.000512  1.017942  0.0
H  H88  1  0.22546272  0.15907415  0.64291422  1  0.082934  -7.3e-05  0.092596  0.091418  -9.8e-05  1.028579  0.0
H  H89  1  0.41763846  0.65901487  0.64298721  1  0.081953  -7.9e-05  0.092514  0.091446  -0.000104  1.027708  0.0
H  H90  1  0.28456414  0.18371602  0.79906687  1  0.030914  -2e-06  0.094987  0.092384  -0.0  1.039723  0.0
H  H91  1  0.51474349  0.68372669  0.79914633  1  0.031884  -3e-06  0.095172  0.092961  5e-06  1.038698  0.0
Au  Au92  1  0.24408763  0.49091539  0.45533263  1  0.248735  0.00175  0.262915  0.007289  0.002764  2.933442  0.007
Au  Au93  1  0.21105910  0.99099684  0.45529579  1  0.244157  0.001601  0.26334  0.007284  0.002638  2.928776  0.007
Au  Au94  1  0.68179272  0.98714507  0.39555455  1  0.259754  0.003352  0.281232  0.03218  0.004741  3.019388  0.008
Au  Au95  1  0.71367120  0.48719560  0.39561731  1  0.254908  0.003636  0.281453  0.032077  0.005043  3.01981  0.008
Au  Au96  1  0.12827437  0.44001605  0.25264071  1  0.241602  0.003408  0.290043  0.034208  0.005154  3.049578  0.008
Au  Au97  1  0.12384227  0.94038235  0.25234150  1  0.246362  0.003284  0.290035  0.033438  0.004993  3.048399  0.008
Au  Au98  1  0.59875100  0.91718384  0.19754890  1  0.23797  0.002443  0.280985  0.026913  0.00387  3.040943  0.008
Au  Au99  1  0.59945326  0.41689835  0.19765578  1  0.245661  0.00289  0.280873  0.026253  0.004405  3.039115  0.008
C  C100  1  0.15261711  0.39093656  0.45209549  1  0.812039  -0.001141  -0.002889  0.061159  -0.003849  3.952948  0.007
C  C101  1  0.29935048  0.89108833  0.45218351  1  0.790242  -0.00027  -0.001342  0.063587  -0.003143  3.949408  0.008
C  C102  1  0.33506903  0.59240161  0.46067114  1  0.807398  0.004365  -0.002176  0.06671  0.000462  3.948219  0.011
C  C103  1  0.12553736  0.09248476  0.46067398  1  0.816756  0.005709  -0.000636  0.069262  0.001458  3.945356  0.012
C  C104  1  0.90858005  0.08204207  0.25312110  1  0.500327  -0.001475  0.044861  0.093871  -0.002651  3.963754  0.0
C  C105  1  0.34444335  0.58216864  0.25318466  1  0.487444  -0.001585  0.044634  0.09477  -0.00278  3.961064  -0.001
C  C106  1  0.94895603  0.21704323  0.24472365  1  0.466637  -0.001074  0.051288  0.11081  -0.002232  3.925135  0.0
C  C107  1  0.29574046  0.71713859  0.24469016  1  0.527926  -0.000991  0.051378  0.111974  -0.002083  3.923871  0.0
C  C108  1  0.77543836  0.09073119  0.40742855  1  0.817888  0.001134  -0.001968  0.063201  -0.002145  3.949376  0.009
C  C109  1  0.63195057  0.59079114  0.40744309  1  0.840944  0.001742  -0.001438  0.06432  -0.001569  3.947269  0.009
C  C110  1  0.88185664  0.03740800  0.16521557  1  -0.064345  0.002922  -0.087367  -0.18609  0.000916  3.974212  0.003
C  C111  1  0.28344207  0.53749782  0.16525759  1  -0.068904  0.002904  -0.087503  -0.188676  0.000851  3.972865  0.002
C  C112  1  0.92387371  0.17742886  0.15655434  1  -0.057803  0.002626  -0.083095  -0.16926  0.000877  3.922925  0.002
C  C113  1  0.23271274  0.67746155  0.15652794  1  -0.080981  0.002706  -0.082358  -0.169956  0.000963  3.923758  0.002
C  C114  1  0.88780416  0.08513168  0.11378453  1  0.087003  -0.00397  0.012067  0.108588  -0.004647  3.980028  -0.002
C  C115  1  0.22609006  0.58517116  0.11379523  1  -0.01139  -0.003894  0.012076  0.110503  -0.004537  3.979106  -0.002
C  C116  1  0.79958415  0.38617475  0.39152388  1  0.807173  0.005308  -0.000506  0.06216  0.000999  3.955204  0.012
C  C117  1  0.59157100  0.88617065  0.39142773  1  0.818731  0.00411  -0.000626  0.062128  0.000139  3.953426  0.011
C  C118  1  0.85311624  0.04072022  0.01954594  1  -0.039141  -0.001637  -0.006316  0.055624  -0.001935  3.989912  -0.001
C  C119  1  0.16663126  0.54077322  0.01955807  1  0.02045  -0.001639  -0.005692  0.056256  -0.001962  3.987492  -0.001
C  C120  1  0.85712456  0.94933669  0.98133615  1  -0.104709  -0.00056  -0.085417  -0.113257  -0.000726  3.967079  0.0
C  C121  1  0.12432515  0.44939752  0.98133584  1  -0.097335  -0.00054  -0.085408  -0.112722  -0.000708  3.966676  0.0
C  C122  1  0.80852715  0.08750953  0.96427824  1  -0.085301  -0.000691  -0.083949  -0.115092  -0.000838  3.964074  0.0
C  C123  1  0.15604816  0.58759319  0.96432101  1  -0.069502  -0.00065  -0.083395  -0.113687  -0.000816  3.963901  0.0
C  C124  1  0.81368893  0.90596005  0.89206222  1  -0.021266  -0.00093  -0.087878  -0.118058  -0.001089  3.965121  0.0
C  C125  1  0.07851376  0.40604668  0.89206311  1  -0.028522  -0.000958  -0.087853  -0.118351  -0.001108  3.966041  0.0
C  C126  1  0.76498423  0.04400243  0.87504066  1  0.01679  -0.000974  -0.083619  -0.110442  -0.001173  3.957581  -0.001
C  C127  1  0.11037206  0.54411325  0.87508622  1  -0.038426  -0.001042  -0.083487  -0.110616  -0.001232  3.958817  -0.001
C  C128  1  0.76397030  0.95163373  0.83654417  1  -0.033341  -0.001201  -0.006969  0.051026  -0.001578  3.975717  0.0
C  C129  1  0.07281721  0.45175138  0.83657539  1  -0.039981  -0.001207  -0.006615  0.051796  -0.00155  3.976269  0.0
C  C130  1  0.70853545  0.90387728  0.74204944  1  -0.037502  -0.004728  0.014986  0.113232  -0.005505  3.957464  -0.003
C  C131  1  0.03375398  0.40406471  0.74208150  1  0.015476  -0.004818  0.014371  0.111135  -0.005636  3.957898  -0.003
C  C132  1  0.66202930  0.94908212  0.68559880  1  0.010983  0.003429  -0.082601  -0.168568  0.001285  3.939078  0.003
C  C133  1  0.02360334  0.44932869  0.68562749  1  -0.009579  0.003453  -0.082444  -0.16746  0.001289  3.936879  0.003
C  C134  1  0.69481286  0.81033325  0.70323305  1  -0.040552  0.002732  -0.083755  -0.172183  0.00096  3.937601  0.002
C  C135  1  0.00880776  0.31051630  0.70324752  1  -0.027596  0.002758  -0.083449  -0.171041  0.000982  3.935943  0.002
C  C136  1  0.60200322  0.90179621  0.59821516  1  0.413322  -0.001323  0.045532  0.095806  -0.00245  3.943199  0.0
C  C137  1  0.99620779  0.40208679  0.59823052  1  0.408989  -0.001381  0.044964  0.095662  -0.002533  3.943084  0.0
C  C138  1  0.63383094  0.76780854  0.61504685  1  0.489768  -0.000709  0.046777  0.095792  -0.001759  3.950859  0.0
C  C139  1  0.98147712  0.26803575  0.61503877  1  0.46638  -0.000812  0.046257  0.095263  -0.001866  3.953639  0.0
C  C140  1  0.20381322  0.33376145  0.23702168  1  0.812195  -0.001236  -0.010518  0.053574  -0.004806  3.977931  0.008
C  C141  1  0.03327537  0.83411075  0.23724444  1  0.825641  0.010028  -0.005563  0.058898  0.005693  3.968633  0.015
C  C142  1  0.04276342  0.54029088  0.25193639  1  0.837027  0.012874  0.00179  0.070963  0.007341  3.943575  0.017
C  C143  1  0.20963826  0.04053202  0.25213814  1  0.809993  0.000297  -0.004064  0.066742  -0.003531  3.952267  0.009
C  C144  1  0.51238959  0.01767256  0.20057233  1  0.806549  -0.001479  -0.006074  0.062467  -0.004922  3.959604  0.008
C  C145  1  0.68809686  0.51797570  0.20100224  1  0.827917  0.011591  0.000261  0.069326  0.006557  3.948716  0.016
C  C146  1  0.32024754  0.09722857  0.02898860  1  0.451791  0.002224  0.044749  0.096293  0.000809  3.950462  0.002
C  C147  1  0.70916114  0.59743290  0.02933353  1  0.461064  -0.01013  0.040508  0.094164  -0.01164  3.959791  -0.006
C  C148  1  0.14890489  0.08899997  0.04260410  1  0.537357  0.00218  0.049369  0.102353  0.000528  3.93333  0.002
C  C149  1  0.89399708  0.58938011  0.04305438  1  0.458808  -0.011185  0.044543  0.09901  -0.012984  3.939241  -0.007
C  C150  1  0.26987799  0.05846979  0.93980339  1  -0.056582  0.001221  -0.086931  -0.17819  2.9e-05  3.947823  0.001
C  C151  1  0.67049590  0.55872460  0.94017256  1  -0.032998  0.005652  -0.089046  -0.180637  0.001785  3.957975  0.005
C  C152  1  0.09189822  0.04964526  0.95356713  1  -0.023878  0.002046  -0.084312  -0.177499  0.000622  3.941246  0.002
C  C153  1  0.86209798  0.54999850  0.95402794  1  -0.055483  0.006789  -0.085901  -0.177993  0.002396  3.947702  0.006
C  C154  1  0.50924395  0.31672233  0.19422490  1  0.809726  -0.000943  -0.006367  0.062676  -0.004583  3.958025  0.008
C  C155  1  0.68558603  0.81714954  0.19432754  1  0.83267  0.010563  -0.0017  0.066242  0.006031  3.948446  0.016
C  C156  1  0.15255079  0.03353442  0.89946006  1  -0.055465  -0.000609  0.011843  0.109177  -0.00119  3.985137  0.0
C  C157  1  0.74745490  0.53378846  0.89978633  1  -0.034965  -0.017969  0.006743  0.101878  -0.020186  3.992592  -0.011
C  C158  1  0.09866543  0.99087763  0.80489707  1  -0.002517  -0.004312  -0.00857  0.055505  -0.004933  3.99687  -0.003
C  C159  1  0.70678952  0.49105659  0.80523306  1  -0.052335  0.000679  -0.007123  0.058924  -0.000554  3.997284  0.001
C  C160  1  0.99688934  0.93234827  0.76424969  1  0.01664  0.000645  -0.083962  -0.110803  -9e-06  3.958857  0.001
C  C161  1  0.76770974  0.43234916  0.76451995  1  0.045213  -0.004362  -0.083918  -0.110565  -0.004893  3.956035  -0.003
C  C162  1  0.15164138  0.00486112  0.75285480  1  -0.076567  0.000872  -0.088695  -0.118635  0.000152  3.983482  0.001
C  C163  1  0.60184834  0.50509777  0.75318754  1  -0.060666  -0.004049  -0.089834  -0.122572  -0.004474  3.985812  -0.002
C  C164  1  0.95230553  0.88646138  0.67523707  1  -0.091502  -0.003317  -0.083621  -0.113196  -0.003701  3.960488  -0.002
C  C165  1  0.72321041  0.38645631  0.67549977  1  -0.097361  0.001178  -0.083655  -0.113054  0.000281  3.959468  0.001
C  C166  1  0.10746352  0.95918253  0.66415333  1  0.032544  -0.003175  -0.089673  -0.121115  -0.003582  3.979799  -0.002
C  C167  1  0.55711126  0.45926648  0.66451246  1  -0.042749  0.001309  -0.089137  -0.118718  0.000314  3.981587  0.001
C  C168  1  0.00843943  0.89739011  0.62399734  1  -0.026469  0.000123  -0.005981  0.063642  -0.000747  3.994809  0.001
C  C169  1  0.61590323  0.39746744  0.62433801  1  0.036941  -0.005412  -0.007804  0.058556  -0.006095  3.996261  -0.003
C  C170  1  0.97028959  0.84239649  0.53157001  1  0.007766  -0.015251  0.007106  0.104138  -0.017197  4.001022  -0.01
C  C171  1  0.56156897  0.34244892  0.53191083  1  -0.024102  0.000607  0.012638  0.113194  -0.000291  3.992772  0.001
C  C172  1  0.04991941  0.81689120  0.49385164  1  0.023165  0.005466  -0.089216  -0.184858  0.001718  3.97641  0.005
C  C173  1  0.44417115  0.31715163  0.49425459  1  -0.017825  0.000963  -0.086971  -0.184821  -0.000184  3.968376  0.001
C  C174  1  0.85638363  0.81185420  0.47783340  1  -0.078887  0.006131  -0.085382  -0.177297  0.002118  3.94501  0.005
C  C175  1  0.62186772  0.31189448  0.47825359  1  -0.039609  0.001387  -0.083205  -0.176673  8.1e-05  3.936379  0.001
C  C176  1  0.01409770  0.76589837  0.40654427  1  0.385327  -0.00912  0.043737  0.099343  -0.010665  3.953388  -0.005
C  C177  1  0.39266194  0.26619865  0.40694196  1  0.447654  0.002934  0.047904  0.102791  0.001104  3.94349  0.002
C  C178  1  0.82725700  0.76126422  0.39063099  1  0.488403  -0.010067  0.047892  0.102928  -0.011833  3.934385  -0.006
C  C179  1  0.56383751  0.26131092  0.39105124  1  0.508344  0.002894  0.05375  0.107656  0.00095  3.924729  0.002
C  C180  1  0.77129366  0.35791607  0.99753077  1  -0.121537  -0.000111  -0.087614  -0.120839  -0.000182  3.946318  0.0
C  C181  1  0.22564237  0.85772242  0.99750026  1  -0.069529  -4.2e-05  -0.089096  -0.122307  -0.000108  3.944778  0.0
C  C182  1  0.88149616  0.34751538  0.04155219  1  -0.007776  -0.000129  -0.098889  -0.083044  -0.000209  4.05167  0.0
C  C183  1  0.15931701  0.84730616  0.04146117  1  -0.051818  -0.000141  -0.098509  -0.083885  -0.00021  4.050301  0.0
C  C184  1  0.71929501  0.31555588  0.90713499  1  0.071066  1e-05  -0.009559  0.072178  -2.2e-05  4.025881  0.0
C  C185  1  0.18737624  0.81538176  0.90708643  1  0.015247  2.2e-05  -0.008968  0.073399  1.3e-05  4.0247  0.0
C  C186  1  0.78080120  0.26135721  0.86084730  1  -0.025939  -5.3e-05  -0.000677  -0.003963  -4.8e-05  3.910389  0.0
C  C187  1  0.07951323  0.76123043  0.86072419  1  0.015368  2.1e-05  -0.001087  -0.006192  2e-05  3.911005  0.0
C  C188  1  0.89370370  0.25091623  0.90662441  1  -0.023217  -1.4e-05  -0.011602  0.068984  -2.5e-05  4.034677  0.0
C  C189  1  0.01227414  0.75073342  0.90644555  1  0.00835  -5.3e-05  -0.01216  0.068764  -5.2e-05  4.033042  0.0
C  C190  1  0.94226330  0.29468243  0.99707241  1  -0.082923  -0.000282  -0.09538  -0.148577  -0.000336  3.993263  0.0
C  C191  1  0.05404860  0.79446614  0.99690421  1  -0.091605  -0.000216  -0.095113  -0.146662  -0.000276  3.990955  0.0
C  C192  1  0.60657684  0.32512859  0.85951081  1  -0.137338  -8e-06  -0.09145  -0.130741  -4.6e-05  4.002092  0.0
C  C193  1  0.25262775  0.82491080  0.85951224  1  -0.149206  5e-06  -0.091864  -0.131237  -1.7e-05  4.00284  0.0
C  C194  1  0.55688511  0.28251136  0.77184480  1  0.040326  -7.6e-05  -0.090869  -0.126249  -7.6e-05  3.987563  0.0
C  C195  1  0.21466745  0.78235758  0.77183848  1  0.050952  -5.7e-05  -0.091519  -0.127314  -6.1e-05  3.987855  0.0
C  C196  1  0.61569016  0.22672102  0.72378652  1  0.018248  -1.2e-05  -0.010623  0.070351  -1.8e-05  4.031651  0.0
C  C197  1  0.10771228  0.72669111  0.72370357  1  -0.039822  3.5e-05  -0.009512  0.071697  1.7e-05  4.031791  0.0
C  C198  1  0.72930440  0.21737921  0.76924921  1  -0.068737  -1.8e-05  -0.002755  -0.011181  -2.1e-05  3.924214  0.0
C  C199  1  0.03946509  0.71732980  0.76911683  1  -0.083211  -2.4e-05  -0.002565  -0.010208  -2.5e-05  3.923395  0.0
C  C200  1  0.79101548  0.16399222  0.72256624  1  -0.007084  -9.5e-05  -0.014162  0.062189  -0.000107  4.040615  0.0
C  C201  1  0.93104851  0.66396835  0.72240288  1  0.005023  -3e-05  -0.014814  0.061798  -4e-05  4.04201  0.0
C  C202  1  0.90359287  0.15370888  0.77030512  1  -0.111311  6.6e-05  -0.092056  -0.133183  1.9e-05  3.997609  0.0
C  C203  1  0.86615012  0.65357979  0.77009009  1  -0.017843  2.2e-05  -0.091951  -0.133292  -6e-06  3.998947  0.0
C  C204  1  0.95255260  0.19529965  0.85830108  1  -0.009955  -7.2e-05  -0.093852  -0.137951  -9.8e-05  4.00984  0.0
C  C205  1  0.90511810  0.69508402  0.85809400  1  -0.125632  -5.2e-05  -0.092951  -0.137575  -8e-05  4.010529  0.0
C  C206  1  0.56617085  0.18223674  0.63345511  1  -0.077133  -0.000149  -0.089766  -0.127926  -0.000166  3.96049  0.0
C  C207  1  0.06695474  0.68232195  0.63336978  1  -0.043931  -0.000196  -0.089646  -0.127737  -0.000229  3.959187  0.0
C  C208  1  0.62761775  0.13160584  0.58832136  1  -0.042691  -0.000204  -0.097188  -0.080006  -0.000267  4.046025  0.0
C  C209  1  0.96034003  0.63173422  0.58819516  1  -0.087059  -8.6e-05  -0.096524  -0.079298  -0.000157  4.045682  0.0
C  C210  1  0.73878941  0.12265885  0.63200294  1  -0.040389  -8.9e-05  -0.094393  -0.139754  -0.00014  3.983575  0.0
C  C211  1  0.89279588  0.62271853  0.63184369  1  -0.03302  -0.000148  -0.094727  -0.140472  -0.000184  3.986937  0.0
C  C212  1  0.43028730  0.66284913  0.00517972  1  -0.020278  -5.5e-05  -0.092367  -0.073906  -0.000105  4.029183  0.0
C  C213  1  0.57468201  0.16281533  0.00516126  1  -0.131795  -7.1e-05  -0.092401  -0.074636  -0.000131  4.030982  0.0
C  C214  1  0.39208069  0.64962796  0.91751527  1  -0.045174  -9.6e-05  -0.093491  -0.140687  -0.000111  3.96095  0.0
C  C215  1  0.52534074  0.14958239  0.91748998  1  0.022828  1.1e-05  -0.093615  -0.140585  3e-06  3.963  0.0
C  C216  1  0.35926998  0.56309664  0.85383082  1  -0.04808  -1.8e-05  -0.013248  0.063192  -4.7e-05  4.041357  0.0
C  C217  1  0.49458502  0.06304792  0.85380739  1  -0.089347  -3.2e-05  -0.013572  0.062773  -5.8e-05  4.043999  0.0
C  C218  1  0.36374963  0.48846492  0.88015096  1  -0.047682  -0.000102  -0.001085  -0.008447  -0.000122  3.919223  0.0
C  C219  1  0.51645112  0.98844147  0.88014722  1  -0.04713  -5.7e-05  -0.000776  -0.008477  -7.3e-05  3.920659  0.0
C  C220  1  0.40206983  0.50271067  0.97010025  1  0.006108  3.5e-05  -0.009461  0.073495  -2.3e-05  4.017065  0.0
C  C221  1  0.56806400  0.00270570  0.97009683  1  0.019163  6.3e-05  -0.009592  0.073517  1.2e-05  4.014889  0.0
C  C222  1  0.43610237  0.59043164  0.03151189  1  -0.076752  6.8e-05  -0.086555  -0.127288  -6e-06  3.951138  0.0
C  C223  1  0.59527389  0.09041664  0.03150603  1  -0.043341  -1.6e-05  -0.087569  -0.127376  -0.000134  3.949295  0.0
C  C224  1  0.32088008  0.54675852  0.76309924  1  -0.139517  -0.000178  -0.093923  -0.135278  -0.000194  3.992157  0.0
C  C225  1  0.44229571  0.04667036  0.76306953  1  -0.066216  -0.000141  -0.093493  -0.135077  -0.000158  3.989914  0.0
C  C226  1  0.29070701  0.46198870  0.70262673  1  0.030335  -0.000155  -0.091455  -0.124167  -0.000203  3.999027  0.0
C  C227  1  0.41207288  0.96189669  0.70260801  1  0.01181  -0.000146  -0.091494  -0.123825  -0.000186  3.997158  0.0
C  C228  1  0.29230817  0.38591330  0.72698124  1  -0.04924  -4.7e-05  -0.010444  0.070658  -4.7e-05  4.019242  0.0
C  C229  1  0.43482120  0.88585064  0.72699519  1  -0.003983  -3.6e-05  -0.00964  0.070388  -3.7e-05  4.021096  0.0
C  C230  1  0.32790404  0.40031617  0.81685059  1  0.008355  6e-06  0.000954  -0.002596  -5e-06  3.905943  0.0
C  C231  1  0.48905550  0.90028610  0.81686998  1  -0.051179  -2e-06  0.000535  -0.002427  -8e-06  3.907852  0.0
C  C232  1  0.32571820  0.32616625  0.84300506  1  -0.076277  -2.1e-05  -0.011417  0.069824  -1.7e-05  4.035503  0.0
C  C233  1  0.51746586  0.82616122  0.84304241  1  -0.075854  -9e-06  -0.011878  0.068413  -1e-06  4.036047  0.0
C  C234  1  0.36399992  0.34242038  0.93357886  1  6.1e-05  1.4e-05  -0.093447  -0.135863  -5e-06  3.99804  0.0
C  C235  1  0.56975685  0.84243412  0.93362088  1  0.002943  -3e-05  -0.093061  -0.13445  -5.5e-05  3.996022  0.0
C  C236  1  0.40171511  0.42679908  0.99426366  1  -0.053819  -0.000272  -0.09389  -0.127026  -0.000341  4.010219  0.0
C  C237  1  0.59266254  0.92682146  0.99428302  1  -0.063005  -0.000269  -0.094209  -0.127875  -0.000331  4.008873  0.0
C  C238  1  0.25728273  0.29824453  0.66558861  1  -0.021584  -8.9e-05  -0.090822  -0.135137  -0.000253  3.952979  0.0
C  C239  1  0.40848771  0.79818135  0.66561509  1  -0.043091  -0.000106  -0.090492  -0.134076  -0.000276  3.951306  0.0
C  C240  1  0.25445224  0.22636512  0.69168470  1  -0.082476  -4.4e-05  -0.096818  -0.084336  -7.9e-05  4.051213  0.0
C  C241  1  0.43740621  0.72632105  0.69173642  1  -0.077838  -3.8e-05  -0.096909  -0.084297  -8e-05  4.047781  0.0
C  C242  1  0.28733761  0.24004727  0.77904976  1  -0.041167  6.2e-05  -0.094677  -0.14247  4e-05  3.985171  0.0
C  C243  1  0.49189418  0.74003275  0.77910734  1  0.030359  3.8e-05  -0.093926  -0.141952  2.6e-05  3.982949  0.0
N  N244  1  0.09513614  0.33164136  0.44766908  1  -1.344281  0.048369  -0.35836  -0.354406  0.022188  3.370642  0.032
N  N245  1  0.35254438  0.83188744  0.44795502  1  -1.317869  0.048593  -0.358506  -0.355314  0.022395  3.368087  0.032
N  N246  1  0.94063909  0.17078978  0.29288926  1  -1.242256  0.06573  -0.320906  -0.223803  0.031122  3.500766  0.047
N  N247  1  0.35209155  0.67091807  0.29291753  1  -1.243387  0.066288  -0.320845  -0.224953  0.031389  3.501481  0.047
N  N248  1  0.38744190  0.65248759  0.46168740  1  -1.331035  0.04983  -0.359473  -0.353761  0.022909  3.377591  0.031
N  N249  1  0.07424930  0.15260420  0.46183349  1  -1.338178  0.050341  -0.360146  -0.355344  0.023154  3.375505  0.03
N  N250  1  0.83250915  0.15144641  0.41393340  1  -1.341069  0.052221  -0.364244  -0.358967  0.023992  3.39887  0.034
N  N251  1  0.58133802  0.65144014  0.41392276  1  -1.361392  0.052567  -0.363451  -0.358226  0.024129  3.39528  0.034
N  N252  1  0.85133449  0.32647148  0.39159241  1  -1.326744  0.05267  -0.363432  -0.357017  0.024105  3.384473  0.033
N  N253  1  0.53981850  0.82651207  0.39154393  1  -1.343019  0.0525  -0.364114  -0.357631  0.023879  3.385922  0.033
N  N254  1  0.58552728  0.81205034  0.56260327  1  -1.229815  0.066444  -0.324472  -0.239258  0.031623  3.528177  0.047
N  N255  1  0.97716280  0.31233478  0.56259443  1  -1.206792  0.066077  -0.324855  -0.240565  0.031513  3.530933  0.047
N  N256  1  0.24793189  0.26989484  0.22394395  1  -1.335598  0.052857  -0.365433  -0.356232  0.024142  3.420759  0.035
N  N257  1  0.97741143  0.76997286  0.22512658  1  -1.341991  0.055883  -0.36249  -0.34969  0.025732  3.406199  0.033
N  N258  1  0.98629484  0.59575671  0.24329991  1  -1.346072  0.056896  -0.361263  -0.34648  0.02607  3.397492  0.032
N  N259  1  0.25916437  0.09574237  0.24433234  1  -1.330303  0.053827  -0.364432  -0.35475  0.024487  3.416777  0.035
N  N260  1  0.46236869  0.07856445  0.20587584  1  -1.326061  0.052496  -0.362639  -0.353924  0.024004  3.409776  0.035
N  N261  1  0.74247565  0.57970426  0.20682354  1  -1.342545  0.05541  -0.3609  -0.34866  0.025444  3.392269  0.031
N  N262  1  0.45632221  0.25869422  0.19565652  1  -1.33226  0.051526  -0.36264  -0.354421  0.023506  3.410483  0.034
N  N263  1  0.73949091  0.75895177  0.19603485  1  -1.343832  0.054776  -0.359291  -0.346072  0.025203  3.390443  0.031
N  N264  1  0.26126413  0.11263704  0.08000115  1  -1.261548  0.072181  -0.327892  -0.228651  0.03431  3.533901  0.049
N  N265  1  0.81915395  0.61305150  0.08072013  1  -1.234363  0.062624  -0.331577  -0.238933  0.028968  3.565036  0.05
N  N266  1  0.90435366  0.73923888  0.35492153  1  -1.21571  0.062474  -0.327872  -0.235144  0.02878  3.54961  0.049
N  N267  1  0.45112128  0.23951250  0.35564275  1  -1.252076  0.071768  -0.326056  -0.226752  0.033908  3.523962  0.048
