# generated using pymatgen
data_CaH14C12(NO4)2
_symmetry_space_group_name_H-M   'P 1'
_cell_length_a   6.63998799
_cell_length_b   8.67927953
_cell_length_c   13.30539308
_cell_angle_alpha   86.02613359
_cell_angle_beta   75.51223347
_cell_angle_gamma   73.92356395
_symmetry_Int_Tables_number   1
_chemical_formula_structural   CaH14C12(NO4)2
_chemical_formula_sum   'Ca2 H28 C24 N4 O16'
_cell_volume   713.37736676
_cell_formula_units_Z   2
loop_
 _symmetry_equiv_pos_site_id
 _symmetry_equiv_pos_as_xyz
  1  'x, y, z'
loop_
 _atom_site_type_symbol
 _atom_site_label
 _atom_site_symmetry_multiplicity
 _atom_site_fract_x
 _atom_site_fract_y
 _atom_site_fract_z
 _atom_site_occupancy
 _atom_site_hle17_bader_spin_density
 _atom_site_hle17_ddec_charge
 _atom_site_hle17_ddec_spin_density
 _atom_site_hle17_ddec_sum_bond_order
 _atom_site_hle17_magmom
 _atom_site_hse06_10hf_bader_spin_density
 _atom_site_hse06_10hf_ddec_charge
 _atom_site_hse06_10hf_ddec_spin_density
 _atom_site_hse06_10hf_ddec_sum_bond_order
 _atom_site_hse06_10hf_magmom
 _atom_site_hse06_bader_spin_density
 _atom_site_hse06_ddec_charge
 _atom_site_hse06_ddec_spin_density
 _atom_site_hse06_ddec_sum_bond_order
 _atom_site_hse06_magmom
 _atom_site_pbe_bader_spin_density
 _atom_site_pbe_cm5_charge
 _atom_site_pbe_ddec_charge
 _atom_site_pbe_ddec_spin_density
 _atom_site_pbe_ddec_sum_bond_order
 _atom_site_pbe_magmom
Ca  Ca0  1  0.79689274  0.50013006  0.40629150  1  0  1.563774  0  1.078829  0  0  1.435333  0  1.426432  0  0  1.478199  0  1.381688  0  0  0.882834  1.403029  0  1.45868  0
Ca  Ca1  1  0.20310688  0.49986960  0.59370700  1  0  1.563763  0  1.078865  0  0  1.435338  0  1.426444  0  0  1.478209  0  1.381695  0  0  0.882807  1.403031  0  1.458672  0
H  H2  1  0.01738373  0.07086350  0.29010456  1  0  0.301984  0  0.943496  0  0  0.281273  0  1.011166  0  0  0.289936  0  1.004487  0  0  0.304374  0.27535  0  1.01557  0
H  H3  1  0.69295981  0.92927851  0.29016556  1  0  0.303231  0  0.942652  0  0  0.28206  0  1.010825  0  0  0.290728  0  1.004082  0  0  0.304441  0.276112  0  1.015324  0
H  H4  1  0.98261742  0.92913736  0.70989508  1  0  0.301985  0  0.943486  0  0  0.281271  0  1.011157  0  0  0.289933  0  1.00448  0  0  0.304373  0.275345  0  1.015571  0
H  H5  1  0.30703830  0.07072116  0.70983444  1  0  0.303221  0  0.942661  0  0  0.28205  0  1.010836  0  0  0.290718  0  1.004096  0  0  0.304431  0.276104  0  1.015336  0
H  H6  1  0.09510763  0.95342384  0.44067720  1  0  0.092743  0  0.944814  0  0  0.110177  0  1.001638  0  0  0.111617  0  1.000921  0  0  0.117783  0.108953  0  1.002514  0
H  H7  1  0.46447182  0.04679176  0.44076788  1  0  0.092754  0  0.944145  0  0  0.110193  0  1.001368  0  0  0.111708  0  1.00055  0  0  0.118186  0.108964  0  1.00225  0
H  H8  1  0.90488316  0.04658063  0.55932372  1  0  0.092671  0  0.944869  0  0  0.110126  0  1.001708  0  0  0.111569  0  1.000985  0  0  0.11775  0.108893  0  1.002587  0
H  H9  1  0.53552342  0.95320791  0.55923343  1  0  0.092754  0  0.944142  0  0  0.11021  0  1.001335  0  0  0.111725  0  1.000517  0  0  0.118191  0.108985  0  1.002214  0
H  H10  1  0.29867959  0.79254895  0.37394986  1  0  0.111243  0  0.92528  0  0  0.125486  0  0.985987  0  0  0.127839  0  0.984055  0  0  0.129873  0.123919  0  0.987148  0
H  H11  1  0.32778355  0.20766180  0.37405435  1  0  0.110947  0  0.925209  0  0  0.124896  0  0.986611  0  0  0.127238  0  0.984712  0  0  0.129688  0.12333  0  0.98777  0
H  H12  1  0.70131650  0.20745551  0.62605354  1  0  0.111184  0  0.925312  0  0  0.125437  0  0.986042  0  0  0.127787  0  0.984114  0  0  0.12987  0.123866  0  0.987199  0
H  H13  1  0.67221276  0.79233907  0.62594546  1  0  0.110929  0  0.92522  0  0  0.124862  0  0.986637  0  0  0.127203  0  0.984738  0  0  0.129699  0.123299  0  0.987793  0
H  H14  1  0.35137945  0.77240708  0.99995607  1  0  0.116949  0  0.941564  0  0  0.120965  0  1.007591  0  0  0.125792  0  1.003104  0  0  0.110926  0.117863  0  1.009993  0
H  H15  1  0.64862181  0.22759139  0.00004432  1  0  0.116933  0  0.941593  0  0  0.120948  0  1.00762  0  0  0.125779  0  1.003131  0  0  0.11091  0.117839  0  1.010022  0
H  H16  1  0.07185550  0.22179863  0.16593365  1  0  0.102182  0  0.954686  0  0  0.112799  0  1.017581  0  0  0.116488  0  1.014531  0  0  0.111959  0.110197  0  1.019652  0
H  H17  1  0.76278696  0.77823407  0.16601760  1  0  0.102182  0  0.954265  0  0  0.112847  0  1.017153  0  0  0.116489  0  1.014153  0  0  0.112328  0.110246  0  1.019246  0
H  H18  1  0.92814712  0.77819983  0.83406693  1  0  0.102175  0  0.954679  0  0  0.112789  0  1.017575  0  0  0.116489  0  1.014511  0  0  0.111963  0.110185  0  1.019654  0
H  H19  1  0.23721735  0.22176559  0.83398243  1  0  0.102181  0  0.954294  0  0  0.112842  0  1.017198  0  0  0.116484  0  1.014196  0  0  0.112344  0.110255  0  1.019272  0
H  H20  1  0.09225062  0.36573829  0.99996578  1  0  0.094417  0  0.942506  0  0  0.107426  0  0.994943  0  0  0.110749  0  0.993254  0  0  0.107973  0.104967  0  0.996253  0
H  H21  1  0.90775201  0.63426017  0.00003480  1  0  0.094449  0  0.942512  0  0  0.10748  0  0.994918  0  0  0.110806  0  0.993227  0  0  0.107984  0.105023  0  0.996229  0
H  H22  1  0.15286962  0.56504791  0.23478493  1  0  0.424164  0  0.864271  0  0  0.396544  0  0.925632  0  0  0.405921  0  0.911854  0  0  0.303565  0.389971  0  0.935318  0
H  H23  1  0.61256888  0.43516356  0.23489172  1  0  0.425453  0  0.862774  0  0  0.397876  0  0.923703  0  0  0.407246  0  0.909935  0  0  0.304577  0.391313  0  0.933365  0
H  H24  1  0.84713058  0.43495056  0.76521186  1  0  0.424132  0  0.864288  0  0  0.396502  0  0.925693  0  0  0.40588  0  0.911915  0  0  0.303535  0.38993  0  0.935378  0
H  H25  1  0.38742998  0.56483611  0.76510753  1  0  0.425483  0  0.862727  0  0  0.397903  0  0.923664  0  0  0.407273  0  0.909896  0  0  0.304581  0.391338  0  0.933329  0
H  H26  1  0.25826908  0.38192080  0.24018373  1  0  0.426056  0  0.877274  0  0  0.395111  0  0.941424  0  0  0.405521  0  0.926074  0  0  0.295099  0.387829  0  0.952103  0
H  H27  1  0.50151461  0.61823449  0.24019554  1  0  0.425848  0  0.877601  0  0  0.394912  0  0.941561  0  0  0.405349  0  0.92621  0  0  0.294911  0.387607  0  0.952255  0
H  H28  1  0.74173427  0.61807646  0.75981346  1  0  0.426083  0  0.877206  0  0  0.395141  0  0.941352  0  0  0.40555  0  0.926003  0  0  0.295106  0.387855  0  0.952038  0
H  H29  1  0.49848773  0.38176518  0.75980334  1  0  0.425877  0  0.877557  0  0  0.394905  0  0.941554  0  0  0.405342  0  0.926203  0  0  0.294922  0.387599  0  0.952249  0
C  C30  1  0.98272233  0.75948643  0.40451968  1  0  0.682867  0  3.873377  0  0  0.633716  0  4.17876  0  0  0.66668  0  4.170967  0  0  0.216702  0.611124  0  4.183452  0
C  C31  1  0.61324742  0.24060791  0.40445744  1  0  0.680256  0  3.873876  0  0  0.633236  0  4.17609  0  0  0.666206  0  4.168349  0  0  0.218428  0.610655  0  4.18079  0
C  C32  1  0.01727761  0.24051443  0.59547806  1  0  0.6829  0  3.873362  0  0  0.633791  0  4.178726  0  0  0.666756  0  4.170928  0  0  0.216719  0.611199  0  4.183416  0
C  C33  1  0.38675324  0.75939055  0.59554200  1  0  0.680157  0  3.873996  0  0  0.633105  0  4.176255  0  0  0.666076  0  4.168516  0  0  0.218365  0.61053  0  4.180951  0
C  C34  1  0.13469152  0.86832489  0.37695158  1  0  -0.098775  0  3.674919  0  0  -0.16126  0  3.937638  0  0  -0.159502  0  3.942053  0  0  -0.053541  -0.162205  0  3.934699  0
C  C35  1  0.48874421  0.13178274  0.37698239  1  0  -0.09804  0  3.673558  0  0  -0.161789  0  3.936672  0  0  -0.160117  0  3.941137  0  0  -0.055942  -0.162739  0  3.93379  0
C  C36  1  0.86530633  0.13167717  0.62304936  1  0  -0.098594  0  3.674884  0  0  -0.161149  0  3.937661  0  0  -0.15939  0  3.942074  0  0  -0.053536  -0.162092  0  3.934722  0
C  C37  1  0.51125228  0.86821932  0.62301836  1  0  -0.097991  0  3.673615  0  0  -0.161701  0  3.936678  0  0  -0.160025  0  3.94114  0  0  -0.055949  -0.162668  0  3.933809  0
C  C38  1  0.21327887  0.88500825  0.19002574  1  0  0.548748  0  3.821651  0  0  0.494155  0  4.114861  0  0  0.52386  0  4.114545  0  0  0.244443  0.474341  0  4.114768  0
C  C39  1  0.59688974  0.11502879  0.19009680  1  0  0.550717  0  3.82249  0  0  0.494614  0  4.117431  0  0  0.524392  0  4.116989  0  0  0.243932  0.474812  0  4.117298  0
C  C40  1  0.78672418  0.11498902  0.80997484  1  0  0.548718  0  3.821605  0  0  0.494128  0  4.114801  0  0  0.523831  0  4.114495  0  0  0.244398  0.474308  0  4.114714  0
C  C41  1  0.40310962  0.88497327  0.80990265  1  0  0.550748  0  3.822445  0  0  0.49458  0  4.117467  0  0  0.524356  0  4.11703  0  0  0.243923  0.474771  0  4.117345  0
C  C42  1  0.20880799  0.98463780  0.09428105  1  0  -0.079794  0  3.780888  0  0  -0.052743  0  4.017927  0  0  -0.063049  0  4.043433  0  0  -0.016802  -0.046665  0  4.001777  0
C  C43  1  0.69717325  0.01539441  0.09436312  1  0  -0.078786  0  3.778849  0  0  -0.051316  0  4.016293  0  0  -0.061693  0  4.041838  0  0  -0.015801  -0.045179  0  4.000067  0
C  C44  1  0.79119149  0.01536187  0.90571914  1  0  -0.079821  0  3.780833  0  0  -0.05275  0  4.017844  0  0  -0.063065  0  4.043368  0  0  -0.016787  -0.046675  0  4.001697  0
C  C45  1  0.30282666  0.98460406  0.90563708  1  0  -0.078836  0  3.778953  0  0  -0.05133  0  4.016393  0  0  -0.061708  0  4.041941  0  0  -0.015794  -0.04519  0  4.000173  0
C  C46  1  0.29172803  0.90242188  0.99996095  1  0  -0.050075  0  3.691285  0  0  -0.086709  0  3.936594  0  0  -0.083606  0  3.956493  0  0  -0.066782  -0.087942  0  3.922811  0
C  C47  1  0.70827205  0.09757779  0.00004019  1  0  -0.050035  0  3.691217  0  0  -0.086667  0  3.936507  0  0  -0.083565  0  3.956408  0  0  -0.066747  -0.087884  0  3.922706  0
C  C48  1  0.13549586  0.15282309  0.09409062  1  0  -0.044478  0  3.67763  0  0  -0.079085  0  3.935596  0  0  -0.07562  0  3.953293  0  0  -0.071234  -0.081068  0  3.924074  0
C  C49  1  0.77073680  0.84720186  0.09416121  1  0  -0.045793  0  3.677931  0  0  -0.08058  0  3.936144  0  0  -0.077095  0  3.953968  0  0  -0.07298  -0.082583  0  3.924611  0
C  C50  1  0.86450770  0.84717657  0.90591016  1  0  -0.044405  0  3.677563  0  0  -0.079014  0  3.935526  0  0  -0.075555  0  3.953224  0  0  -0.071238  -0.080997  0  3.924016  0
C  C51  1  0.22926751  0.15279780  0.90583882  1  0  -0.045776  0  3.677924  0  0  -0.080565  0  3.936133  0  0  -0.07708  0  3.953961  0  0  -0.072978  -0.082574  0  3.924587  0
C  C52  1  0.14645466  0.23524092  0.99996497  1  0  -0.054164  0  3.722847  0  0  -0.064398  0  3.979944  0  0  -0.069174  0  3.999565  0  0  -0.080865  -0.061218  0  3.966813  0
C  C53  1  0.85354782  0.76475755  0.00003731  1  0  -0.054265  0  3.722941  0  0  -0.064521  0  3.980039  0  0  -0.069297  0  3.999665  0  0  -0.08088  -0.061337  0  3.966907  0
N  N54  1  0.12545443  0.95858664  0.28247355  1  0  -0.409128  0  3.361428  0  0  -0.354738  0  3.621047  0  0  -0.376431  0  3.630171  0  0  -0.424403  -0.340259  0  3.614349  0
N  N55  1  0.59244130  0.04149823  0.28253306  1  0  -0.411413  0  3.362128  0  0  -0.355268  0  3.621256  0  0  -0.376967  0  3.630372  0  0  -0.423171  -0.340848  0  3.614635  0
N  N56  1  0.87454565  0.04141303  0.71752759  1  0  -0.409155  0  3.361408  0  0  -0.354733  0  3.621027  0  0  -0.376422  0  3.630147  0  0  -0.424364  -0.340251  0  3.61433  0
N  N57  1  0.40755333  0.95850145  0.71746731  1  0  -0.411412  0  3.362156  0  0  -0.355274  0  3.621326  0  0  -0.376975  0  3.630442  0  0  -0.423165  -0.340851  0  3.614711  0
O  O58  1  0.00484388  0.66055537  0.47862498  1  0  -0.74122  0  2.011686  0  0  -0.682704  0  2.269943  0  0  -0.711088  0  2.260099  0  0  -0.375214  -0.662521  0  2.276269  0
O  O59  1  0.51704123  0.33936486  0.47868426  1  0  -0.739919  0  2.013753  0  0  -0.682273  0  2.271645  0  0  -0.710693  0  2.261828  0  0  -0.375846  -0.662086  0  2.27794  0
O  O60  1  0.99515438  0.33944430  0.52137332  1  0  -0.741239  0  2.011751  0  0  -0.682725  0  2.269994  0  0  -0.711108  0  2.260146  0  0  -0.375204  -0.662547  0  2.276323  0
O  O61  1  0.48295889  0.66063720  0.52131443  1  0  -0.739817  0  2.013759  0  0  -0.682165  0  2.271677  0  0  -0.710585  0  2.261862  0  0  -0.375785  -0.66198  0  2.277969  0
O  O62  1  0.84327819  0.76783161  0.35268705  1  0  -0.669888  0  1.990455  0  0  -0.607129  0  2.222021  0  0  -0.633919  0  2.214377  0  0  -0.343849  -0.587956  0  2.226397  0
O  O63  1  0.80449850  0.23244101  0.35248329  1  0  -0.667951  0  1.989826  0  0  -0.606395  0  2.220956  0  0  -0.633193  0  2.213347  0  0  -0.343386  -0.587291  0  2.225369  0
O  O64  1  0.15672502  0.23216566  0.64731184  1  0  -0.669903  0  1.990344  0  0  -0.607164  0  2.221907  0  0  -0.633956  0  2.21426  0  0  -0.343851  -0.587996  0  2.226291  0
O  O65  1  0.19549929  0.76755746  0.64751746  1  0  -0.66794  0  1.989823  0  0  -0.606386  0  2.220977  0  0  -0.633185  0  2.213371  0  0  -0.343372  -0.587282  0  2.225388  0
O  O66  1  0.30356575  0.73629244  0.18382592  1  0  -0.604121  0  1.988536  0  0  -0.540984  0  2.204585  0  0  -0.563136  0  2.195778  0  0  -0.29777  -0.526016  0  2.210347  0
O  O67  1  0.51261772  0.26372107  0.18391264  1  0  -0.605118  0  1.987832  0  0  -0.541667  0  2.204708  0  0  -0.563801  0  2.195813  0  0  -0.297673  -0.526662  0  2.210421  0
O  O68  1  0.69643526  0.26370842  0.81617541  1  0  -0.60408  0  1.988403  0  0  -0.540947  0  2.204459  0  0  -0.563098  0  2.195653  0  0  -0.297741  -0.525979  0  2.21022  0
O  O69  1  0.48738523  0.73627859  0.81608719  1  0  -0.60513  0  1.987735  0  0  -0.541653  0  2.204631  0  0  -0.563784  0  2.195739  0  0  -0.297681  -0.526644  0  2.210352  0
O  O70  1  0.12030830  0.46528067  0.26438117  1  0  -0.878454  0  1.789959  0  0  -0.826855  0  1.965029  0  0  -0.845988  0  1.934571  0  0  -0.618152  -0.813246  0  1.986237  0
O  O71  1  0.61525839  0.53499833  0.26446137  1  0  -0.879404  0  1.788849  0  0  -0.827749  0  1.964188  0  0  -0.846915  0  1.933623  0  0  -0.618625  -0.814117  0  1.985465  0
O  O72  1  0.87969368  0.53471660  0.73561582  1  0  -0.878465  0  1.789929  0  0  -0.826866  0  1.965024  0  0  -0.846001  0  1.934565  0  0  -0.618136  -0.813243  0  1.986199  0
O  O73  1  0.38474377  0.46500013  0.73553657  1  0  -0.879473  0  1.788759  0  0  -0.827774  0  1.964182  0  0  -0.846943  0  1.933616  0  0  -0.618646  -0.814146  0  1.985462  0
