# generated using pymatgen
data_CuH13C14(NO)4
_symmetry_space_group_name_H-M   'P 1'
_cell_length_a   4.63396560
_cell_length_b   14.31369537
_cell_length_c   24.88496413
_cell_angle_alpha   89.99982000
_cell_angle_beta   91.14310901
_cell_angle_gamma   90.00129336
_symmetry_Int_Tables_number   1
_chemical_formula_structural   CuH13C14(NO)4
_chemical_formula_sum   'Cu4 H52 C56 N16 O16'
_cell_volume   1650.27057101
_cell_formula_units_Z   4
loop_
 _symmetry_equiv_pos_site_id
 _symmetry_equiv_pos_as_xyz
  1  'x, y, z'
loop_
 _atom_site_type_symbol
 _atom_site_label
 _atom_site_symmetry_multiplicity
 _atom_site_fract_x
 _atom_site_fract_y
 _atom_site_fract_z
 _atom_site_occupancy
 _atom_site_pbe_bader_charge
 _atom_site_pbe_bader_spin_density
 _atom_site_pbe_cm5_charge
 _atom_site_pbe_ddec_charge
 _atom_site_pbe_ddec_spin_density
 _atom_site_pbe_ddec_sum_bond_order
 _atom_site_pbe_magmom
Cu  Cu0  1  0.77479982  0.42080589  0.85385764  1  1.085998  -0.578982  0.742375  0.789257  -0.76493  2.275277  -0.578
Cu  Cu1  1  0.72526019  0.92079456  0.64614332  1  1.085955  0.578988  0.742528  0.789423  0.764898  2.27527  0.578
Cu  Cu2  1  0.22521715  0.57920795  0.14614655  1  1.085837  0.578999  0.742487  0.789378  0.764938  2.2754  0.578
Cu  Cu3  1  0.27474605  0.07919971  0.35385721  1  1.086112  -0.578984  0.74249  0.789313  -0.764895  2.275342  -0.578
H  H4  1  0.56331198  0.60674537  0.79515820  1  0.166784  -0.001956  0.127988  0.116984  -0.000932  0.99714  -0.001
H  H5  1  0.93673937  0.10673845  0.70483928  1  0.166755  0.001955  0.128011  0.116994  0.000931  0.997157  0.001
H  H6  1  0.43671167  0.39325728  0.20483477  1  0.166701  0.001956  0.12799  0.116982  0.000932  0.997002  0.001
H  H7  1  0.06321076  0.89326700  0.29516060  1  0.166047  -0.001956  0.128001  0.11703  -0.000932  0.997118  -0.001
H  H8  1  0.59126742  0.65697316  0.69896701  1  0.163514  -0.00093  0.122058  0.111697  -0.000246  1.032362  -0.001
H  H9  1  0.90873992  0.15697668  0.80102938  1  0.16352  0.000931  0.122045  0.111715  0.000247  1.032317  0.001
H  H10  1  0.40874109  0.34302461  0.30102750  1  0.162852  0.000931  0.122047  0.111715  0.000246  1.03237  0.001
H  H11  1  0.09120586  0.84302178  0.19897169  1  0.16274  -0.000931  0.122096  0.111714  -0.000246  1.032198  -0.001
H  H12  1  0.96833311  0.40131810  0.66012395  1  0.097799  -0.001666  0.11638  0.089423  -0.000977  0.999885  -0.001
H  H13  1  0.53171477  0.90130708  0.83987659  1  0.097596  0.001667  0.116345  0.089489  0.000977  0.999889  0.001
H  H14  1  0.03167310  0.59867896  0.33987859  1  0.097817  0.001667  0.116357  0.089472  0.000977  0.999728  0.001
H  H15  1  0.46833675  0.09867392  0.16012614  1  0.09787  -0.001666  0.116347  0.089461  -0.000977  0.999873  -0.001
H  H16  1  0.33461693  0.27476789  0.86071211  1  0.139636  0.000403  0.106636  0.16697  0.000305  1.021742  0.0
H  H17  1  0.16540402  0.77475755  0.63928901  1  0.139099  -0.000402  0.10665  0.167019  -0.000305  1.021859  0.0
H  H18  1  0.66541089  0.72523896  0.13928811  1  0.139165  -0.000403  0.106687  0.167032  -0.000305  1.021681  0.0
H  H19  1  0.83461520  0.22523951  0.36070997  1  0.139267  0.000403  0.106632  0.166972  0.000305  1.021793  0.0
H  H20  1  0.20242220  0.20403709  0.91295231  1  0.05735  0.000193  0.094884  0.140495  8.4e-05  1.019256  0.0
H  H21  1  0.29760463  0.70403291  0.58705057  1  0.057293  -0.000192  0.094894  0.140557  -8.4e-05  1.0192  0.0
H  H22  1  0.79758407  0.79597115  0.08704661  1  0.057362  -0.000192  0.094903  0.14048  -8.4e-05  1.019268  0.0
H  H23  1  0.70241026  0.29596625  0.41294879  1  0.057454  0.000192  0.094928  0.140533  8.4e-05  1.01922  0.0
H  H24  1  0.48959428  0.16292798  0.87309426  1  0.054236  0.000268  0.096408  0.143445  0.000115  1.032504  0.0
H  H25  1  0.01040818  0.66292566  0.62690618  1  0.05421  -0.000268  0.096396  0.143464  -0.000115  1.032582  0.0
H  H26  1  0.51040334  0.83708026  0.12690543  1  0.05415  -0.000268  0.096432  0.143454  -0.000115  1.032476  0.0
H  H27  1  0.98960890  0.33708049  0.37309198  1  0.054297  0.000268  0.096451  0.143471  0.000115  1.032398  0.0
H  H28  1  0.07078344  0.42528889  0.96902310  1  0.127139  -0.00096  0.123552  0.121926  -0.000429  0.999424  -0.001
H  H29  1  0.42924783  0.92529228  0.53098181  1  0.126711  0.00096  0.123552  0.121972  0.000429  0.999192  0.001
H  H30  1  0.92920116  0.57470538  0.03098055  1  0.127093  0.000959  0.123506  0.121834  0.000429  0.999222  0.001
H  H31  1  0.57077564  0.07471178  0.46902040  1  0.126566  -0.000961  0.123523  0.121854  -0.000429  0.999263  -0.001
H  H32  1  0.97138276  0.28460711  0.04337422  1  0.095064  -0.000667  0.1257  0.129754  -0.000264  0.995844  0.0
H  H33  1  0.52861934  0.78460521  0.45662565  1  0.094884  0.000667  0.125713  0.129787  0.000264  0.995765  0.0
H  H34  1  0.02859756  0.71539485  0.95662700  1  0.094862  0.000666  0.125761  0.129906  0.000263  0.9959  0.0
H  H35  1  0.47137182  0.21539396  0.54337320  1  0.094818  -0.000666  0.125713  0.129771  -0.000264  0.995775  0.0
H  H36  1  0.37540591  0.13047163  0.98318196  1  0.083413  -3.1e-05  0.112927  0.097417  -1.5e-05  1.026804  0.0
H  H37  1  0.12462022  0.63047983  0.51681744  1  0.083506  3.1e-05  0.112935  0.097386  1.5e-05  1.026766  0.0
H  H38  1  0.62461768  0.86953033  0.01681422  1  0.083918  3e-05  0.112911  0.097378  1.5e-05  1.02649  0.0
H  H39  1  0.87540325  0.36951724  0.48318517  1  0.083568  -3.1e-05  0.112913  0.097331  -1.5e-05  1.026851  0.0
H  H40  1  0.52009833  0.16584505  0.04634520  1  0.034442  -0.000215  0.113909  0.097711  -0.00012  0.966873  0.0
H  H41  1  0.97993007  0.66584998  0.45365662  1  0.034547  0.000215  0.113887  0.097636  0.000121  0.966739  0.0
H  H42  1  0.47991876  0.83415411  0.95365176  1  0.034469  0.000215  0.113896  0.097637  0.000121  0.966674  0.0
H  H43  1  0.02007399  0.33414988  0.54634511  1  0.034406  -0.000215  0.113895  0.09765  -0.000121  0.966718  0.0
H  H44  1  0.86494382  0.06504624  0.08854089  1  0.050255  -2e-05  0.100592  0.100128  -1.4e-05  1.009243  0.0
H  H45  1  0.63510572  0.56504118  0.41145919  1  0.050273  2e-05  0.10059  0.100189  1.5e-05  1.009126  0.0
H  H46  1  0.13507970  0.93497109  0.91145931  1  0.050297  2e-05  0.100571  0.100146  1.5e-05  1.009292  0.0
H  H47  1  0.36489620  0.43496288  0.58854132  1  0.050125  -2e-05  0.100551  0.100113  -1.5e-05  1.009278  0.0
H  H48  1  0.77688331  0.05982068  0.91519154  1  0.124359  4e-06  0.097349  0.091854  1e-06  1.08807  0.0
H  H49  1  0.72311723  0.55981317  0.58481022  1  0.124322  -4e-06  0.097334  0.091871  -1e-06  1.088046  0.0
H  H50  1  0.22311864  0.94018407  0.08480736  1  0.124447  -4e-06  0.097376  0.091923  -1e-06  1.087966  0.0
H  H51  1  0.27689113  0.44018530  0.41519192  1  0.124342  4e-06  0.097364  0.0919  1e-06  1.087993  0.0
H  H52  1  0.22929720  0.58779485  0.90671618  1  0.069407  -0.011381  0.106056  0.023339  -0.006203  0.993591  -0.007
H  H53  1  0.27083375  0.08778592  0.59329219  1  0.069655  0.011381  0.106069  0.023245  0.006204  0.993716  0.007
H  H54  1  0.77070035  0.41220920  0.09328712  1  0.069588  0.011385  0.106062  0.023356  0.006206  0.993485  0.007
H  H55  1  0.72917035  0.91221184  0.40670712  1  0.069592  -0.011383  0.106077  0.023205  -0.006204  0.99377  -0.007
C  C56  1  0.65018683  0.56017569  0.76493246  1  0.49888  0.001204  0.067822  0.074834  -1.4e-05  3.85605  0.0
C  C57  1  0.84983110  0.06017355  0.73506416  1  0.498306  -0.001205  0.067798  0.074711  1.4e-05  3.855921  0.0
C  C58  1  0.34980009  0.43982766  0.23506236  1  0.498629  -0.001205  0.067824  0.074783  1.4e-05  3.856029  0.0
C  C59  1  0.15014708  0.93982282  0.26493625  1  0.499091  0.001205  0.067881  0.074757  -1.4e-05  3.856142  0.0
C  C60  1  0.66727124  0.58785289  0.71120514  1  0.495923  -0.004996  0.06021  0.057742  -0.003574  3.879082  -0.004
C  C61  1  0.83272270  0.08784963  0.78879132  1  0.49609  0.004996  0.060244  0.057822  0.003574  3.878959  0.004
C  C62  1  0.33273512  0.41214837  0.28878855  1  0.496695  0.004996  0.060231  0.057754  0.003574  3.879227  0.004
C  C63  1  0.16722523  0.91214464  0.21121056  1  0.496594  -0.004994  0.060034  0.057756  -0.003573  3.879071  -0.004
C  C64  1  0.87524117  0.44844527  0.68965763  1  0.491716  -0.003406  0.057241  0.033272  -0.002408  3.948991  -0.002
C  C65  1  0.62477770  0.94843230  0.81033666  1  0.491978  0.003407  0.057156  0.03309  0.002409  3.949153  0.002
C  C66  1  0.12475865  0.55155180  0.31033965  1  0.491646  0.003406  0.057212  0.033172  0.002408  3.948786  0.002
C  C67  1  0.37523930  0.05155219  0.18966552  1  0.49186  -0.003407  0.057096  0.032979  -0.002409  3.949402  -0.002
C  C68  1  0.85669107  0.41894185  0.74278625  1  0.506752  0.001545  0.116159  0.064463  0.000796  3.954485  0.001
C  C69  1  0.64334948  0.91892651  0.75720940  1  0.506277  -0.001546  0.116139  0.064216  -0.000796  3.954483  -0.001
C  C70  1  0.14328930  0.58106780  0.25721255  1  0.506601  -0.001546  0.116035  0.064336  -0.000796  3.954004  -0.001
C  C71  1  0.35665670  0.08106078  0.24279435  1  0.506898  0.001548  0.116268  0.064427  0.000797  3.95456  0.001
C  C72  1  0.95417268  0.32405401  0.76189247  1  1.62914  0.000679  0.201017  0.534375  -0.000941  4.260597  0.001
C  C73  1  0.54580091  0.82404016  0.73810145  1  1.629468  -0.000679  0.201066  0.534574  0.000941  4.260513  -0.001
C  C74  1  0.04580341  0.67595633  0.23810431  1  1.628675  -0.000678  0.201048  0.534632  0.000943  4.260437  -0.001
C  C75  1  0.45420530  0.17594713  0.26190068  1  1.629194  0.000678  0.200978  0.534449  -0.000941  4.260641  0.001
C  C76  1  0.39885358  0.22531330  0.89224506  1  -0.045596  -0.000222  -0.236954  -0.471813  1.6e-05  3.929121  0.0
C  C77  1  0.10116400  0.72530896  0.60775413  1  -0.044933  0.000224  -0.236985  -0.472097  -1.6e-05  3.929411  0.0
C  C78  1  0.60114196  0.77469145  0.10775060  1  -0.044945  0.000224  -0.237051  -0.471957  -1.5e-05  3.92919  0.0
C  C79  1  0.89887460  0.27468811  0.39224774  1  -0.045342  -0.000223  -0.237061  -0.472026  1.6e-05  3.929301  0.0
C  C80  1  0.60846049  0.26976301  0.92995104  1  0.960873  0.000671  0.223834  0.346966  -0.000249  3.921477  0.0
C  C81  1  0.89158042  0.76976869  0.57005212  1  0.960936  -0.00067  0.223835  0.34721  0.000249  3.921364  0.0
C  C82  1  0.39153713  0.73023825  0.07004865  1  0.961299  -0.00067  0.223815  0.347113  0.000249  3.921576  0.0
C  C83  1  0.10843876  0.23023396  0.42994886  1  0.961006  0.000669  0.223824  0.347324  -0.00025  3.921538  0.0
C  C84  1  0.92830566  0.36543819  0.96642534  1  0.382603  -3.5e-05  -0.000282  -0.01851  -0.000399  4.012514  0.0
C  C85  1  0.57173323  0.86543963  0.53357723  1  0.383225  3.3e-05  -0.000277  -0.018432  0.000399  4.01208  0.0
C  C86  1  0.07168760  0.63456796  0.03357674  1  0.382448  3.4e-05  -0.000171  -0.018214  0.000398  4.012006  0.0
C  C87  1  0.42829030  0.13456722  0.46642176  1  0.38358  -3.3e-05  -0.000192  -0.018185  -0.000399  4.012147  0.0
C  C88  1  0.88220741  0.29629430  0.00334116  1  0.336466  -0.002575  -0.006425  -0.122618  -0.001731  3.962843  -0.002
C  C89  1  0.61780844  0.79629353  0.49665915  1  0.336212  0.002574  -0.006448  -0.122688  0.00173  3.962521  0.002
C  C90  1  0.11779455  0.70370836  0.99665693  1  0.336611  0.002573  -0.006421  -0.122734  0.00173  3.962945  0.002
C  C91  1  0.38218706  0.20371402  0.50333852  1  0.335931  -0.002575  -0.006424  -0.122615  -0.001731  3.962496  -0.002
C  C92  1  0.57531023  0.15057119  0.00454686  1  0.330149  -0.001203  -0.046425  -0.106849  -0.000943  3.909421  -0.001
C  C93  1  0.92467388  0.65057129  0.49545840  1  0.329495  0.001204  -0.046389  -0.106643  0.000944  3.909197  0.001
C  C94  1  0.42464415  0.84942728  0.99545665  1  0.32902  0.001203  -0.046342  -0.106567  0.000943  3.909069  0.001
C  C95  1  0.07532587  0.34942089  0.50454250  1  0.330144  -0.001203  -0.046341  -0.106522  -0.000943  3.90936  -0.001
C  C96  1  0.79448187  0.07251459  0.00239667  1  -0.064182  0.000234  -0.016054  0.078341  0.000146  3.98578  0.0
C  C97  1  0.70553147  0.57250608  0.49760444  1  -0.063741  -0.000233  -0.01608  0.078348  -0.000146  3.985779  0.0
C  C98  1  0.20553303  0.92749645  0.99760228  1  -0.063092  -0.000233  -0.016072  0.078203  -0.000145  3.985943  0.0
C  C99  1  0.29444453  0.42748959  0.50239716  1  -0.064281  0.000233  -0.016071  0.078415  0.000146  3.985831  0.0
C  C100  1  0.92299512  0.03676945  0.04941314  1  -0.008772  -0.000265  -0.090974  -0.133247  -0.000188  3.987377  0.0
C  C101  1  0.57704387  0.53677143  0.45058493  1  -0.00893  0.000265  -0.090935  -0.133246  0.000188  3.987082  0.0
C  C102  1  0.07702626  0.96323251  0.95058584  1  -0.008996  0.000265  -0.090989  -0.133266  0.000188  3.987339  0.0
C  C103  1  0.42295378  0.46322285  0.54941314  1  -0.008963  -0.000265  -0.091028  -0.133391  -0.000188  3.987432  0.0
C  C104  1  0.87360815  0.03492100  0.95287763  1  -0.085462  -0.000232  -0.09531  -0.131256  -0.000147  3.980651  0.0
C  C105  1  0.62634969  0.53492626  0.54712239  1  -0.08552  0.000232  -0.095184  -0.131189  0.000147  3.980411  0.0
C  C106  1  0.12641326  0.96507956  0.04711975  1  -0.086444  0.000232  -0.095311  -0.131237  0.000147  3.980698  0.0
C  C107  1  0.37362846  0.46507081  0.45287962  1  -0.085408  -0.000232  -0.095312  -0.131341  -0.000147  3.980459  0.0
C  C108  1  0.35917166  0.53200127  0.88787393  1  1.531496  0.002839  0.12641  0.470295  0.0014  4.255922  0.005
C  C109  1  0.14091881  0.03199896  0.61213075  1  1.530944  -0.002841  0.126326  0.470176  -0.001401  4.256167  -0.005
C  C110  1  0.64081292  0.46800209  0.11213052  1  1.531607  -0.00284  0.126498  0.470374  -0.001402  4.255591  -0.005
C  C111  1  0.85907884  0.96799811  0.38786733  1  1.531006  0.002841  0.126381  0.470358  0.0014  4.256211  0.005
N  N112  1  0.78153983  0.53259026  0.67359900  1  -1.190247  0.002687  -0.292116  -0.209885  0.001836  3.341754  0.002
N  N113  1  0.71848264  0.03258176  0.82639929  1  -1.190126  -0.00269  -0.292085  -0.209931  -0.001838  3.341473  -0.002
N  N114  1  0.21847073  0.46740402  0.32640114  1  -1.190283  -0.002691  -0.29211  -0.209925  -0.001839  3.341525  -0.002
N  N115  1  0.28151921  0.96740413  0.17360523  1  -1.190349  0.002688  -0.291974  -0.209824  0.001837  3.341806  0.002
N  N116  1  0.74533323  0.47572681  0.78022058  1  -1.188443  -0.074467  -0.323335  -0.208201  -0.051633  3.613336  -0.065
N  N117  1  0.75468751  0.97571739  0.71977447  1  -1.187823  0.074489  -0.323451  -0.208024  0.051648  3.613183  0.065
N  N118  1  0.25465583  0.52428423  0.21977505  1  -1.187598  0.0745  -0.323395  -0.208177  0.051654  3.612988  0.065
N  N119  1  0.24528847  0.02427549  0.28022793  1  -1.188009  -0.074481  -0.323497  -0.208132  -0.051643  3.613447  -0.065
N  N120  1  0.75850861  0.34811023  0.92128514  1  -1.178356  -0.07291  -0.373708  -0.334525  -0.050194  3.565199  -0.062
N  N121  1  0.74154201  0.84810847  0.57871912  1  -1.178679  0.072904  -0.37369  -0.334644  0.050189  3.565215  0.062
N  N122  1  0.24150835  0.65189872  0.07871945  1  -1.178503  0.072898  -0.373702  -0.334715  0.050187  3.56538  0.062
N  N123  1  0.25846854  0.15189139  0.42128182  1  -1.178606  -0.072897  -0.373751  -0.334758  -0.050184  3.565306  -0.062
N  N124  1  0.67986927  0.23671017  0.98005332  1  -1.218355  -0.002735  -0.244195  -0.020767  -0.001752  3.734608  -0.002
N  N125  1  0.82015638  0.73671491  0.51995104  1  -1.217913  0.002736  -0.244244  -0.020962  0.001753  3.734501  0.002
N  N126  1  0.32011970  0.76328829  0.01994714  1  -1.218476  0.002735  -0.244349  -0.021012  0.001753  3.735001  0.002
N  N127  1  0.17984555  0.26328775  0.48004866  1  -1.217974  -0.002735  -0.244276  -0.021206  -0.001752  3.73493  -0.002
O  O128  1  0.06989819  0.26939409  0.72997088  1  -1.148038  -0.026965  -0.324655  -0.525476  -0.017524  2.053873  -0.022
O  O129  1  0.43003841  0.76938220  0.77001903  1  -1.147962  0.02695  -0.324595  -0.525493  0.017514  2.054105  0.022
O  O130  1  0.93000448  0.73059948  0.27002759  1  -1.147778  0.026932  -0.324503  -0.525494  0.017502  2.054104  0.022
O  O131  1  0.56996354  0.23060090  0.22997947  1  -1.147922  -0.026957  -0.324512  -0.525397  -0.017519  2.053992  -0.022
O  O132  1  0.90238805  0.30761348  0.81201239  1  -1.10169  -0.102296  -0.318794  -0.526373  -0.067369  2.307649  -0.093
O  O133  1  0.59765561  0.80760657  0.68798308  1  -1.101917  0.102289  -0.318798  -0.52642  0.067363  2.307688  0.093
O  O134  1  0.09764202  0.69238638  0.18798302  1  -1.101744  0.102282  -0.318817  -0.526408  0.067357  2.307592  0.093
O  O135  1  0.40235495  0.19239329  0.31201746  1  -1.102022  -0.102298  -0.318826  -0.526413  -0.067367  2.307731  -0.093
O  O136  1  0.23345573  0.46537656  0.86429845  1  -1.179006  -0.003526  -0.334013  -0.562455  -0.002249  2.414448  -0.006
O  O137  1  0.26660863  0.96536141  0.63570050  1  -1.179386  0.003536  -0.334053  -0.562362  0.002256  2.414201  0.006
O  O138  1  0.76655270  0.53463378  0.13570008  1  -1.179255  0.003537  -0.334093  -0.562583  0.002256  2.41413  0.006
O  O139  1  0.73339770  0.03463217  0.36429480  1  -1.179433  -0.003534  -0.334122  -0.562459  -0.002255  2.414203  -0.006
O  O140  1  0.63380596  0.54030900  0.89170935  1  -1.104923  -0.112912  -0.336258  -0.50869  -0.074928  2.265893  -0.101
O  O141  1  0.86628809  0.04031396  0.60829889  1  -1.104307  0.112906  -0.33619  -0.508653  0.074924  2.266025  0.101
O  O142  1  0.36618290  0.45969087  0.10829713  1  -1.104933  0.112909  -0.336311  -0.508739  0.074924  2.265919  0.101
O  O143  1  0.13370522  0.95968101  0.39169998  1  -1.104283  -0.112911  -0.336183  -0.508669  -0.074925  2.266126  -0.101
