# generated using pymatgen
data_Zn4H6C24S4O15F2
_symmetry_space_group_name_H-M   'P 1'
_cell_length_a   19.67704207
_cell_length_b   19.73700115
_cell_length_c   33.40316144
_cell_angle_alpha   78.92889299
_cell_angle_beta   79.10384154
_cell_angle_gamma   63.90193399
_symmetry_Int_Tables_number   1
_chemical_formula_structural   Zn4H6C24S4O15F2
_chemical_formula_sum   'Zn16 H24 C96 S16 O60 F8'
_cell_volume   11352.43569458
_cell_formula_units_Z   4
loop_
 _symmetry_equiv_pos_site_id
 _symmetry_equiv_pos_as_xyz
  1  'x, y, z'
loop_
 _atom_site_type_symbol
 _atom_site_label
 _atom_site_symmetry_multiplicity
 _atom_site_fract_x
 _atom_site_fract_y
 _atom_site_fract_z
 _atom_site_occupancy
 _atom_site_pbe_bader_charge
 _atom_site_pbe_bader_spin_density
 _atom_site_pbe_cm5_charge
 _atom_site_pbe_ddec_charge
 _atom_site_pbe_ddec_spin_density
 _atom_site_pbe_ddec_sum_bond_order
 _atom_site_pbe_magmom
Zn  Zn0  1  0.05632398  0.40054991  0.47850954  1  1.317752  0  0.668965  0.969874  0  2.340618  0
Zn  Zn1  1  0.98436387  0.48346364  0.56054186  1  1.31142  0  0.673312  0.957013  0  2.379229  0
Zn  Zn2  1  0.05852173  0.56142062  0.48232180  1  1.320944  0  0.673587  0.962968  0  2.378617  0
Zn  Zn3  1  0.90037190  0.55518094  0.47963218  1  1.319524  0  0.674189  0.964892  0  2.375974  0
Zn  Zn4  1  0.69521060  0.34959329  0.27132472  1  1.319459  0  0.669868  0.968983  0  2.348255  0
Zn  Zn5  1  0.68907653  0.19024200  0.26661711  1  1.311249  0  0.670125  0.966327  0  2.356806  0
Zn  Zn6  1  0.76933333  0.26618138  0.18988921  1  1.322481  0  0.67455  0.964818  0  2.374728  0
Zn  Zn7  1  0.84823341  0.19412801  0.27198393  1  1.319459  0  0.675581  0.961718  0  2.384058  0
Zn  Zn8  1  0.26622304  0.76658920  0.68953900  1  1.309496  0  0.671389  0.964252  0  2.361555  0
Zn  Zn9  1  0.34901210  0.69581127  0.77187714  1  1.313168  0  0.67193  0.962634  0  2.368417  0
Zn  Zn10  1  0.19262475  0.84792411  0.77164724  1  1.320215  0  0.671691  0.967286  0  2.371831  0
Zn  Zn11  1  0.19146700  0.68809592  0.76764730  1  1.320585  0  0.675105  0.964828  0  2.375911  0
Zn  Zn12  1  0.56070423  0.06027203  0.98353942  1  1.313683  0  0.671405  0.966888  0  2.359682  0
Zn  Zn13  1  0.40096463  0.05490600  0.97780295  1  1.316  0  0.672169  0.964601  0  2.35943  0
Zn  Zn14  1  0.55564328  0.90179941  0.97868003  1  1.314822  0  0.673542  0.967836  0  2.380341  0
Zn  Zn15  1  0.48303664  0.98235610  0.06006840  1  1.32068  0  0.674515  0.967782  0  2.374646  0
H  H16  1  0.74886889  0.45233361  0.35046796  1  0.16082  0  0.12074  0.150943  0  0.974936  0
H  H17  1  0.00152783  0.29774144  0.39972322  1  0.161665  0  0.121905  0.152781  0  0.972975  0
H  H18  1  0.20074284  0.70060502  0.59871876  1  0.119301  0  0.120545  0.150117  0  0.975213  0
H  H19  1  0.04972333  0.54988139  0.65094288  1  0.139386  0  0.122383  0.152924  0  0.972701  0
H  H20  1  0.46255663  0.24085567  0.34125783  1  0.107441  0  0.121751  0.147332  0  0.96699  0
H  H21  1  0.47978369  0.70241202  0.60129306  1  0.121699  0  0.122563  0.148058  0  0.966328  0
H  H22  1  0.20225004  0.98006824  0.60153753  1  0.108768  0  0.122464  0.147634  0  0.966144  0
H  H23  1  0.94802652  0.96990372  0.34814941  1  0.121788  0  0.124037  0.150106  0  0.964048  0
H  H24  1  0.65125651  0.15140857  0.04953093  1  0.150121  0  0.120605  0.150395  0  0.975672  0
H  H25  1  0.59879027  0.09871166  0.20052112  1  0.153286  0  0.12185  0.15234  0  0.973974  0
H  H26  1  0.54798419  0.76932972  0.14853783  1  0.108007  0  0.1239  0.149655  0  0.964669  0
H  H27  1  0.16226204  0.14161909  0.04059213  1  0.092567  0  0.122277  0.147492  0  0.967054  0
H  H28  1  0.29773113  0.00119576  0.89950919  1  0.160207  0  0.120865  0.151346  0  0.974747  0
H  H29  1  0.45143056  0.74951520  0.85037157  1  0.101457  0  0.122261  0.153275  0  0.973043  0
H  H30  1  0.30107397  0.28053618  0.90184130  1  0.109465  0  0.122875  0.148033  0  0.96598  0
H  H31  1  0.78765084  0.00939619  0.90865835  1  0.104113  0  0.122492  0.147738  0  0.966096  0
H  H32  1  0.32559701  0.54235237  0.39840873  1  0.59475  0  0.342509  0.367987  0  0.86468  0
H  H33  1  0.75640536  0.53982282  0.68449213  1  0.61899  0  0.340671  0.366017  0  0.868668  0
H  H34  1  0.04029668  0.25604829  0.68406725  1  0.589579  0  0.340732  0.365654  0  0.868081  0
H  H35  1  0.74296404  0.81533618  0.38808751  1  0.609561  0  0.341773  0.366993  0  0.867454  0
H  H36  1  0.71026479  0.49325864  0.06580533  1  0.62089  0  0.3423  0.367803  0  0.864922  0
H  H37  1  0.14822700  0.07617126  0.22077280  1  0.619597  0  0.343564  0.368865  0  0.864193  0
H  H38  1  0.50732014  0.43380587  0.86215738  1  0.596082  0  0.341348  0.366814  0  0.868513  0
H  H39  1  0.92410222  0.70743899  0.85162310  1  0.591153  0  0.342964  0.368496  0  0.863731  0
C  C40  1  0.06156253  0.31645706  0.56215237  1  1.570083  0  0.212359  0.621838  0  4.220043  0
C  C41  1  0.06909270  0.57005975  0.56877891  1  1.569654  0  0.229187  0.617916  0  4.170343  0
C  C42  1  0.18380477  0.44048139  0.43858247  1  1.582191  0  0.212334  0.621091  0  4.222126  0
C  C43  1  0.93607612  0.68429593  0.43874615  1  1.588828  0  0.211907  0.61948  0  4.224238  0
C  C44  1  0.93122293  0.43033090  0.43136061  1  1.601093  0  0.229439  0.620484  0  4.163636  0
C  C45  1  0.81676126  0.56086216  0.56264999  1  1.568793  0  0.213445  0.622116  0  4.221543  0
C  C46  1  0.56585464  0.31125575  0.31121931  1  1.542482  0  0.216738  0.609745  0  4.218245  0
C  C47  1  0.68144185  0.18051331  0.18092169  1  1.604332  0  0.230795  0.621855  0  4.161805  0
C  C48  1  0.68982873  0.43309681  0.18772713  1  1.571406  0  0.212628  0.622746  0  4.218253  0
C  C49  1  0.93566817  0.18713855  0.18964062  1  1.584877  0  0.213327  0.621786  0  4.221737  0
C  C50  1  0.81886730  0.31936758  0.31927082  1  1.58471  0  0.230651  0.622799  0  4.163667  0
C  C51  1  0.81084648  0.06586935  0.31140901  1  1.604823  0  0.217541  0.607432  0  4.226461  0
C  C52  1  0.43355346  0.68956770  0.68828997  1  1.549358  0  0.216786  0.608032  0  4.223868  0
C  C53  1  0.31829201  0.81997322  0.81899093  1  1.600564  0  0.229671  0.620023  0  4.163967  0
C  C54  1  0.18857272  0.93355614  0.68843545  1  1.567806  0  0.217444  0.607611  0  4.223967  0
C  C55  1  0.06575613  0.80920934  0.81150982  1  1.573205  0  0.212391  0.620052  0  4.223257  0
C  C56  1  0.18127288  0.68038388  0.68099566  1  1.572297  0  0.230274  0.624445  0  4.159582  0
C  C57  1  0.31419427  0.56571682  0.81161991  1  1.557995  0  0.212844  0.622626  0  4.221539  0
C  C58  1  0.43822481  0.18382996  0.93863207  1  1.542986  0  0.217928  0.61003  0  4.217346  0
C  C59  1  0.43100443  0.93061751  0.93083625  1  1.581836  0  0.23033  0.621605  0  4.163049  0
C  C60  1  0.68423119  0.93923872  0.93882922  1  1.56199  0  0.216719  0.608506  0  4.223609  0
C  C61  1  0.56136704  0.81590915  0.06163400  1  1.567988  0  0.217917  0.607789  0  4.225024  0
C  C62  1  0.56921024  0.06893058  0.06924657  1  1.558529  0  0.230787  0.623675  0  4.161711  0
C  C63  1  0.31571796  0.06127161  0.06091937  1  1.551937  0  0.216889  0.608165  0  4.22165  0
C  C64  1  0.90117814  0.40339776  0.40243302  1  -0.031442  0  -0.0135  -0.108225  0  3.947545  0
C  C65  1  0.84913981  0.34653919  0.34782804  1  0.059594  0  -0.016538  -0.114553  0  3.959738  0
C  C66  1  0.82981564  0.44558303  0.38770687  1  0.478509  0  0.106351  0.269598  0  4.041783  0
C  C67  1  0.92057138  0.30441812  0.36248665  1  0.482003  0  0.105483  0.269686  0  4.039126  0
C  C68  1  0.80443778  0.41805330  0.36116264  1  -0.009414  0  -0.087515  -0.201782  0  3.976193  0
C  C69  1  0.94595210  0.33198448  0.38901367  1  0.056663  0  -0.086964  -0.201855  0  3.971817  0
C  C70  1  0.09871643  0.59907198  0.59680973  1  0.077859  0  -0.013063  -0.107064  0  3.952507  0
C  C71  1  0.15177086  0.65148129  0.65295664  1  0.065634  0  -0.016782  -0.11626  0  3.960863  0
C  C72  1  0.14178390  0.64194221  0.58311776  1  0.462893  0  0.105675  0.267137  0  4.044525  0
C  C73  1  0.10868927  0.60857379  0.66663477  1  0.483502  0  0.105579  0.270344  0  4.042348  0
C  C74  1  0.16760831  0.66752528  0.61039685  1  0.004993  0  -0.087698  -0.200209  0  3.974008  0
C  C75  1  0.08286653  0.58301220  0.63935614  1  -0.005573  0  -0.08653  -0.200751  0  3.97186  0
C  C76  1  0.30434735  0.45573747  0.40103578  1  0.578844  0  0.083956  0.274334  0  4.099623  0
C  C77  1  0.44581127  0.29750387  0.34907621  1  0.085802  0  -0.086146  -0.128144  0  3.953931  0
C  C78  1  0.25840790  0.41627502  0.41392285  1  -0.093158  0  -0.039532  -0.238644  0  3.931168  0
C  C79  1  0.49115906  0.33673219  0.33629204  1  -0.166775  0  -0.02376  -0.111744  0  3.97254  0
C  C80  1  0.37775336  0.34054766  0.37267758  1  -0.154824  0  -0.022444  0.009046  0  4.09883  0
C  C81  1  0.37267973  0.41204418  0.37740312  1  -0.188538  0  -0.039411  -0.157098  0  4.11154  0
C  C82  1  0.72652698  0.57555795  0.63040724  1  0.583637  0  0.082861  0.271805  0  4.105167  0
C  C83  1  0.52440428  0.67347931  0.62139994  1  0.013716  0  -0.084674  -0.126614  0  3.953308  0
C  C84  1  0.74263355  0.58518589  0.58770488  1  -0.146403  0  -0.038753  -0.238272  0  3.937042  0
C  C85  1  0.50861507  0.66398555  0.66371537  1  -0.075474  0  -0.024592  -0.111398  0  3.974703  0
C  C86  1  0.60369805  0.64134800  0.60909225  1  -0.172028  0  -0.022664  0.008007  0  4.101035  0
C  C87  1  0.64677365  0.60787723  0.64250835  1  -0.134369  0  -0.039993  -0.157233  0  4.118213  0
C  C88  1  0.07591772  0.22621876  0.63006151  1  0.608755  0  0.082984  0.273588  0  4.099219  0
C  C89  1  0.17345221  0.02454856  0.62153478  1  0.026922  0  -0.085382  -0.127358  0  3.953213  0
C  C90  1  0.08563565  0.24237228  0.58732212  1  -0.139407  0  -0.039498  -0.239433  0  3.932904  0
C  C91  1  0.16374521  0.00866167  0.66385302  1  -0.072086  0  -0.02381  -0.11043  0  3.973555  0
C  C92  1  0.14153232  0.10367787  0.60907545  1  -0.178089  0  -0.02232  0.010059  0  4.098992  0
C  C93  1  0.10807073  0.14660603  0.64236773  1  -0.138671  0  -0.039627  -0.158444  0  4.114417  0
C  C94  1  0.84183167  0.80065698  0.39724739  1  0.536308  0  0.083498  0.273596  0  4.104475  0
C  C95  1  0.90364523  0.94953990  0.35259112  1  0.076478  0  -0.08382  -0.126741  0  3.948276  0
C  C96  1  0.91076254  0.75846874  0.41375519  1  -0.093073  0  -0.038725  -0.238265  0  3.934617  0
C  C97  1  0.83521427  0.99114032  0.33632551  1  -0.198347  0  -0.024205  -0.110659  0  3.975037  0
C  C98  1  0.90643439  0.88001509  0.37477340  1  -0.176973  0  -0.022283  0.009534  0  4.098379  0
C  C99  1  0.83969384  0.87024195  0.37491824  1  -0.123649  0  -0.039686  -0.15723  0  4.117502  0
C  C100  1  0.65313505  0.15284560  0.15153042  1  0.009672  0  -0.013287  -0.107697  0  3.947648  0
C  C101  1  0.59700543  0.09706583  0.09852447  1  0.044438  0  -0.015816  -0.113946  0  3.958975  0
C  C102  1  0.66675367  0.16672341  0.10849013  1  0.499556  0  0.107356  0.27108  0  4.040962  0
C  C103  1  0.58326587  0.08334168  0.14156195  1  0.480907  0  0.106098  0.271117  0  4.039778  0
C  C104  1  0.63951482  0.13962920  0.08267073  1  0.004756  0  -0.087504  -0.201745  0  3.974196  0
C  C105  1  0.61050246  0.11044156  0.16737288  1  0.020771  0  -0.086221  -0.201322  0  3.971311  0
C  C106  1  0.67462467  0.52330613  0.11980060  1  0.636621  0  0.084659  0.274968  0  4.100859  0
C  C107  1  0.57675929  0.72492124  0.12850557  1  0.014948  0  -0.084092  -0.126076  0  3.950056  0
C  C108  1  0.66495808  0.50709095  0.16253968  1  -0.150041  0  -0.039571  -0.239856  0  3.933274  0
C  C109  1  0.58649524  0.74086152  0.08618730  1  -0.079967  0  -0.023872  -0.111889  0  3.975389  0
C  C110  1  0.60873307  0.64577861  0.14088056  1  -0.155441  0  -0.021553  0.010747  0  4.096755  0
C  C111  1  0.64228405  0.60293518  0.10755399  1  -0.178285  0  -0.0393  -0.157873  0  4.11273  0
C  C112  1  0.08241764  0.12331166  0.17850538  1  0.497457  0  0.084838  0.275419  0  4.102365  0
C  C113  1  0.17007273  0.12499579  0.07295438  1  0.118266  0  -0.085385  -0.128019  0  3.953394  0
C  C114  1  0.01030873  0.16233420  0.16514521  1  -0.104802  0  -0.038948  -0.238914  0  3.93473  0
C  C115  1  0.24143286  0.08616815  0.08623715  1  -0.199394  0  -0.024264  -0.112669  0  3.975337  0
C  C116  1  0.11197477  0.13873182  0.10643890  1  -0.138568  0  -0.021655  0.010349  0  4.099337  0
C  C117  1  0.14052148  0.10992225  0.14469177  1  -0.199087  0  -0.039089  -0.156944  0  4.11256  0
C  C118  1  0.34573091  0.84988446  0.84767074  1  0.04432  0  -0.012874  -0.107371  0  3.947608  0
C  C119  1  0.40352805  0.90085378  0.90221678  1  -0.026163  0  -0.015872  -0.113238  0  3.959354  0
C  C120  1  0.30375648  0.92097722  0.86229027  1  0.472473  0  0.107166  0.270835  0  4.040512  0
C  C121  1  0.44547972  0.82973022  0.88760490  1  0.478033  0  0.106216  0.270845  0  4.040527  0
C  C122  1  0.33178517  0.94585945  0.88882256  1  0.064813  0  -0.087182  -0.201804  0  3.975294  0
C  C123  1  0.41745273  0.80487001  0.86106851  1  0.065448  0  -0.086256  -0.201555  0  3.972487  0
C  C124  1  0.40836803  0.44885290  0.85290673  1  0.537874  0  0.08383  0.275197  0  4.101832  0
C  C125  1  0.34570225  0.30053297  0.89743488  1  0.076076  0  -0.084347  -0.125772  0  3.952044  0
C  C126  1  0.33952296  0.49128586  0.83634836  1  -0.058685  0  -0.038909  -0.239516  0  3.935996  0
C  C127  1  0.41398756  0.25864026  0.91378613  1  -0.142074  0  -0.02362  -0.111178  0  3.974812  0
C  C128  1  0.34336050  0.36987804  0.87521920  1  -0.177046  0  -0.022159  0.008606  0  4.098843  0
C  C129  1  0.41027896  0.37928984  0.87515276  1  -0.125043  0  -0.039405  -0.157058  0  4.116329  0
C  C130  1  0.94525284  0.79412503  0.84910140  1  0.580399  0  0.08492  0.275146  0  4.101524  0
C  C131  1  0.80420073  0.95276682  0.90086750  1  0.087107  0  -0.085185  -0.126824  0  3.953262  0
C  C132  1  0.99125422  0.83348555  0.83614453  1  -0.08552  0  -0.039177  -0.238416  0  3.935141  0
C  C133  1  0.75876295  0.91368593  0.91374377  1  -0.159649  0  -0.023981  -0.112286  0  3.976274  0
C  C134  1  0.87211545  0.90950166  0.87727906  1  -0.155272  0  -0.021911  0.009098  0  4.099313  0
C  C135  1  0.87695852  0.83800562  0.87268391  1  -0.195875  0  -0.038531  -0.156913  0  4.110779  0
S  S136  1  0.29878921  0.32664693  0.39725458  1  0.281398  0  0.071206  0.117001  0  2.751935  0
S  S137  1  0.45158359  0.42624537  0.35283262  1  0.238561  0  0.066759  0.110855  0  2.769597  0
S  S138  1  0.66088450  0.63320895  0.56275441  1  0.275193  0  0.076593  0.124588  0  2.75213  0
S  S139  1  0.58980037  0.61590515  0.68898251  1  0.218065  0  0.063976  0.106897  0  2.775746  0
S  S140  1  0.13357359  0.16078266  0.56262553  1  0.266722  0  0.073412  0.119903  0  2.752421  0
S  S141  1  0.11579759  0.08961574  0.68894466  1  0.220789  0  0.06692  0.110789  0  2.770066  0
S  S142  1  0.97212311  0.80375163  0.40195631  1  0.264919  0  0.075002  0.121852  0  2.748457  0
S  S143  1  0.77364520  0.94637137  0.34780205  1  0.240804  0  0.064068  0.10686  0  2.776711  0
S  S144  1  0.61669258  0.58860160  0.18730240  1  0.276132  0  0.074209  0.120709  0  2.750749  0
S  S145  1  0.63454552  0.66000621  0.06101767  1  0.224634  0  0.068283  0.112797  0  2.769537  0
S  S146  1  0.01386811  0.18234311  0.11179156  1  0.307381  0  0.07503  0.121696  0  2.751276  0
S  S147  1  0.23872613  0.06597841  0.13946047  1  0.266607  0  0.070067  0.115373  0  2.768852  0
S  S148  1  0.27794401  0.44628588  0.84796779  1  0.264284  0  0.077724  0.125808  0  2.748265  0
S  S149  1  0.47598591  0.30295405  0.90235959  1  0.235947  0  0.06549  0.10903  0  2.774959  0
S  S150  1  0.95110392  0.92320742  0.85267441  1  0.284423  0  0.074327  0.12114  0  2.751604  0
S  S151  1  0.79798491  0.82407887  0.89736030  1  0.242231  0  0.069282  0.114593  0  2.768679  0
O  O152  1  0.00042708  0.49909559  0.50017764  1  -1.226315  0  -0.570161  -1.031521  0  2.526728  0
O  O153  1  0.07766807  0.31529226  0.52310114  1  -1.168585  0  -0.325465  -0.556694  0  2.323409  0
O  O154  1  0.03190858  0.53110500  0.58633642  1  -1.149045  0  -0.310841  -0.536822  0  2.323085  0
O  O155  1  0.15510032  0.50665155  0.44988937  1  -1.162054  0  -0.312726  -0.52224  0  2.333175  0
O  O156  1  0.02710287  0.37513989  0.58103366  1  -1.154705  0  -0.313252  -0.524021  0  2.335499  0
O  O157  1  0.15399018  0.39234711  0.44651690  1  -1.17722  0  -0.325857  -0.557644  0  2.326333  0
O  O158  1  0.08323819  0.58654828  0.53040667  1  -1.141714  0  -0.306945  -0.532997  0  2.366597  0
O  O159  1  0.00307095  0.65804008  0.44973342  1  -1.167978  0  -0.323246  -0.550132  0  2.331736  0
O  O160  1  0.88822852  0.49468662  0.44336584  1  -1.161921  0  -0.308521  -0.53511  0  2.36693  0
O  O161  1  0.89016249  0.65240097  0.44745446  1  -1.174103  0  -0.312945  -0.525015  0  2.333061  0
O  O162  1  0.99756740  0.38577001  0.44137253  1  -1.17053  0  -0.311487  -0.540812  0  2.310557  0
O  O163  1  0.87592927  0.52654861  0.58142888  1  -1.161724  0  -0.31414  -0.526987  0  2.334233  0
O  O164  1  0.81503734  0.57672831  0.52362333  1  -1.151227  0  -0.323055  -0.550209  0  2.330126  0
O  O165  1  0.74922432  0.25035687  0.25024823  1  -1.229558  0  -0.569971  -1.031066  0  2.52338  0
O  O166  1  0.59712300  0.35789401  0.30314495  1  -1.156436  0  -0.320487  -0.548884  0  2.33021  0
O  O167  1  0.66303861  0.16396302  0.21909239  1  -1.167394  0  -0.313276  -0.542583  0  2.314451  0
O  O168  1  0.72581161  0.37424652  0.16904590  1  -1.156178  0  -0.312483  -0.523738  0  2.333119  0
O  O169  1  0.59249569  0.24519318  0.29983273  1  -1.173577  0  -0.317372  -0.540809  0  2.311467  0
O  O170  1  0.67295030  0.43445416  0.22675323  1  -1.165362  0  -0.325849  -0.557351  0  2.328201  0
O  O171  1  0.72101293  0.21755422  0.16555771  1  -1.148141  0  -0.307167  -0.534016  0  2.363613  0
O  O172  1  0.87791419  0.22268732  0.16932819  1  -1.175168  0  -0.323622  -0.55192  0  2.331289  0
O  O173  1  0.86048050  0.25372715  0.30844144  1  -1.162508  0  -0.309815  -0.537124  0  2.37337  0
O  O174  1  0.93410126  0.17159705  0.22858825  1  -1.140686  0  -0.312948  -0.52486  0  2.334454  0
O  O175  1  0.75340003  0.36478323  0.30827036  1  -1.169178  0  -0.313408  -0.542575  0  2.314495  0
O  O176  1  0.74443578  0.09335778  0.29970226  1  -1.174906  0  -0.322721  -0.552319  0  2.336228  0
O  O177  1  0.85790900  0.09638647  0.30372278  1  -1.178998  0  -0.313582  -0.531982  0  2.317721  0
O  O178  1  0.25044557  0.74986903  0.74981821  1  -1.22614  0  -0.570259  -1.03109  0  2.527069  0
O  O179  1  0.37538491  0.72446778  0.66867163  1  -1.161509  0  -0.316669  -0.539521  0  2.312367  0
O  O180  1  0.36406953  0.75479871  0.80821572  1  -1.169323  0  -0.311482  -0.538927  0  2.318036  0
O  O181  1  0.17199590  0.93335521  0.72740432  1  -1.185899  0  -0.320132  -0.544921  0  2.335018  0
O  O182  1  0.43381930  0.67432437  0.72731129  1  -1.17678  0  -0.320283  -0.546778  0  2.339908  0
O  O183  1  0.22411746  0.87573880  0.66884032  1  -1.17527  0  -0.316742  -0.53998  0  2.313346  0
O  O184  1  0.25253935  0.86146183  0.80798944  1  -1.158708  0  -0.307827  -0.535117  0  2.363866  0
O  O185  1  0.09510669  0.85776361  0.80340041  1  -1.169482  0  -0.324935  -0.553206  0  2.330348  0
O  O186  1  0.16701169  0.66393737  0.71937796  1  -1.155415  0  -0.308733  -0.536459  0  2.369039  0
O  O187  1  0.09505760  0.74291951  0.80032688  1  -1.15658  0  -0.311983  -0.523402  0  2.333608  0
O  O188  1  0.21868969  0.71937153  0.66361550  1  -1.157069  0  -0.314623  -0.545103  0  2.319579  0
O  O189  1  0.35980722  0.59800385  0.80348265  1  -1.17467  0  -0.315141  -0.529449  0  2.331605  0
O  O190  1  0.24746970  0.59182230  0.80034548  1  -1.16615  0  -0.322158  -0.549365  0  2.333115  0
O  O191  1  0.49971568  0.00071502  0.99976513  1  -1.229362  0  -0.570211  -1.031024  0  2.525803  0
O  O192  1  0.50471121  0.15636150  0.95019608  1  -1.177016  0  -0.321905  -0.55031  0  2.334877  0
O  O193  1  0.38615418  0.99648989  0.94112629  1  -1.165591  0  -0.31381  -0.543532  0  2.318632  0
O  O194  1  0.65339376  0.89221381  0.94708569  1  -1.181906  0  -0.318904  -0.544282  0  2.341083  0
O  O195  1  0.39116395  0.15322911  0.94636713  1  -1.15802  0  -0.316593  -0.539379  0  2.311663  0
O  O196  1  0.65708935  0.00543034  0.95009595  1  -1.171599  0  -0.316798  -0.541023  0  2.312763  0
O  O197  1  0.49616992  0.88829553  0.94248075  1  -1.163528  0  -0.309503  -0.536222  0  2.370436  0
O  O198  1  0.57805877  0.81620814  0.02265415  1  -1.178635  0  -0.320049  -0.545336  0  2.339352  0
O  O199  1  0.53107706  0.03031762  0.08462649  1  -1.14805  0  -0.309634  -0.538073  0  2.370058  0
O  O200  1  0.52536921  0.87376936  0.08117129  1  -1.171104  0  -0.31507  -0.536773  0  2.314534  0
O  O201  1  0.58649699  0.08630414  0.03100628  1  -1.165168  0  -0.314133  -0.543947  0  2.319349  0
O  O202  1  0.31537594  0.07756732  0.02202792  1  -1.141996  0  -0.316793  -0.540526  0  2.313745  0
O  O203  1  0.37420072  0.02524110  0.08043574  1  -1.167691  0  -0.320053  -0.545993  0  2.338276  0
O  O204  1  0.28494995  0.52640545  0.41028776  1  -1.087261  0  -0.330166  -0.39515  0  2.272881  0
O  O205  1  0.78094636  0.53980970  0.65627887  1  -1.109872  0  -0.333011  -0.397531  0  2.271303  0
O  O206  1  0.04023235  0.28047275  0.65579111  1  -1.094468  0  -0.33181  -0.396574  0  2.272698  0
O  O207  1  0.78528569  0.77701483  0.40233802  1  -1.095804  0  -0.330844  -0.395489  0  2.27307  0
O  O208  1  0.71041860  0.46903922  0.09412468  1  -1.117196  0  -0.330189  -0.395342  0  2.272239  0
O  O209  1  0.09370380  0.10170187  0.21863003  1  -1.101318  0  -0.330052  -0.395134  0  2.272891  0
O  O210  1  0.46505155  0.47233308  0.84794467  1  -1.082148  0  -0.332782  -0.39894  0  2.273177  0
O  O211  1  0.96476174  0.72342863  0.83988772  1  -1.083409  0  -0.329784  -0.395046  0  2.27296  0
F  F212  1  0.78255662  0.51525507  0.39883353  1  -0.621899  0  -0.099668  -0.133878  0  1.349048  0
F  F213  1  0.96787866  0.23479229  0.35123291  1  -0.621769  0  -0.100756  -0.13552  0  1.347493  0
F  F214  1  0.16006086  0.66004328  0.54258502  1  -0.624405  0  -0.098956  -0.132435  0  1.348836  0
F  F215  1  0.09044304  0.59039918  0.70720188  1  -0.624443  0  -0.101228  -0.13632  0  1.346621  0
F  F216  1  0.70713025  0.20734337  0.09033658  1  -0.628815  0  -0.098859  -0.133189  0  1.348901  0
F  F217  1  0.54268876  0.04284232  0.15969142  1  -0.629696  0  -0.100853  -0.135808  0  1.348235  0
F  F218  1  0.23397394  0.96841568  0.85098815  1  -0.622467  0  -0.0996  -0.134107  0  1.347807  0
F  F219  1  0.51535059  0.78230099  0.89888622  1  -0.623481  0  -0.101241  -0.136452  0  1.347376  0
