# generated using pymatgen
data_ZnH12C16(NO3)2
_symmetry_space_group_name_H-M   'P 1'
_cell_length_a   6.63205888
_cell_length_b   9.66459633
_cell_length_c   12.16828082
_cell_angle_alpha   98.95788085
_cell_angle_beta   98.90837010
_cell_angle_gamma   98.78383952
_symmetry_Int_Tables_number   1
_chemical_formula_structural   ZnH12C16(NO3)2
_chemical_formula_sum   'Zn2 H24 C32 N4 O12'
_cell_volume   748.53592603
_cell_formula_units_Z   2
loop_
 _symmetry_equiv_pos_site_id
 _symmetry_equiv_pos_as_xyz
  1  'x, y, z'
loop_
 _atom_site_type_symbol
 _atom_site_label
 _atom_site_symmetry_multiplicity
 _atom_site_fract_x
 _atom_site_fract_y
 _atom_site_fract_z
 _atom_site_occupancy
 _atom_site_hle17_bader_spin_density
 _atom_site_hle17_ddec_charge
 _atom_site_hle17_ddec_spin_density
 _atom_site_hle17_ddec_sum_bond_order
 _atom_site_hle17_magmom
 _atom_site_hse06_10hf_bader_spin_density
 _atom_site_hse06_10hf_ddec_charge
 _atom_site_hse06_10hf_ddec_spin_density
 _atom_site_hse06_10hf_ddec_sum_bond_order
 _atom_site_hse06_10hf_magmom
 _atom_site_hse06_bader_spin_density
 _atom_site_hse06_ddec_charge
 _atom_site_hse06_ddec_spin_density
 _atom_site_hse06_ddec_sum_bond_order
 _atom_site_hse06_magmom
 _atom_site_pbe_bader_spin_density
 _atom_site_pbe_cm5_charge
 _atom_site_pbe_ddec_charge
 _atom_site_pbe_ddec_spin_density
 _atom_site_pbe_ddec_sum_bond_order
 _atom_site_pbe_magmom
Zn  Zn0  1  0.64212069  0.76004953  0.81681669  1  0  0.999557  0  1.84135  0  0  0.803393  0  2.312401  0  0  0.853339  0  2.256144  0  0  0.695177  0.768929  0  2.351077  0
Zn  Zn1  1  0.35788297  0.23994963  0.18318123  1  0  0.999596  0  1.841331  0  0  0.803424  0  2.312385  0  0  0.853365  0  2.256123  0  0  0.695176  0.768954  0  2.351056  0
H  H2  1  0.57414954  0.80332817  0.43442656  1  0  0.407898  0  0.786698  0  0  0.393849  0  0.836913  0  0  0.403223  0  0.827003  0  0  0.34661  0.386946  0  0.844465  0
H  H3  1  0.42585494  0.19667417  0.56558004  1  0  0.40797  0  0.7866  0  0  0.393875  0  0.836893  0  0  0.403251  0  0.82698  0  0  0.346612  0.386973  0  0.844447  0
H  H4  1  0.00667317  0.71126677  0.54682666  1  0  0.100353  0  0.907624  0  0  0.108129  0  0.967917  0  0  0.111245  0  0.965895  0  0  0.107719  0.105964  0  0.969401  0
H  H5  1  0.99333354  0.28873238  0.45317152  1  0  0.100301  0  0.907642  0  0  0.108088  0  0.96798  0  0  0.111206  0  0.965954  0  0  0.107692  0.105924  0  0.96947  0
H  H6  1  0.06720336  0.45195815  0.65634488  1  0  0.091442  0  0.931941  0  0  0.100268  0  0.997467  0  0  0.102589  0  0.996535  0  0  0.107177  0.098696  0  0.998088  0
H  H7  1  0.93280058  0.54804207  0.34365484  1  0  0.091473  0  0.931932  0  0  0.100302  0  0.997458  0  0  0.102623  0  0.996527  0  0  0.107183  0.098727  0  0.998078  0
H  H8  1  0.31373111  0.51025937  0.50534758  1  0  0.103618  0  0.906574  0  0  0.111452  0  0.966894  0  0  0.114122  0  0.965806  0  0  0.108462  0.109464  0  0.967895  0
H  H9  1  0.68627436  0.48974085  0.49465062  1  0  0.103707  0  0.906544  0  0  0.111505  0  0.966871  0  0  0.114173  0  0.965782  0  0  0.108472  0.109519  0  0.967868  0
H  H10  1  0.66906071  0.05049930  0.73593100  1  0  0.099631  0  0.932168  0  0  0.106661  0  0.994049  0  0  0.110299  0  0.989636  0  0  0.122454  0.103879  0  0.997543  0
H  H11  1  0.33094379  0.94950305  0.26406985  1  0  0.099642  0  0.932203  0  0  0.106695  0  0.994059  0  0  0.110332  0  0.989648  0  0  0.122485  0.103919  0  0.997553  0
H  H12  1  0.76600650  0.30710556  0.83139009  1  0  0.127987  0  0.976158  0  0  0.133551  0  1.041031  0  0  0.137261  0  1.039816  0  0  0.107915  0.130909  0  1.041986  0
H  H13  1  0.23399647  0.69289679  0.16861392  1  0  0.127993  0  0.976205  0  0  0.133564  0  1.04105  0  0  0.137277  0  1.039829  0  0  0.107932  0.130925  0  1.042012  0
H  H14  1  0.85181286  0.36190772  0.04553670  1  0  0.096656  0  0.942639  0  0  0.110397  0  0.999697  0  0  0.112227  0  0.999059  0  0  0.111369  0.109348  0  0.999354  0
H  H15  1  0.14818896  0.63809036  0.95446668  1  0  0.096665  0  0.942617  0  0  0.110423  0  0.999658  0  0  0.112258  0  0.999014  0  0  0.111359  0.109379  0  0.999315  0
H  H16  1  0.84002620  0.16294197  0.15158481  1  0  0.11712  0  0.981399  0  0  0.124058  0  1.046739  0  0  0.127012  0  1.045847  0  0  0.110295  0.121872  0  1.047596  0
H  H17  1  0.15996866  0.83705294  0.84841594  1  0  0.117163  0  0.981418  0  0  0.124084  0  1.046755  0  0  0.127049  0  1.045849  0  0  0.11031  0.1219  0  1.047609  0
H  H18  1  0.81487219  0.98785106  0.23099614  1  0  0.13341  0  0.949844  0  0  0.143313  0  1.00555  0  0  0.14683  0  1.003946  0  0  0.116072  0.140493  0  1.007252  0
H  H19  1  0.18510886  0.01214922  0.76900245  1  0  0.133451  0  0.949869  0  0  0.143356  0  1.005568  0  0  0.146872  0  1.003966  0  0  0.116081  0.140531  0  1.007269  0
H  H20  1  0.81458337  0.76520944  0.30885550  1  0  0.09944  0  0.933362  0  0  0.111183  0  0.989542  0  0  0.114133  0  0.986699  0  0  0.114461  0.108901  0  0.991862  0
H  H21  1  0.18540074  0.23479083  0.69114252  1  0  0.099434  0  0.933393  0  0  0.111175  0  0.989588  0  0  0.114123  0  0.986747  0  0  0.114457  0.108893  0  0.991907  0
H  H22  1  0.72742417  0.52934390  0.17685527  1  0  0.121067  0  0.972839  0  0  0.126258  0  1.038799  0  0  0.130102  0  1.036758  0  0  0.109747  0.123101  0  1.040991  0
H  H23  1  0.27257366  0.47065633  0.82314475  1  0  0.121039  0  0.972865  0  0  0.126235  0  1.038818  0  0  0.130078  0  1.036781  0  0  0.109731  0.123076  0  1.041014  0
H  H24  1  0.67464332  0.53037157  0.96556345  1  0  0.082699  0  0.959471  0  0  0.090764  0  1.025806  0  0  0.093009  0  1.024263  0  0  0.118316  0.089274  0  1.026198  0
H  H25  1  0.32535547  0.46962653  0.03443639  1  0  0.082683  0  0.959505  0  0  0.090741  0  1.025844  0  0  0.092987  0  1.024301  0  0  0.118321  0.089249  0  1.026245  0
C  C26  1  0.10253967  0.63627318  0.57588739  1  0  -0.127757  0  3.59812  0  0  -0.139802  0  3.837495  0  0  -0.144844  0  3.850912  0  0  -0.084765  -0.136227  0  3.828042  0
C  C27  1  0.89746217  0.36372492  0.42411024  1  0  -0.127551  0  3.597959  0  0  -0.139739  0  3.837489  0  0  -0.144773  0  3.850899  0  0  -0.08474  -0.13616  0  3.82804  0
C  C28  1  0.96926903  0.52142365  0.62003681  1  0  -0.121528  0  3.609952  0  0  -0.135425  0  3.849151  0  0  -0.139911  0  3.862512  0  0  -0.082639  -0.132354  0  3.839896  0
C  C29  1  0.03073644  0.47857657  0.37995975  1  0  -0.121725  0  3.609866  0  0  -0.135542  0  3.849091  0  0  -0.140035  0  3.862468  0  0  -0.082694  -0.132467  0  3.839825  0
C  C30  1  0.19935645  0.57348807  0.47509477  1  0  -0.132836  0  3.569326  0  0  -0.142649  0  3.804339  0  0  -0.14802  0  3.81742  0  0  -0.075251  -0.138923  0  3.795559  0
C  C31  1  0.80064902  0.42651215  0.52490261  1  0  -0.133026  0  3.569711  0  0  -0.142735  0  3.804627  0  0  -0.148113  0  3.817716  0  0  -0.07527  -0.13901  0  3.795846  0
C  C32  1  0.28130099  0.72301365  0.66754221  1  0  0.652782  0  3.856543  0  0  0.60313  0  4.162484  0  0  0.635589  0  4.156375  0  0  0.198918  0.580851  0  4.165923  0
C  C33  1  0.71870085  0.27698444  0.33245707  1  0  0.652772  0  3.856514  0  0  0.603143  0  4.162497  0  0  0.635598  0  4.156389  0  0  0.198908  0.580859  0  4.165943  0
C  C34  1  0.86234586  0.58673137  0.71351872  1  0  0.652403  0  3.841768  0  0  0.603279  0  4.145051  0  0  0.635441  0  4.140152  0  0  0.200626  0.581469  0  4.147573  0
C  C35  1  0.13765532  0.41326993  0.28647843  1  0  0.652577  0  3.84154  0  0  0.603354  0  4.144953  0  0  0.635517  0  4.140052  0  0  0.20068  0.581553  0  4.147461  0
C  C36  1  0.30765980  0.69940989  0.43235578  1  0  0.678241  0  3.747283  0  0  0.629849  0  4.060777  0  0  0.661935  0  4.052191  0  0  0.236621  0.607707  0  4.066387  0
C  C37  1  0.69233654  0.30060741  0.56764212  1  0  0.678132  0  3.746745  0  0  0.629847  0  4.060058  0  0  0.661937  0  4.051479  0  0  0.236615  0.607703  0  4.065665  0
C  C38  1  0.70788884  0.08036122  0.82776631  1  0  0.158406  0  3.664921  0  0  0.125375  0  3.916753  0  0  0.133327  0  3.933561  0  0  0.0598  0.1201  0  3.905616  0
C  C39  1  0.29211080  0.91964007  0.17223481  1  0  0.158351  0  3.66504  0  0  0.125286  0  3.916883  0  0  0.133237  0  3.933693  0  0  0.059762  0.12001  0  3.905756  0
C  C40  1  0.75959021  0.22287746  0.88160889  1  0  -0.118968  0  3.683523  0  0  -0.133304  0  3.935987  0  0  -0.141248  0  3.958777  0  0  -0.080127  -0.1278  0  3.920768  0
C  C41  1  0.24041066  0.77712276  0.11839385  1  0  -0.118951  0  3.683474  0  0  -0.133257  0  3.935912  0  0  -0.141201  0  3.958703  0  0  -0.080102  -0.127756  0  3.920711  0
C  C42  1  0.80635553  0.25264381  0.99941632  1  0  0.009612  0  3.690591  0  0  -0.01208  0  3.946718  0  0  -0.007956  0  3.964885  0  0  -0.066039  -0.014714  0  3.933761  0
C  C43  1  0.19364476  0.74735428  0.00058693  1  0  0.009555  0  3.690557  0  0  -0.012179  0  3.946674  0  0  -0.008061  0  3.964851  0  0  -0.066089  -0.014815  0  3.933725  0
C  C44  1  0.80087585  0.14115412  0.05983755  1  0  -0.134772  0  3.675374  0  0  -0.160222  0  3.938704  0  0  -0.16634  0  3.957768  0  0  -0.081494  -0.156144  0  3.925928  0
C  C45  1  0.19912263  0.85884291  0.94016377  1  0  -0.134788  0  3.675375  0  0  -0.160179  0  3.938648  0  0  -0.166306  0  3.957705  0  0  -0.081439  -0.156102  0  3.925873  0
C  C46  1  0.74983224  0.00131311  0.00044830  1  0  0.164981  0  3.775198  0  0  0.158784  0  4.017043  0  0  0.164821  0  4.038873  0  0  0.111977  0.154767  0  4.002071  0
C  C47  1  0.25016349  0.99868500  0.99955128  1  0  0.164984  0  3.77508  0  0  0.15882  0  4.016918  0  0  0.164857  0  4.038746  0  0  0.111975  0.154808  0  4.001938  0
C  C48  1  0.74595885  0.87577121  0.05645552  1  0  0.17334  0  3.761658  0  0  0.169157  0  3.997418  0  0  0.175274  0  4.019892  0  0  0.118343  0.165157  0  3.982197  0
C  C49  1  0.25403231  0.12422691  0.94354284  1  0  0.173417  0  3.761542  0  0  0.169141  0  3.997437  0  0  0.175259  0  4.019905  0  0  0.118348  0.165136  0  3.98221  0
C  C50  1  0.78489662  0.88518591  0.17402301  1  0  -0.129711  0  3.65488  0  0  -0.145602  0  3.896611  0  0  -0.152198  0  3.917329  0  0  -0.068741  -0.141089  0  3.882967  0
C  C51  1  0.21509120  0.11481116  0.82597740  1  0  -0.129823  0  3.654855  0  0  -0.145683  0  3.896631  0  0  -0.152279  0  3.917342  0  0  -0.068737  -0.141165  0  3.882975  0
C  C52  1  0.77943404  0.76002066  0.21771837  1  0  0.027132  0  3.674728  0  0  0.006335  0  3.92574  0  0  0.010171  0  3.942898  0  0  -0.052279  0.003797  0  3.914463  0
C  C53  1  0.22055131  0.23997854  0.78228045  1  0  0.027151  0  3.674581  0  0  0.006342  0  3.925609  0  0  0.010179  0  3.942772  0  0  -0.052307  0.003801  0  3.914328  0
C  C54  1  0.73588204  0.62873608  0.14445456  1  0  -0.106045  0  3.678934  0  0  -0.119648  0  3.934406  0  0  -0.126006  0  3.954395  0  0  -0.073696  -0.115805  0  3.921682  0
C  C55  1  0.26411245  0.37126309  0.85554586  1  0  -0.106057  0  3.678783  0  0  -0.119653  0  3.934246  0  0  -0.126015  0  3.954235  0  0  -0.073712  -0.115813  0  3.921521  0
C  C56  1  0.70240524  0.62785358  0.02853718  1  0  0.128333  0  3.713608  0  0  0.096185  0  3.965711  0  0  0.102693  0  3.984103  0  0  0.052094  0.092164  0  3.952807  0
C  C57  1  0.29759135  0.37214772  0.97146369  1  0  0.128385  0  3.713454  0  0  0.096258  0  3.965539  0  0  0.102764  0  3.983929  0  0  0.052122  0.09224  0  3.952634  0
N  N58  1  0.70368071  0.97321568  0.88580605  1  0  -0.375177  0  3.315319  0  0  -0.294736  0  3.590491  0  0  -0.314536  0  3.605146  0  0  -0.332123  -0.281551  0  3.580634  0
N  N59  1  0.29631684  0.02678349  0.11419381  1  0  -0.375154  0  3.315311  0  0  -0.29475  0  3.590534  0  0  -0.314546  0  3.605185  0  0  -0.33213  -0.281558  0  3.580671  0
N  N60  1  0.70538156  0.74787223  0.98604099  1  0  -0.376714  0  3.339249  0  0  -0.29564  0  3.609896  0  0  -0.315139  0  3.625498  0  0  -0.331897  -0.28259  0  3.59964  0
N  N61  1  0.29461513  0.25212374  0.01395594  1  0  -0.376731  0  3.33914  0  0  -0.295639  0  3.609799  0  0  -0.31514  0  3.62541  0  0  -0.33191  -0.282586  0  3.599533  0
O  O62  1  0.36720731  0.65195781  0.73897319  1  0  -0.654995  0  2.03247  0  0  -0.572367  0  2.300432  0  0  -0.602053  0  2.286178  0  0  -0.334244  -0.551309  0  2.30974  0
O  O63  1  0.63279481  0.34804135  0.26102624  1  0  -0.654991  0  2.032459  0  0  -0.572364  0  2.300423  0  0  -0.602047  0  2.286165  0  0  -0.334219  -0.5513  0  2.309728  0
O  O64  1  0.34366566  0.85150703  0.66749826  1  0  -0.615094  0  1.902742  0  0  -0.574671  0  2.127033  0  0  -0.595989  0  2.117224  0  0  -0.326283  -0.559317  0  2.13368  0
O  O65  1  0.65634408  0.14849211  0.33250264  1  0  -0.615089  0  1.902776  0  0  -0.574673  0  2.127076  0  0  -0.595991  0  2.117269  0  0  -0.326293  -0.559321  0  2.133732  0
O  O66  1  0.83878617  0.71788628  0.71482669  1  0  -0.634824  0  2.005754  0  0  -0.5567  0  2.267794  0  0  -0.585759  0  2.253512  0  0  -0.3315  -0.536764  0  2.277316  0
O  O67  1  0.16121835  0.28211607  0.28517087  1  0  -0.634927  0  2.005792  0  0  -0.556705  0  2.267789  0  0  -0.585762  0  2.2535  0  0  -0.331499  -0.536772  0  2.277308  0
O  O68  1  0.79711942  0.51273166  0.78089533  1  0  -0.619857  0  1.921249  0  0  -0.570255  0  2.148854  0  0  -0.5933  0  2.141256  0  0  -0.320405  -0.554023  0  2.153508  0
O  O69  1  0.20288261  0.48727283  0.21910393  1  0  -0.619966  0  1.921145  0  0  -0.570315  0  2.148747  0  0  -0.593369  0  2.141165  0  0  -0.320447  -0.554088  0  2.153401  0
O  O70  1  0.21960609  0.78467032  0.38847612  1  0  -0.542889  0  1.921416  0  0  -0.510063  0  2.137349  0  0  -0.529313  0  2.128638  0  0  -0.283604  -0.496849  0  2.143468  0
O  O71  1  0.78040800  0.21532240  0.61153011  1  0  -0.542944  0  1.920472  0  0  -0.510139  0  2.136308  0  0  -0.529396  0  2.127602  0  0  -0.283605  -0.496921  0  2.14242  0
O  O72  1  0.51745806  0.71200208  0.45345255  1  0  -0.534854  0  2.026575  0  0  -0.492174  0  2.231088  0  0  -0.511985  0  2.216633  0  0  -0.329052  -0.478299  0  2.241081  0
O  O73  1  0.48255073  0.28799919  0.54654936  1  0  -0.534804  0  2.026685  0  0  -0.492143  0  2.23124  0  0  -0.511953  0  2.216781  0  0  -0.329036  -0.478276  0  2.241239  0
