# generated using pymatgen
data_MnH12(C2N)8
_symmetry_space_group_name_H-M   'P 1'
_cell_length_a   7.43838523
_cell_length_b   9.06204227
_cell_length_c   13.49686763
_cell_angle_alpha   86.52232836
_cell_angle_beta   81.53955325
_cell_angle_gamma   65.74937188
_symmetry_Int_Tables_number   1
_chemical_formula_structural   MnH12(C2N)8
_chemical_formula_sum   'Mn2 H24 C32 N16'
_cell_volume   820.47442234
_cell_formula_units_Z   2
loop_
 _symmetry_equiv_pos_site_id
 _symmetry_equiv_pos_as_xyz
  1  'x, y, z'
loop_
 _atom_site_type_symbol
 _atom_site_label
 _atom_site_symmetry_multiplicity
 _atom_site_fract_x
 _atom_site_fract_y
 _atom_site_fract_z
 _atom_site_occupancy
 _atom_site_hle17_ddec_charge
 _atom_site_hle17_ddec_spin_density
 _atom_site_hle17_ddec_sum_bond_order
 _atom_site_hle17_magmom
 _atom_site_hse06_10hf_ddec_charge
 _atom_site_hse06_10hf_ddec_spin_density
 _atom_site_hse06_10hf_ddec_sum_bond_order
 _atom_site_hse06_10hf_magmom
 _atom_site_hse06_ddec_charge
 _atom_site_hse06_ddec_spin_density
 _atom_site_hse06_ddec_sum_bond_order
 _atom_site_hse06_magmom
 _atom_site_pbe_cm5_charge
 _atom_site_pbe_ddec_charge
 _atom_site_pbe_ddec_spin_density
 _atom_site_pbe_ddec_sum_bond_order
 _atom_site_pbe_magmom
Mn  Mn0  1  0.09329287  0.81298938  0.74988081  1  1.100892  4.825608  2.043118  4.645  0.931441  4.699305  2.595173  4.474  0.984403  4.754704  2.523679  4.55  0.659575  0.891219  4.639762  2.647827  4.396
Mn  Mn1  1  0.90052396  0.19803560  0.24976955  1  0.818636  -1.089707  3.061881  -1.024  0.744002  -1.067111  3.635406  -1.02  0.781851  -1.051542  3.571039  -1.0  0.769532  0.719605  -1.062347  3.673059  -1.013
H  H2  1  0.30888071  0.18188973  0.70643468  1  0.108072  0.000103  0.964075  0.0  0.118897  0.000209  1.023335  0.0  0.121418  0.0001  1.02276  0.0  0.108707  0.116943  0.000323  1.024103  0.0
H  H3  1  0.50894977  0.18198491  0.79368649  1  0.108436  0.000102  0.96391  0.0  0.119065  0.000208  1.023526  0.0  0.121577  9.8e-05  1.022972  0.0  0.108862  0.117159  0.000321  1.024222  0.0
H  H4  1  0.69355508  0.81603202  0.29385214  1  0.108661  0.00012  0.961625  0.0  0.118492  8.8e-05  1.022696  0.0  0.121266  8.7e-05  1.021842  0.0  0.109474  0.116289  0.000106  1.023783  0.0
H  H5  1  0.49094864  0.81554161  0.20617910  1  0.10763  0.00014  0.962297  0.0  0.117551  8.8e-05  1.023267  0.0  0.120312  8.9e-05  1.022489  0.0  0.109116  0.115333  0.000106  1.024357  0.0
H  H6  1  0.79640357  0.71627208  0.64331013  1  0.080642  9.6e-05  0.946654  0.0  0.090058  0.000515  1.008695  0.0  0.092037  0.000307  1.00755  0.0  0.11625  0.088568  0.000725  1.009649  0.001
H  H7  1  0.48666767  0.71640080  0.85642904  1  0.081068  0.000101  0.945778  0.0  0.090309  0.000522  1.008114  0.0  0.092363  0.000312  1.006883  0.0  0.116407  0.088819  0.000734  1.009072  0.001
H  H8  1  0.20293195  0.27971498  0.35732841  1  0.087158  3.7e-05  0.943961  0.0  0.096627  6.9e-05  1.005336  0.0  0.098491  3.2e-05  1.003671  0.0  0.120189  0.095062  9.1e-05  1.00702  0.0
H  H9  1  0.51868446  0.27907720  0.14323937  1  0.086985  1.8e-05  0.944779  0.0  0.097164  6.6e-05  1.005434  0.0  0.098987  3.1e-05  1.003777  0.0  0.120418  0.095635  8.4e-05  1.007105  0.0
H  H10  1  0.60322389  0.59835671  0.57589423  1  0.118298  -0.000312  0.97321  0.0  0.137979  -0.000307  1.034689  0.0  0.139411  -0.000341  1.034564  0.0  0.091477  0.136796  -0.000261  1.03489  0.0
H  H11  1  0.79773985  0.59859005  0.92390497  1  0.118126  -0.000312  0.973739  0.0  0.137984  -0.000305  1.035011  0.0  0.139359  -0.00034  1.03495  0.0  0.091527  0.136825  -0.000258  1.035192  0.0
H  H12  1  0.38166585  0.39302250  0.43828761  1  0.114677  3.6e-05  0.967832  0.0  0.135356  8.9e-05  1.028082  0.0  0.136613  7.7e-05  1.028294  0.0  0.092183  0.134199  9.5e-05  1.028151  0.0
H  H13  1  0.22629007  0.39199251  0.06253625  1  0.114527  3.8e-05  0.967866  0.0  0.134777  8.9e-05  1.028641  0.0  0.136035  7.7e-05  1.028865  0.0  0.092133  0.133635  9.6e-05  1.028702  0.0
H  H14  1  0.64433618  0.39629739  0.61069540  1  0.109358  -4.7e-05  0.961728  0.0  0.129734  -4.2e-05  1.025478  0.0  0.129769  -6.6e-05  1.027571  0.0  0.089969  0.129638  -1.4e-05  1.023982  0.0
H  H15  1  0.95882407  0.39657956  0.88927473  1  0.109594  -4.6e-05  0.962504  0.0  0.12989  -4.3e-05  1.026293  0.0  0.129911  -6.7e-05  1.02838  0.0  0.090035  0.129798  -1.5e-05  1.024802  0.0
H  H16  1  0.37072295  0.58058349  0.38678558  1  0.11171  -8.8e-05  0.958414  0.0  0.131935  9.4e-05  1.021954  0.0  0.132106  2e-05  1.023986  0.0  0.090955  0.131629  0.00019  1.020643  0.0
H  H17  1  0.04973711  0.58001199  0.11348563  1  0.111589  -0.000107  0.957461  0.0  0.131762  8e-05  1.020928  0.0  0.131958  8e-06  1.022929  0.0  0.091066  0.131423  0.000175  1.019657  0.0
H  H18  1  0.76412240  0.43431914  0.49536242  1  0.115485  2.3e-05  0.960762  0.0  0.135771  6e-06  1.022828  0.0  0.135536  -8e-06  1.025422  0.0  0.092965  0.136027  2.3e-05  1.020934  0.0
H  H19  1  0.80110493  0.43467702  0.00461391  1  0.115638  2.4e-05  0.959259  0.0  0.135649  7e-06  1.021862  0.0  0.135338  -6e-06  1.02453  0.0  0.092997  0.135958  2.5e-05  1.019902  0.0
H  H20  1  0.23008614  0.57706293  0.50361790  1  0.115845  -0.000259  0.961541  0.0  0.135667  -0.000382  1.024741  0.0  0.135811  -0.000436  1.027004  0.0  0.093264  0.135137  -0.000313  1.023473  0.0
H  H21  1  0.19426560  0.57550143  0.99663913  1  0.115482  -0.000279  0.96158  0.0  0.135016  -0.000389  1.025009  0.0  0.135148  -0.00044  1.0273  0.0  0.09318  0.134509  -0.000319  1.023697  0.0
H  H22  1  0.03097004  0.19613044  0.62247949  1  0.101373  -0.000226  0.939785  0.0  0.113923  -0.00014  0.997076  0.0  0.115713  -0.000169  0.99679  0.0  0.109426  0.112478  -0.000102  0.997504  0.0
H  H23  1  0.77248184  0.19628318  0.87768730  1  0.101868  -0.000226  0.939705  0.0  0.114208  -0.000139  0.997214  0.0  0.115992  -0.000168  0.99692  0.0  0.109315  0.112766  -0.000101  0.99766  0.0
H  H24  1  0.97145279  0.79964040  0.37952173  1  0.105498  -6.1e-05  0.937555  0.0  0.117903  0.000275  0.994075  0.0  0.120513  0.000182  0.992047  0.0  0.109458  0.115584  0.00033  0.996229  0.0
H  H25  1  0.22966665  0.79888345  0.12042120  1  0.106428  -8.1e-05  0.936687  0.0  0.118959  0.000281  0.9931  0.0  0.121617  0.000182  0.990963  0.0  0.109885  0.116573  0.000342  0.995369  0.0
C  C26  1  0.19979360  0.44250129  0.72232568  1  0.163911  0.001352  3.768457  0.002  0.158426  0.003719  4.01604  0.003  0.164439  0.002975  4.035585  0.003  0.120721  0.15435  0.004523  4.002511  0.004
C  C27  1  0.35726589  0.44256067  0.77756543  1  0.16599  0.001367  3.769501  0.002  0.15892  0.003738  4.018096  0.003  0.164925  0.002994  4.037682  0.003  0.120377  0.154843  0.004542  4.004555  0.004
C  C28  1  0.80035143  0.55669777  0.27715980  1  0.154275  0.005316  3.765256  0.004  0.145713  0.00677  4.020547  0.004  0.154686  0.003758  4.035079  0.002  0.115194  0.138812  0.009267  4.011872  0.006
C  C29  1  0.64399970  0.55632815  0.22307803  1  0.157044  0.006124  3.758802  0.005  0.146839  0.007294  4.015286  0.005  0.156247  0.004157  4.029431  0.003  0.114802  0.139572  0.009836  4.006899  0.007
C  C30  1  0.88839067  0.45842681  0.62451400  1  0.103154  -0.000192  3.753868  0.0  0.130149  -0.000129  3.994141  0.0  0.127371  -0.000556  4.019629  0.0  -0.000124  0.131932  0.000292  3.976786  0.0
C  C31  1  0.65262627  0.45854507  0.87545166  1  0.105519  -0.000202  3.751774  0.0  0.13279  -0.000135  3.991442  0.0  0.130011  -0.000565  4.016931  0.0  0.000915  0.134571  0.000289  3.974089  0.0
C  C32  1  0.11166849  0.53681452  0.37669822  1  0.106249  -0.00071  3.760028  -0.001  0.133356  0.000827  4.002388  0.0  0.13083  -0.000653  4.025643  -0.001  -0.000335  0.134366  0.002512  3.987845  0.001
C  C33  1  0.35275507  0.53600242  0.12360415  1  0.108266  -0.001334  3.755065  -0.001  0.134231  0.000558  3.999185  0.0  0.131629  -0.000919  4.022276  -0.001  0.000185  0.135286  0.002259  3.984742  0.001
C  C34  1  0.19406705  0.29949266  0.69200137  1  -0.128494  -0.000512  3.728608  0.0  -0.152368  -0.000275  3.986923  0.0  -0.157618  -0.000718  4.00754  -0.001  -0.077927  -0.148888  0.00017  3.973095  0.0
C  C35  1  0.50605465  0.29961433  0.80800211  1  -0.128341  -0.000519  3.729871  0.0  -0.151625  -0.000279  3.988042  0.0  -0.15687  -0.000722  4.008678  -0.001  -0.077522  -0.148172  0.00017  3.974181  0.0
C  C36  1  0.80885143  0.69840127  0.30786801  1  -0.124684  -0.002146  3.732714  -0.002  -0.149227  -0.000857  3.994305  -0.001  -0.154277  -0.001091  4.011746  -0.001  -0.07805  -0.146488  -0.000369  3.98433  -0.001
C  C37  1  0.49348085  0.69784440  0.19223502  1  -0.124221  -0.002798  3.732908  -0.003  -0.148363  -0.001115  3.995049  -0.001  -0.153533  -0.001348  4.012243  -0.001  -0.078093  -0.145543  -0.000615  3.985253  -0.001
C  C38  1  0.90785461  0.59503950  0.65576803  1  0.069417  0.001671  3.678834  0.002  0.036378  0.004138  3.9247  0.003  0.040764  0.003333  3.943963  0.003  0.051156  0.033254  0.005007  3.91193  0.004
C  C39  1  0.49650322  0.59515616  0.84407945  1  0.068368  0.001688  3.678792  0.002  0.035098  0.004162  3.924853  0.003  0.039471  0.003354  3.944038  0.003  0.051242  0.031979  0.005036  3.912056  0.004
C  C40  1  0.09273282  0.40095711  0.34453444  1  0.060094  0.003928  3.658006  0.003  0.022131  0.004367  3.912581  0.002  0.030145  0.002677  3.927368  0.001  0.048726  0.015785  0.00544  3.904005  0.003
C  C41  1  0.50766627  0.40030140  0.15587898  1  0.058582  0.004553  3.652581  0.003  0.019991  0.004717  3.907714  0.003  0.028249  0.002942  3.922267  0.002  0.047249  0.013428  0.005783  3.899309  0.003
C  C42  1  0.74940636  0.03218177  0.61445689  1  0.497002  0.021247  3.992813  0.021  0.45994  0.02678  4.279873  0.026  0.486604  0.023551  4.289664  0.023  0.312098  0.441653  0.029831  4.27259  0.029
C  C43  1  0.21788233  0.03217176  0.88530856  1  0.49776  0.021148  3.991024  0.021  0.460456  0.026662  4.278054  0.026  0.487067  0.023448  4.28784  0.023  0.311801  0.442199  0.0297  4.270774  0.028
C  C44  1  0.22536673  0.98086250  0.37397494  1  0.466958  -0.020982  3.960412  -0.017  0.434474  -0.01073  4.24568  -0.009  0.458854  -0.0087  4.260704  -0.007  0.314952  0.417653  -0.012818  4.233396  -0.01
C  C45  1  0.79364959  0.98059300  0.12574276  1  0.467193  -0.021236  3.959516  -0.018  0.434647  -0.010982  4.244527  -0.009  0.459176  -0.008994  4.259493  -0.007  0.315092  0.417711  -0.01301  4.232351  -0.01
C  C46  1  0.71574439  0.47370100  0.57385887  1  -0.340177  0.000184  3.71645  0.0  -0.418999  0.000182  3.94582  0.0  -0.421244  0.0001  3.957604  0.0  -0.243532  -0.417051  0.000285  3.937451  0.0
C  C47  1  0.80996521  0.47396420  0.92603560  1  -0.341414  0.000187  3.715832  0.0  -0.420124  0.000185  3.945076  0.0  -0.422299  0.000103  3.95702  0.0  -0.24457  -0.418212  0.000287  3.936608  0.0
C  C48  1  0.28249862  0.52008069  0.42932108  1  -0.33608  9.7e-05  3.715472  0.0  -0.415475  7e-06  3.945764  0.0  -0.418161  -9e-06  3.957537  0.0  -0.241543  -0.413017  3.6e-05  3.938161  0.0
C  C49  1  0.19864694  0.51903654  0.07108063  1  -0.335657  0.00012  3.713104  0.0  -0.414085  2e-06  3.943847  0.0  -0.41677  -8e-06  3.955583  0.0  -0.242046  -0.411653  2.5e-05  3.93625  0.0
C  C50  1  0.70125541  0.14050773  0.45834514  1  0.476944  0.003668  3.95929  0.004  0.4443  0.004577  4.248894  0.004  0.470325  0.00167  4.256881  0.002  0.308085  0.425919  0.006298  4.243646  0.006
C  C51  1  0.15786453  0.14061447  0.04128336  1  0.47793  0.004151  3.959004  0.004  0.445246  0.00448  4.248095  0.004  0.47122  0.001486  4.256097  0.001  0.308583  0.426886  0.006231  4.242839  0.006
C  C52  1  0.30442937  0.86680338  0.52565804  1  0.500092  0.018162  3.973351  0.019  0.464956  0.022806  4.256329  0.024  0.490814  0.020285  4.268807  0.021  0.314441  0.447033  0.025527  4.245984  0.026
C  C53  1  0.82925199  0.86593525  0.97420933  1  0.500644  0.018302  3.971205  0.019  0.465451  0.022925  4.254146  0.024  0.491346  0.020403  4.266672  0.021  0.314571  0.447525  0.025655  4.243776  0.026
C  C54  1  0.03777249  0.30781226  0.64373078  1  -0.058689  0.001529  3.679132  0.001  -0.081525  0.003177  3.923457  0.002  -0.080335  0.002728  3.942957  0.002  -0.065932  -0.082087  0.003757  3.910223  0.003
C  C55  1  0.65395794  0.30792310  0.85630985  1  -0.060396  0.001542  3.68013  0.001  -0.083238  0.003192  3.924588  0.002  -0.082052  0.002741  3.944103  0.002  -0.06609  -0.083812  0.003776  3.911359  0.003
C  C56  1  0.96417904  0.68880001  0.35712169  1  -0.064414  0.00628  3.678948  0.005  -0.090366  0.007139  3.92715  0.005  -0.085688  0.003861  3.94212  0.003  -0.07174  -0.094562  0.009911  3.919064  0.007
C  C57  1  0.34791573  0.68815824  0.14296815  1  -0.066085  0.00721  3.678212  0.006  -0.092356  0.007782  3.927484  0.006  -0.087322  0.004305  3.942137  0.003  -0.072354  -0.096748  0.010624  3.919602  0.008
N  N58  1  0.05766310  0.58846971  0.70280467  1  -0.345331  0.029539  3.251303  0.02  -0.280958  0.034374  3.521087  0.021  -0.298624  0.030314  3.536963  0.018  -0.306467  -0.268025  0.038478  3.509891  0.025
N  N59  1  0.35334523  0.58854307  0.79700318  1  -0.346434  0.029572  3.252827  0.02  -0.281029  0.034364  3.522132  0.021  -0.298743  0.0303  3.538115  0.018  -0.307231  -0.268076  0.038472  3.510897  0.025
N  N60  1  0.94235998  0.40899152  0.29668085  1  -0.281345  0.010858  3.240541  0.015  -0.226039  0.009174  3.511813  0.013  -0.245688  0.004623  3.528179  0.008  -0.294544  -0.212132  0.012983  3.499493  0.017
N  N61  1  0.65025087  0.40828196  0.20370378  1  -0.28107  0.010699  3.241378  0.015  -0.225091  0.009008  3.513719  0.013  -0.244661  0.004352  3.529735  0.008  -0.295833  -0.211155  0.012871  3.501429  0.017
N  N62  1  0.83849315  0.97047519  0.68219857  1  -0.609268  0.019786  2.863665  -0.001  -0.565069  0.026272  3.164613  -0.001  -0.587948  0.021938  3.163786  -0.004  -0.380201  -0.548659  0.029942  3.165239  0.002
N  N63  1  0.19030524  0.97047582  0.81767185  1  -0.608854  0.020011  2.862008  0.0  -0.564552  0.026332  3.162898  -0.001  -0.587449  0.021966  3.162121  -0.004  -0.379459  -0.548157  0.029995  3.163536  0.002
N  N64  1  0.12538423  0.04561115  0.31059358  1  -0.520455  0.010742  3.083218  0.022  -0.486293  0.006702  3.392863  0.017  -0.512097  0.008131  3.400791  0.017  -0.393749  -0.467284  0.003254  3.384414  0.014
N  N65  1  0.82846425  0.04589756  0.18896154  1  -0.520966  0.010708  3.086164  0.022  -0.486678  0.006817  3.396367  0.017  -0.51258  0.008316  3.404284  0.018  -0.394606  -0.46765  0.003297  3.387983  0.015
N  N66  1  0.63698212  0.10091087  0.54623047  1  -0.456932  0.004363  3.284746  0.003  -0.410091  0.007139  3.550788  0.005  -0.433024  0.005535  3.552617  0.004  -0.310849  -0.393818  0.008941  3.548987  0.007
N  N67  1  0.26160700  0.10109178  0.95338065  1  -0.458376  0.004487  3.285155  0.004  -0.410966  0.007107  3.55067  0.005  -0.43388  0.005492  3.552502  0.004  -0.311149  -0.394682  0.008944  3.548851  0.007
N  N68  1  0.35196761  0.91155515  0.43614205  1  -0.451649  -0.005707  3.281829  -0.006  -0.403202  -0.002921  3.545775  -0.004  -0.428498  -0.00123  3.551018  -0.002  -0.30434  -0.383651  -0.005586  3.539879  -0.007
N  N69  1  0.73681060  0.91080972  0.06369825  1  -0.451929  -0.005872  3.282074  -0.006  -0.403302  -0.003108  3.545917  -0.004  -0.42871  -0.001382  3.551139  -0.002  -0.304499  -0.383722  -0.005803  3.540086  -0.007
N  N70  1  0.74295600  0.18464494  0.37775206  1  -0.527705  0.010897  3.08657  0.011  -0.503541  0.008949  3.401126  0.01  -0.522628  0.007471  3.400313  0.01  -0.390787  -0.49046  0.010173  3.400627  0.011
N  N71  1  0.07191891  0.18470725  0.12184997  1  -0.528394  0.010773  3.085492  0.011  -0.504303  0.008945  3.399998  0.01  -0.523355  0.007484  3.399128  0.01  -0.390911  -0.491247  0.010166  3.399546  0.011
N  N72  1  0.27676306  0.82031216  0.60765382  1  -0.590881  0.01269  2.838105  -0.004  -0.547419  0.021076  3.125797  -0.001  -0.571881  0.018745  3.128259  -0.002  -0.362098  -0.528743  0.021982  3.123183  -0.001
N  N73  1  0.90334250  0.81954651  0.89220131  1  -0.590825  0.012558  2.838139  -0.004  -0.547324  0.020952  3.125935  -0.001  -0.571773  0.018631  3.128418  -0.002  -0.361971  -0.528669  0.021832  3.123302  -0.001
