# generated using pymatgen
data_LaH22C24N3O8
_symmetry_space_group_name_H-M   'P 1'
_cell_length_a   8.27372855
_cell_length_b   12.62647498
_cell_length_c   14.42063015
_cell_angle_alpha   109.86011948
_cell_angle_beta   97.82926327
_cell_angle_gamma   100.93393153
_symmetry_Int_Tables_number   1
_chemical_formula_structural   LaH22C24N3O8
_chemical_formula_sum   'La2 H44 C48 N6 O16'
_cell_volume   1357.93402212
_cell_formula_units_Z   2
loop_
 _symmetry_equiv_pos_site_id
 _symmetry_equiv_pos_as_xyz
  1  'x, y, z'
loop_
 _atom_site_type_symbol
 _atom_site_label
 _atom_site_symmetry_multiplicity
 _atom_site_fract_x
 _atom_site_fract_y
 _atom_site_fract_z
 _atom_site_occupancy
 _atom_site_hle17_bader_spin_density
 _atom_site_hle17_ddec_charge
 _atom_site_hle17_ddec_spin_density
 _atom_site_hle17_ddec_sum_bond_order
 _atom_site_hle17_magmom
 _atom_site_hse06_10hf_bader_spin_density
 _atom_site_hse06_10hf_ddec_charge
 _atom_site_hse06_10hf_ddec_spin_density
 _atom_site_hse06_10hf_ddec_sum_bond_order
 _atom_site_hse06_10hf_magmom
 _atom_site_hse06_bader_spin_density
 _atom_site_hse06_ddec_charge
 _atom_site_hse06_ddec_spin_density
 _atom_site_hse06_ddec_sum_bond_order
 _atom_site_hse06_magmom
 _atom_site_pbe_bader_spin_density
 _atom_site_pbe_cm5_charge
 _atom_site_pbe_ddec_charge
 _atom_site_pbe_ddec_spin_density
 _atom_site_pbe_ddec_sum_bond_order
 _atom_site_pbe_magmom
La  La0  1  0.78122233  0.57067237  0.52606716  1  0  2.11143  0  1.740035  0  0  1.986936  0  2.244956  0  0  2.089264  0  2.147231  0  0  1.378083  1.910152  0  2.313412  0
La  La1  1  0.21878073  0.42932823  0.47393179  1  0  2.111448  0  1.740006  0  0  1.986956  0  2.244943  0  0  2.08929  0  2.147205  0  0  1.378081  1.910173  0  2.313388  0
H  H2  1  0.51408076  0.49513589  0.32862498  1  0  0.419848  0  0.893324  0  0  0.388805  0  0.958663  0  0  0.399883  0  0.942784  0  0  0.29494  0.38092  0  0.969936  0
H  H3  1  0.48592109  0.50486472  0.67137318  1  0  0.419809  0  0.893385  0  0  0.388754  0  0.95874  0  0  0.399832  0  0.942861  0  0  0.294907  0.38087  0  0.970011  0
H  H4  1  0.67537456  0.53987997  0.28721997  1  0  0.389566  0  0.930871  0  0  0.34763  0  1.013622  0  0  0.359778  0  0.996446  0  0  0.28321  0.338998  0  1.025781  0
H  H5  1  0.32462545  0.46011542  0.71277577  1  0  0.389578  0  0.930873  0  0  0.347638  0  1.01363  0  0  0.359787  0  0.996451  0  0  0.283207  0.339004  0  1.025791  0
H  H6  1  0.02656681  0.64929642  0.40460975  1  0  0.430202  0  0.867614  0  0  0.401338  0  0.928346  0  0  0.413268  0  0.910758  0  0  0.29845  0.392753  0  0.940987  0
H  H7  1  0.97343226  0.35071022  0.59539277  1  0  0.430188  0  0.867638  0  0  0.401347  0  0.928325  0  0  0.413272  0  0.910748  0  0  0.298468  0.392762  0  0.940966  0
H  H8  1  0.91816384  0.74554375  0.41842620  1  0  0.387616  0  0.932791  0  0  0.34596  0  1.014346  0  0  0.358274  0  0.996908  0  0  0.281245  0.337219  0  1.02667  0
H  H9  1  0.08183031  0.25445938  0.58157555  1  0  0.38764  0  0.932736  0  0  0.345994  0  1.014286  0  0  0.358306  0  0.99685  0  0  0.281268  0.337253  0  1.026612  0
H  H10  1  0.85178821  0.41629677  0.81266777  1  0  0.114421  0  0.943665  0  0  0.125187  0  0.999687  0  0  0.129246  0  0.997943  0  0  0.106005  0.122327  0  1.001087  0
H  H11  1  0.14820699  0.58371597  0.18733212  1  0  0.114414  0  0.943717  0  0  0.125295  0  0.999612  0  0  0.129354  0  0.997867  0  0  0.106026  0.122435  0  1.001014  0
H  H12  1  0.67162721  0.61453309  0.86557950  1  0  0.099303  0  0.954118  0  0  0.107115  0  1.020832  0  0  0.110061  0  1.019299  0  0  0.106338  0.104913  0  1.022107  0
H  H13  1  0.32835652  0.38547169  0.13442466  1  0  0.099314  0  0.954264  0  0  0.107156  0  1.020925  0  0  0.110104  0  1.019388  0  0  0.10634  0.104954  0  1.0222  0
H  H14  1  0.61122754  0.68795040  0.02617977  1  0  0.101386  0  0.97786  0  0  0.108732  0  1.043988  0  0  0.110602  0  1.045949  0  0  0.102702  0.107441  0  1.042601  0
H  H15  1  0.38876104  0.31204746  0.97382270  1  0  0.101361  0  0.977818  0  0  0.108735  0  1.043903  0  0  0.110607  0  1.045863  0  0  0.102665  0.107438  0  1.042533  0
H  H16  1  0.60067530  0.67891521  0.19505689  1  0  0.06482  0  0.960976  0  0  0.072661  0  1.027481  0  0  0.074346  0  1.026993  0  0  0.109955  0.071424  0  1.027858  0
H  H17  1  0.39932551  0.32108272  0.80494662  1  0  0.064888  0  0.960973  0  0  0.072674  0  1.027534  0  0  0.074358  0  1.027048  0  0  0.109955  0.071439  0  1.027907  0
H  H18  1  0.83382056  0.40836175  0.13899191  1  0  0.073245  0  0.955404  0  0  0.082481  0  1.018134  0  0  0.083799  0  1.018405  0  0  0.111598  0.08148  0  1.018027  0
H  H19  1  0.16618038  0.59163279  0.86100226  1  0  0.073225  0  0.955507  0  0  0.08246  0  1.018231  0  0  0.08378  0  1.0185  0  0  0.111598  0.081458  0  1.018125  0
H  H20  1  0.85143965  0.40287688  0.96671832  1  0  0.103776  0  0.948995  0  0  0.117069  0  1.002778  0  0  0.120052  0  1.002348  0  0  0.106869  0.114927  0  1.003224  0
H  H21  1  0.14854025  0.59711669  0.03327105  1  0  0.103722  0  0.948989  0  0  0.117033  0  1.00277  0  0  0.120014  0  1.002342  0  0  0.106875  0.114892  0  1.003217  0
H  H22  1  0.72213041  0.24730584  0.45677177  1  0  0.132448  0  0.963436  0  0  0.138153  0  1.027767  0  0  0.142599  0  1.02532  0  0  0.115316  0.134987  0  1.029651  0
H  H23  1  0.27788210  0.75270087  0.54323259  1  0  0.132504  0  0.963259  0  0  0.138181  0  1.027608  0  0  0.142612  0  1.025208  0  0  0.115309  0.135012  0  1.029495  0
H  H24  1  0.39138640  0.05355280  0.37367944  1  0  0.098784  0  0.93523  0  0  0.109592  0  0.994509  0  0  0.11355  0  0.991173  0  0  0.107145  0.106655  0  0.997044  0
H  H25  1  0.60862630  0.94645402  0.62631387  1  0  0.098768  0  0.935304  0  0  0.109587  0  0.994568  0  0  0.113544  0  0.991235  0  0  0.107168  0.106656  0  0.997096  0
H  H26  1  0.41862729  0.86589744  0.37344407  1  0  0.105627  0  0.939872  0  0  0.118179  0  0.993594  0  0  0.121377  0  0.993319  0  0  0.106044  0.115869  0  0.993966  0
H  H27  1  0.58137156  0.13411184  0.62655507  1  0  0.105641  0  0.939915  0  0  0.118205  0  0.993619  0  0  0.121402  0  0.993345  0  0  0.106073  0.11589  0  0.993996  0
H  H28  1  0.59675163  0.72600400  0.37336373  1  0  0.080468  0  0.962258  0  0  0.088746  0  1.025606  0  0  0.091686  0  1.023043  0  0  0.117044  0.086507  0  1.027614  0
H  H29  1  0.40323676  0.27399651  0.62663398  1  0  0.080401  0  0.962338  0  0  0.088706  0  1.025656  0  0  0.091644  0  1.023091  0  0  0.117049  0.086464  0  1.027667  0
H  H30  1  0.02567521  0.96395936  0.38470518  1  0  0.076776  0  0.920346  0  0  0.088353  0  0.97664  0  0  0.09109  0  0.974413  0  0  0.117433  0.086316  0  0.978369  0
H  H31  1  0.97432626  0.03602993  0.61529162  1  0  0.076796  0  0.920328  0  0  0.088363  0  0.976636  0  0  0.091103  0  0.974405  0  0  0.117451  0.086327  0  0.978364  0
H  H32  1  0.87160497  0.11482094  0.38914913  1  0  0.129681  0  0.944987  0  0  0.139562  0  1.002396  0  0  0.143095  0  1.001244  0  0  0.117711  0.136986  0  1.003427  0
H  H33  1  0.12840784  0.88517624  0.61085098  1  0  0.129666  0  0.944969  0  0  0.139557  0  1.002356  0  0  0.143094  0  1.001203  0  0  0.117721  0.136981  0  1.00339  0
H  H34  1  0.60832524  0.31788948  0.28256968  1  0  0.126076  0  0.955537  0  0  0.133653  0  1.016962  0  0  0.137743  0  1.014728  0  0  0.114878  0.130684  0  1.018826  0
H  H35  1  0.39167435  0.68210497  0.71743198  1  0  0.126161  0  0.955422  0  0  0.133721  0  1.016844  0  0  0.137814  0  1.014617  0  0  0.114901  0.130752  0  1.018708  0
H  H36  1  0.81163474  0.18629691  0.13991716  1  0  0.103613  0  0.933311  0  0  0.113833  0  0.994041  0  0  0.117733  0  0.99054  0  0  0.108427  0.110893  0  0.996753  0
H  H37  1  0.18836578  0.81370016  0.86008537  1  0  0.103599  0  0.933267  0  0  0.113804  0  0.994027  0  0  0.117704  0  0.990523  0  0  0.108368  0.110862  0  0.996738  0
H  H38  1  0.67754458  0.13117494  0.95874778  1  0  0.101604  0  0.937754  0  0  0.115442  0  0.990048  0  0  0.118829  0  0.989334  0  0  0.105255  0.113009  0  0.990701  0
H  H39  1  0.32245656  0.86882387  0.04125532  1  0  0.101673  0  0.93774  0  0  0.115507  0  0.990029  0  0  0.118893  0  0.989315  0  0  0.105275  0.113075  0  0.99068  0
H  H40  1  0.41260888  0.05215479  0.82489301  1  0  0.065168  0  0.948302  0  0  0.07378  0  1.010319  0  0  0.075483  0  1.010304  0  0  0.104228  0.072526  0  1.010401  0
H  H41  1  0.58739595  0.94784405  0.17510902  1  0  0.065155  0  0.948262  0  0  0.07377  0  1.010276  0  0  0.075473  0  1.010261  0  0  0.104223  0.072516  0  1.010357  0
H  H42  1  0.11661608  0.10799026  0.03763269  1  0  0.072114  0  0.922238  0  0  0.083365  0  0.978018  0  0  0.08611  0  0.975855  0  0  0.111522  0.081339  0  0.979671  0
H  H43  1  0.88338447  0.89200683  0.96236777  1  0  0.072184  0  0.922218  0  0  0.083401  0  0.978024  0  0  0.086145  0  0.975861  0  0  0.111555  0.081375  0  0.979678  0
H  H44  1  0.36564910  0.18954687  0.17999867  1  0  0.123927  0  0.930328  0  0  0.136396  0  0.982796  0  0  0.140084  0  0.981405  0  0  0.116571  0.133743  0  0.983931  0
H  H45  1  0.63435115  0.81045281  0.82000324  1  0  0.123928  0  0.930336  0  0  0.136366  0  0.982835  0  0  0.140056  0  0.981443  0  0  0.116559  0.133716  0  0.983969  0
C  C46  1  0.77713926  0.50095050  0.70889970  1  0  0.672498  0  3.932334  0  0  0.628625  0  4.220883  0  0  0.6635  0  4.215328  0  0  0.198676  0.60497  0  4.223595  0
C  C47  1  0.22285251  0.49905265  0.29109840  1  0  0.672684  0  3.93219  0  0  0.628733  0  4.220859  0  0  0.663607  0  4.215308  0  0  0.198782  0.605077  0  4.223569  0
C  C48  1  0.78924508  0.48284524  0.80581186  1  0  -0.214603  0  3.654166  0  0  -0.228435  0  3.907299  0  0  -0.238647  0  3.922487  0  0  -0.090888  -0.221833  0  3.897089  0
C  C49  1  0.21075624  0.51716407  0.19418611  1  0  -0.214725  0  3.654192  0  0  -0.228659  0  3.907361  0  0  -0.238872  0  3.922549  0  0  -0.090986  -0.222057  0  3.897153  0
C  C50  1  0.72962602  0.54962937  0.88105161  1  0  -0.049129  0  3.724204  0  0  -0.072951  0  3.973707  0  0  -0.070264  0  3.991386  0  0  -0.073538  -0.074462  0  3.961532  0
C  C51  1  0.27036697  0.45037725  0.11894832  1  0  -0.049159  0  3.724351  0  0  -0.072986  0  3.973862  0  0  -0.070296  0  3.991535  0  0  -0.07353  -0.074498  0  3.961687  0
C  C52  1  0.73223092  0.54602366  0.98103588  1  0  0.119798  0  3.819498  0  0  0.13662  0  4.048255  0  0  0.139692  0  4.071036  0  0  0.004186  0.134667  0  4.032646  0
C  C53  1  0.26775412  0.45397424  0.01895938  1  0  0.119758  0  3.819486  0  0  0.136568  0  4.048268  0  0  0.139639  0  4.071053  0  0  0.004234  0.134618  0  4.032649  0
C  C54  1  0.66275438  0.62472578  0.04828972  1  0  -0.155701  0  3.699342  0  0  -0.172061  0  3.940741  0  0  -0.179393  0  3.963662  0  0  -0.080313  -0.167261  0  3.925344  0
C  C55  1  0.33723606  0.37527383  0.95171274  1  0  -0.155619  0  3.69926  0  0  -0.171972  0  3.940636  0  0  -0.179305  0  3.963556  0  0  -0.080225  -0.167175  0  3.925237  0
C  C56  1  0.65710194  0.62003716  0.14264607  1  0  0.131837  0  3.733813  0  0  0.102215  0  3.988042  0  0  0.108327  0  4.005581  0  0  0.048112  0.098294  0  3.976078  0
C  C57  1  0.34289187  0.37995814  0.85735399  1  0  0.13171  0  3.733788  0  0  0.102112  0  3.988044  0  0  0.108222  0  4.005586  0  0  0.048068  0.098191  0  3.976079  0
C  C58  1  0.78588065  0.46894297  0.11085958  1  0  0.118347  0  3.747645  0  0  0.088612  0  4.006029  0  0  0.094072  0  4.025098  0  0  0.041928  0.085115  0  3.993038  0
C  C59  1  0.21411723  0.53105328  0.88913555  1  0  0.11828  0  3.747763  0  0  0.088556  0  4.006133  0  0  0.094015  0  4.025203  0  0  0.041895  0.085058  0  3.993143  0
C  C60  1  0.79577623  0.46655377  0.01474797  1  0  -0.17434  0  3.721256  0  0  -0.191459  0  3.968326  0  0  -0.198952  0  3.990476  0  0  -0.085599  -0.18651  0  3.953378  0
C  C61  1  0.20420547  0.53344153  0.98524415  1  0  -0.174215  0  3.721173  0  0  -0.191373  0  3.968278  0  0  -0.198866  0  3.990429  0  0  -0.085684  -0.186424  0  3.953332  0
C  C62  1  0.47036714  0.28122138  0.44248351  1  0  0.681514  0  3.92715  0  0  0.641738  0  4.217783  0  0  0.677674  0  4.212053  0  0  0.20302  0.617156  0  4.22058  0
C  C63  1  0.52964023  0.71878100  0.55751495  1  0  0.681314  0  3.927389  0  0  0.641562  0  4.217955  0  0  0.677502  0  4.212229  0  0  0.202884  0.616981  0  4.220752  0
C  C64  1  0.58776126  0.20461784  0.43076821  1  0  -0.213778  0  3.643115  0  0  -0.227993  0  3.897673  0  0  -0.238207  0  3.913748  0  0  -0.083916  -0.221318  0  3.88692  0
C  C65  1  0.41225558  0.79539066  0.56923427  1  0  -0.213776  0  3.643025  0  0  -0.227931  0  3.89754  0  0  -0.238154  0  3.91361  0  0  -0.083825  -0.221257  0  3.88679  0
C  C66  1  0.52843218  0.08810832  0.39364976  1  0  -0.053551  0  3.730694  0  0  -0.077453  0  3.982168  0  0  -0.075993  0  4.000381  0  0  -0.072849  -0.078094  0  3.969596  0
C  C67  1  0.47158714  0.91190022  0.60635085  1  0  -0.053465  0  3.730731  0  0  -0.077398  0  3.982249  0  0  -0.075936  0  4.000456  0  0  -0.072869  -0.078039  0  3.969677  0
C  C68  1  0.63011762  0.00404527  0.38387224  1  0  0.118146  0  3.819258  0  0  0.133632  0  4.053652  0  0  0.137024  0  4.077105  0  0  0.004641  0.1315  0  4.037547  0
C  C69  1  0.36989555  0.99595974  0.61612887  1  0  0.117978  0  3.819269  0  0  0.133418  0  4.05374  0  0  0.136811  0  4.07719  0  0  0.004497  0.131283  0  4.037641  0
C  C70  1  0.55328769  0.89100680  0.37582480  1  0  -0.180078  0  3.730255  0  0  -0.196911  0  3.976957  0  0  -0.205368  0  3.999896  0  0  -0.087956  -0.191337  0  3.961446  0
C  C71  1  0.44671536  0.10900073  0.62417833  1  0  -0.179993  0  3.730173  0  0  -0.196825  0  3.976885  0  0  -0.205281  0  3.999821  0  0  -0.087903  -0.191246  0  3.961374  0
C  C72  1  0.65137332  0.81298023  0.37579464  1  0  0.118578  0  3.745928  0  0  0.08999  0  4.004505  0  0  0.096133  0  4.021953  0  0  0.041464  0.08605  0  3.992661  0
C  C73  1  0.34862148  0.18702119  0.62420457  1  0  0.118729  0  3.745839  0  0  0.090124  0  4.004427  0  0  0.096272  0  4.021867  0  0  0.041484  0.086187  0  3.992575  0
C  C74  1  0.89066977  0.94524842  0.38278776  1  0  0.121434  0  3.74719  0  0  0.090433  0  4.008752  0  0  0.096304  0  4.02636  0  0  0.046615  0.086687  0  3.996667  0
C  C75  1  0.10933261  0.05474695  0.61721233  1  0  0.121496  0  3.74713  0  0  0.090491  0  4.008692  0  0  0.096361  0  4.026303  0  0  0.046633  0.086746  0  3.996607  0
C  C76  1  0.80387981  0.03000282  0.38527359  1  0  -0.145971  0  3.652296  0  0  -0.162464  0  3.89358  0  0  -0.169269  0  3.91385  0  0  -0.072614  -0.158057  0  3.880001  0
C  C77  1  0.19613143  0.96999693  0.61472925  1  0  -0.145998  0  3.652214  0  0  -0.162462  0  3.893496  0  0  -0.169271  0  3.913766  0  0  -0.072618  -0.158055  0  3.879922  0
C  C78  1  0.87554426  0.32715678  0.33142616  1  0  0.685091  0  3.92668  0  0  0.644206  0  4.216783  0  0  0.679987  0  4.211329  0  0  0.203307  0.619693  0  4.219468  0
C  C79  1  0.12445772  0.67283766  0.66857848  1  0  0.685247  0  3.926586  0  0  0.644353  0  4.216681  0  0  0.680139  0  4.211223  0  0  0.203212  0.61984  0  4.21937  0
C  C80  1  0.71274595  0.28399234  0.25684405  1  0  -0.211744  0  3.64638  0  0  -0.225592  0  3.901238  0  0  -0.23523  0  3.916755  0  0  -0.084645  -0.219318  0  3.890919  0
C  C81  1  0.28725483  0.71600211  0.74315979  1  0  -0.211769  0  3.646256  0  0  -0.225569  0  3.901067  0  0  -0.235221  0  3.916599  0  0  -0.084608  -0.219295  0  3.890746  0
C  C82  1  0.69888568  0.21254287  0.16088426  1  0  -0.054858  0  3.72196  0  0  -0.080991  0  3.976067  0  0  -0.079  0  3.993242  0  0  -0.07353  -0.082021  0  3.964289  0
C  C83  1  0.30111696  0.78745333  0.83911888  1  0  -0.054911  0  3.722095  0  0  -0.081073  0  3.976179  0  0  -0.079079  0  3.993354  0  0  -0.073476  -0.082098  0  3.964401  0
C  C84  1  0.54552433  0.16887074  0.08171232  1  0  0.117433  0  3.820954  0  0  0.13268  0  4.055953  0  0  0.135369  0  4.080508  0  0  0.001034  0.131012  0  4.039109  0
C  C85  1  0.45448019  0.83112723  0.91828942  1  0  0.117411  0  3.821179  0  0  0.13275  0  4.056004  0  0  0.135438  0  4.080558  0  0  0.001039  0.131081  0  4.039168  0
C  C86  1  0.55518222  0.12902742  0.97948593  1  0  -0.175014  0  3.72629  0  0  -0.193392  0  3.970636  0  0  -0.200842  0  3.993072  0  0  -0.087722  -0.188466  0  3.955475  0
C  C87  1  0.44481618  0.87097052  0.02051530  1  0  -0.175078  0  3.726264  0  0  -0.193482  0  3.970585  0  0  -0.20093  0  3.993018  0  0  -0.087744  -0.188555  0  3.955427  0
C  C88  1  0.40710179  0.08447589  0.90471874  1  0  0.110373  0  3.770312  0  0  0.089238  0  4.031487  0  0  0.094678  0  4.048787  0  0  0.035404  0.085753  0  4.019608  0
C  C89  1  0.59289509  0.91552117  0.09528210  1  0  0.110422  0  3.770198  0  0  0.089287  0  4.03138  0  0  0.094728  0  4.048679  0  0  0.035396  0.085802  0  4.019503  0
C  C90  1  0.24325350  0.11518693  0.02228445  1  0  0.102029  0  3.782314  0  0  0.078245  0  4.046696  0  0  0.083005  0  4.064257  0  0  0.035945  0.07521  0  4.03466  0
C  C91  1  0.75674703  0.88481015  0.97771739  1  0  0.1019  0  3.782495  0  0  0.078142  0  4.046862  0  0  0.082903  0  4.064421  0  0  0.035899  0.075108  0  4.034828  0
C  C92  1  0.38325542  0.16173051  0.10250762  1  0  -0.166377  0  3.688916  0  0  -0.181893  0  3.929755  0  0  -0.18862  0  3.950549  0  0  -0.080914  -0.17747  0  3.915771  0
C  C93  1  0.61674666  0.83826745  0.89749392  1  0  -0.166225  0  3.689044  0  0  -0.181726  0  3.929809  0  0  -0.188453  0  3.950604  0  0  -0.080818  -0.177305  0  3.915828  0
N  N94  1  0.71686832  0.54358949  0.17420721  1  0  -0.300796  0  3.141149  0  0  -0.239172  0  3.388807  0  0  -0.252229  0  3.403324  0  0  -0.302663  -0.230314  0  3.378967  0
N  N95  1  0.28313317  0.45640675  0.82579169  1  0  -0.300685  0  3.141122  0  0  -0.239039  0  3.388726  0  0  -0.252095  0  3.403244  0  0  -0.302586  -0.230182  0  3.378892  0
N  N96  1  0.81817899  0.83900866  0.37992063  1  0  -0.316823  0  3.151226  0  0  -0.259425  0  3.403906  0  0  -0.272511  0  3.418452  0  0  -0.307606  -0.250474  0  3.393895  0
N  N97  1  0.18181636  0.16098753  0.62007913  1  0  -0.316978  0  3.151203  0  0  -0.259575  0  3.403899  0  0  -0.272661  0  3.418444  0  0  -0.307658  -0.250624  0  3.393886  0
N  N98  1  0.25204309  0.07637031  0.92435037  1  0  -0.319789  0  3.045441  0  0  -0.293615  0  3.317083  0  0  -0.302182  0  3.32943  0  0  -0.33589  -0.287698  0  3.308517  0
N  N99  1  0.74795713  0.92362589  0.07565118  1  0  -0.319847  0  3.045453  0  0  -0.293673  0  3.317088  0  0  -0.302242  0  3.329434  0  0  -0.335928  -0.287757  0  3.308523  0
O  O100  1  0.85615394  0.45032454  0.64454036  1  0  -0.657878  0  1.986887  0  0  -0.603491  0  2.214965  0  0  -0.633903  0  2.206755  0  0  -0.324574  -0.581852  0  2.219776  0
O  O101  1  0.14384729  0.54968126  0.35546071  1  0  -0.657875  0  1.98692  0  0  -0.603439  0  2.215032  0  0  -0.633855  0  2.206823  0  0  -0.324572  -0.581803  0  2.219842  0
O  O102  1  0.68849470  0.56857030  0.69262265  1  0  -0.681034  0  2.012314  0  0  -0.624281  0  2.240905  0  0  -0.655373  0  2.233134  0  0  -0.352794  -0.602097  0  2.245334  0
O  O103  1  0.31149742  0.43143027  0.30737192  1  0  -0.681157  0  2.012271  0  0  -0.624382  0  2.240896  0  0  -0.655474  0  2.233124  0  0  -0.352866  -0.602194  0  2.245314  0
O  O104  1  0.53323455  0.39206970  0.47481100  1  0  -0.738911  0  2.048399  0  0  -0.687572  0  2.309214  0  0  -0.725218  0  2.30295  0  0  -0.396227  -0.660133  0  2.312095  0
O  O105  1  0.46676854  0.60793439  0.52518762  1  0  -0.738812  0  2.048532  0  0  -0.687496  0  2.309344  0  0  -0.725104  0  2.302998  0  0  -0.396182  -0.660056  0  2.312223  0
O  O106  1  0.31201192  0.23837217  0.42224879  1  0  -0.645382  0  1.900091  0  0  -0.60238  0  2.126053  0  0  -0.63293  0  2.118328  0  0  -0.360673  -0.580487  0  2.13049  0
O  O107  1  0.68799814  0.76162412  0.57775014  1  0  -0.645331  0  1.900021  0  0  -0.602345  0  2.125977  0  0  -0.632899  0  2.118252  0  0  -0.360647  -0.580451  0  2.130416  0
O  O108  1  0.88846126  0.41122356  0.41619950  1  0  -0.755718  0  2.076494  0  0  -0.703879  0  2.341859  0  0  -0.743219  0  2.335866  0  0  -0.417962  -0.675144  0  2.344492  0
O  O109  1  0.11154606  0.58877879  0.58380172  1  0  -0.755822  0  2.076535  0  0  -0.704006  0  2.341922  0  0  -0.743328  0  2.335885  0  0  -0.417953  -0.675269  0  2.344553  0
O  O110  1  0.99808007  0.28324976  0.31227191  1  0  -0.63083  0  1.910339  0  0  -0.589823  0  2.134026  0  0  -0.618821  0  2.126155  0  0  -0.347821  -0.569134  0  2.13867  0
O  O111  1  0.00191285  0.71673325  0.68773754  1  0  -0.630946  0  1.910282  0  0  -0.589912  0  2.133936  0  0  -0.618914  0  2.126061  0  0  -0.34777  -0.569224  0  2.138583  0
O  O112  1  0.63393499  0.54140207  0.35019627  1  0  -0.89715  0  1.927012  0  0  -0.845331  0  2.137962  0  0  -0.872743  0  2.105468  0  0  -0.641169  -0.825223  0  2.160392  0
O  O113  1  0.36606562  0.45859505  0.64980074  1  0  -0.897148  0  1.927061  0  0  -0.845322  0  2.138047  0  0  -0.872735  0  2.10555  0  0  -0.641135  -0.825214  0  2.160477  0
O  O114  1  0.96655556  0.69609014  0.45108305  1  0  -0.869521  0  1.862154  0  0  -0.818671  0  2.05775  0  0  -0.844847  0  2.024111  0  0  -0.623451  -0.7995  0  2.081122  0
O  O115  1  0.03344166  0.30391475  0.54891949  1  0  -0.869463  0  1.862143  0  0  -0.818638  0  2.05771  0  0  -0.844811  0  2.024073  0  0  -0.623473  -0.799469  0  2.081084  0
