# generated using pymatgen
data_Cd3H10C10N2(Cl3O)2
_symmetry_space_group_name_H-M   'P 1'
_cell_length_a   7.69003401
_cell_length_b   11.16684159
_cell_length_c   22.80900504
_cell_angle_alpha   90.00003379
_cell_angle_beta   89.99999804
_cell_angle_gamma   89.99999950
_symmetry_Int_Tables_number   1
_chemical_formula_structural   Cd3H10C10N2(Cl3O)2
_chemical_formula_sum   'Cd12 H40 C40 N8 Cl24 O8'
_cell_volume   1958.68662111
_cell_formula_units_Z   4
loop_
 _symmetry_equiv_pos_site_id
 _symmetry_equiv_pos_as_xyz
  1  'x, y, z'
loop_
 _atom_site_type_symbol
 _atom_site_label
 _atom_site_symmetry_multiplicity
 _atom_site_fract_x
 _atom_site_fract_y
 _atom_site_fract_z
 _atom_site_occupancy
 _atom_site_hle17_bader_spin_density
 _atom_site_hle17_ddec_charge
 _atom_site_hle17_ddec_spin_density
 _atom_site_hle17_ddec_sum_bond_order
 _atom_site_hle17_magmom
 _atom_site_hse06_10hf_bader_spin_density
 _atom_site_hse06_10hf_ddec_charge
 _atom_site_hse06_10hf_ddec_spin_density
 _atom_site_hse06_10hf_ddec_sum_bond_order
 _atom_site_hse06_10hf_magmom
 _atom_site_hse06_bader_spin_density
 _atom_site_hse06_ddec_charge
 _atom_site_hse06_ddec_spin_density
 _atom_site_hse06_ddec_sum_bond_order
 _atom_site_hse06_magmom
 _atom_site_pbe_bader_spin_density
 _atom_site_pbe_cm5_charge
 _atom_site_pbe_ddec_charge
 _atom_site_pbe_ddec_spin_density
 _atom_site_pbe_ddec_sum_bond_order
 _atom_site_pbe_magmom
Cd  Cd0  1  0.00000129  0.00000209  0.49999945  1  0  1.054154  0  1.915103  0  0  0.902153  0  2.38449  0  0  0.952143  0  2.335381  0  0  0.586831  0.866826  0  2.418002  0
Cd  Cd1  1  0.50000298  0.50000291  0.50000083  1  0  1.05417  0  1.915063  0  0  0.902167  0  2.38444  0  0  0.952157  0  2.33533  0  0  0.586838  0.866842  0  2.417944  0
Cd  Cd2  1  0.50000297  0.00000239  0.99999934  1  0  1.05419  0  1.915075  0  0  0.902193  0  2.384447  0  0  0.952183  0  2.335337  0  0  0.586849  0.86687  0  2.417952  0
Cd  Cd3  1  0.99999997  0.49999963  0.99999854  1  0  1.054278  0  1.915041  0  0  0.902242  0  2.384417  0  0  0.952231  0  2.335307  0  0  0.586855  0.86691  0  2.417945  0
Cd  Cd4  1  0.28765411  0.22706008  0.58188731  1  0  1.007981  0  1.940249  0  0  0.860925  0  2.404339  0  0  0.908763  0  2.359898  0  0  0.546827  0.826343  0  2.435269  0
Cd  Cd5  1  0.78765450  0.27294413  0.58188819  1  0  1.007971  0  1.940232  0  0  0.860914  0  2.404339  0  0  0.90875  0  2.3599  0  0  0.546797  0.826334  0  2.435259  0
Cd  Cd6  1  0.21234626  0.22705798  0.08188786  1  0  1.007962  0  1.940214  0  0  0.860885  0  2.404356  0  0  0.908723  0  2.359917  0  0  0.546799  0.826302  0  2.435283  0
Cd  Cd7  1  0.71234665  0.27294562  0.08188787  1  0  1.007942  0  1.940206  0  0  0.860881  0  2.404301  0  0  0.908719  0  2.359863  0  0  0.546789  0.826298  0  2.435223  0
Cd  Cd8  1  0.71234664  0.77294396  0.41811216  1  0  1.007987  0  1.940193  0  0  0.860928  0  2.404298  0  0  0.908766  0  2.359858  0  0  0.546804  0.826347  0  2.435225  0
Cd  Cd9  1  0.21234495  0.72705901  0.41811304  1  0  1.007988  0  1.940218  0  0  0.860925  0  2.404327  0  0  0.908761  0  2.359888  0  0  0.546817  0.826339  0  2.435265  0
Cd  Cd10  1  0.78765579  0.77294247  0.91811205  1  0  1.008039  0  1.940193  0  0  0.860926  0  2.404309  0  0  0.908765  0  2.359869  0  0  0.546807  0.826342  0  2.435252  0
Cd  Cd11  1  0.28765800  0.72705752  0.91811249  1  0  1.007995  0  1.94022  0  0  0.860924  0  2.404337  0  0  0.908762  0  2.359896  0  0  0.546823  0.826341  0  2.435276  0
H  H12  1  0.45818261  0.43652401  0.67458889  1  0  0.114034  0  0.969755  0  0  0.11951  0  1.036842  0  0  0.122951  0  1.033526  0  0  0.115028  0.116937  0  1.039349  0
H  H13  1  0.95818690  0.06347314  0.67458620  1  0  0.114012  0  0.969847  0  0  0.119566  0  1.036868  0  0  0.123004  0  1.033554  0  0  0.115073  0.116981  0  1.039385  0
H  H14  1  0.04181515  0.43652551  0.17458681  1  0  0.114018  0  0.969847  0  0  0.119569  0  1.036868  0  0  0.123007  0  1.033554  0  0  0.11506  0.116981  0  1.039382  0
H  H15  1  0.54181815  0.06347463  0.17458587  1  0  0.113999  0  0.969864  0  0  0.119528  0  1.036904  0  0  0.122966  0  1.033591  0  0  0.115062  0.116951  0  1.039415  0
H  H16  1  0.54181554  0.56347465  0.32541410  1  0  0.114005  0  0.969862  0  0  0.119537  0  1.036896  0  0  0.122974  0  1.033583  0  0  0.115085  0.116964  0  1.0394  0
H  H17  1  0.04182035  0.93652373  0.32541328  1  0  0.113984  0  0.969794  0  0  0.119478  0  1.036874  0  0  0.122917  0  1.033561  0  0  0.115047  0.116899  0  1.039384  0
H  H18  1  0.95818040  0.56347137  0.82541223  1  0  0.114003  0  0.969712  0  0  0.119518  0  1.036795  0  0  0.122958  0  1.033479  0  0  0.115034  0.116943  0  1.039299  0
H  H19  1  0.45818391  0.93652493  0.82541272  1  0  0.113951  0  0.969859  0  0  0.11945  0  1.036934  0  0  0.122888  0  1.033621  0  0  0.115052  0.116875  0  1.03944  0
H  H20  1  0.38334679  0.57916869  0.75813530  1  0  0.11959  0  0.950975  0  0  0.127212  0  1.009669  0  0  0.130471  0  1.009275  0  0  0.104274  0.124811  0  1.010209  0
H  H21  1  0.88335498  0.92082842  0.75813184  1  0  0.119573  0  0.950933  0  0  0.1272  0  1.009618  0  0  0.130466  0  1.009205  0  0  0.104282  0.124801  0  1.010153  0
H  H22  1  0.11664837  0.57916929  0.25813278  1  0  0.119629  0  0.950964  0  0  0.127252  0  1.009648  0  0  0.130518  0  1.009233  0  0  0.10431  0.124849  0  1.010185  0
H  H23  1  0.61664876  0.92082991  0.25813239  1  0  0.119602  0  0.950933  0  0  0.127233  0  1.009612  0  0  0.130499  0  1.009199  0  0  0.104316  0.124835  0  1.01015  0
H  H24  1  0.61664356  0.42082818  0.24186812  1  0  0.119558  0  0.950946  0  0  0.127187  0  1.009633  0  0  0.130452  0  1.00922  0  0  0.10428  0.124785  0  1.010165  0
H  H25  1  0.11664967  0.07916846  0.24186720  1  0  0.119591  0  0.950953  0  0  0.127221  0  1.009636  0  0  0.130488  0  1.009217  0  0  0.10429  0.124821  0  1.01018  0
H  H26  1  0.88334978  0.42082489  0.74186626  1  0  0.119572  0  0.950983  0  0  0.127203  0  1.009662  0  0  0.130466  0  1.009253  0  0  0.104282  0.124802  0  1.010208  0
H  H27  1  0.38334939  0.07916965  0.74186621  1  0  0.119609  0  0.950906  0  0  0.127234  0  1.009598  0  0  0.130499  0  1.009189  0  0  0.104273  0.12483  0  1.010139  0
H  H28  1  0.15498629  0.73537310  0.74122227  1  0  0.105548  0  0.973448  0  0  0.11416  0  1.036752  0  0  0.117379  0  1.034168  0  0  0.094921  0.11169  0  1.038738  0
H  H29  1  0.65499058  0.76462488  0.74122051  1  0  0.105553  0  0.973416  0  0  0.114202  0  1.036673  0  0  0.117415  0  1.034097  0  0  0.094949  0.111735  0  1.038659  0
H  H30  1  0.34501147  0.73537370  0.24122106  1  0  0.105523  0  0.973435  0  0  0.114182  0  1.036686  0  0  0.117387  0  1.03412  0  0  0.094938  0.111713  0  1.038676  0
H  H31  1  0.84501056  0.76462548  0.24122018  1  0  0.105538  0  0.973457  0  0  0.11419  0  1.036714  0  0  0.117396  0  1.034146  0  0  0.094931  0.111724  0  1.038698  0
H  H32  1  0.84500406  0.26462198  0.25877984  1  0  0.105565  0  0.97346  0  0  0.11421  0  1.036715  0  0  0.117434  0  1.034131  0  0  0.094977  0.111739  0  1.038701  0
H  H33  1  0.34500887  0.23537557  0.25877896  1  0  0.105549  0  0.973451  0  0  0.114161  0  1.03675  0  0  0.117386  0  1.03416  0  0  0.094914  0.111689  0  1.038737  0
H  H34  1  0.65499188  0.26461780  0.75877929  1  0  0.10554  0  0.973503  0  0  0.114166  0  1.036762  0  0  0.117385  0  1.034184  0  0  0.094954  0.111696  0  1.038746  0
H  H35  1  0.15498759  0.23537319  0.75877929  1  0  0.10556  0  0.973398  0  0  0.114182  0  1.036695  0  0  0.117388  0  1.034125  0  0  0.094923  0.111712  0  1.038683  0
H  H36  1  0.00870866  0.74420365  0.64171683  1  0  0.111253  0  0.953635  0  0  0.11877  0  1.014844  0  0  0.121021  0  1.016098  0  0  0.105983  0.117034  0  1.014447  0
H  H37  1  0.50870644  0.75579780  0.64171595  1  0  0.111249  0  0.953557  0  0  0.118776  0  1.014757  0  0  0.121029  0  1.01601  0  0  0.105983  0.117034  0  1.014379  0
H  H38  1  0.49129431  0.74420066  0.14171606  1  0  0.111237  0  0.953633  0  0  0.118764  0  1.014832  0  0  0.121016  0  1.016086  0  0  0.105985  0.117028  0  1.014433  0
H  H39  1  0.99129340  0.75579570  0.14171518  1  0  0.111235  0  0.953623  0  0  0.118761  0  1.014816  0  0  0.121015  0  1.016069  0  0  0.105984  0.117016  0  1.014439  0
H  H40  1  0.99128689  0.25579501  0.35828440  1  0  0.111208  0  0.953657  0  0  0.118727  0  1.01487  0  0  0.120979  0  1.016123  0  0  0.105968  0.116988  0  1.014486  0
H  H41  1  0.49129301  0.24420534  0.35828352  1  0  0.111233  0  0.953615  0  0  0.118753  0  1.014827  0  0  0.121006  0  1.01608  0  0  0.105973  0.117009  0  1.01445  0
H  H42  1  0.50870644  0.25579263  0.85828385  1  0  0.111204  0  0.953692  0  0  0.118768  0  1.014847  0  0  0.121022  0  1.016099  0  0  0.105985  0.117024  0  1.014464  0
H  H43  1  0.00870605  0.24420296  0.85828386  1  0  0.111226  0  0.95356  0  0  0.118741  0  1.014772  0  0  0.120993  0  1.016026  0  0  0.10597  0.116996  0  1.014391  0
H  H44  1  0.09466537  0.59357641  0.56530094  1  0  0.12684  0  0.944771  0  0  0.132223  0  1.010264  0  0  0.136003  0  1.005985  0  0  0.116594  0.129439  0  1.013326  0
H  H45  1  0.59466185  0.90642763  0.56530098  1  0  0.126878  0  0.944788  0  0  0.132267  0  1.010243  0  0  0.136044  0  1.005962  0  0  0.116615  0.129484  0  1.013298  0
H  H46  1  0.40533761  0.59357253  0.06530061  1  0  0.126878  0  0.944849  0  0  0.132258  0  1.010304  0  0  0.136034  0  1.006022  0  0  0.116621  0.129473  0  1.013368  0
H  H47  1  0.90533929  0.90642643  0.06529977  1  0  0.126853  0  0.944803  0  0  0.132255  0  1.010264  0  0  0.136032  0  1.005982  0  0  0.116615  0.129469  0  1.013329  0
H  H48  1  0.90533799  0.40642583  0.43469898  1  0  0.126859  0  0.944855  0  0  0.132242  0  1.010329  0  0  0.136017  0  1.006047  0  0  0.116624  0.129458  0  1.013393  0
H  H49  1  0.40534020  0.09357641  0.43469937  1  0  0.12684  0  0.944812  0  0  0.132218  0  1.010304  0  0  0.135997  0  1.006022  0  0  0.116598  0.129434  0  1.013368  0
H  H50  1  0.59465924  0.40642345  0.93469843  1  0  0.126837  0  0.94481  0  0  0.132219  0  1.010309  0  0  0.135995  0  1.006028  0  0  0.116569  0.129433  0  1.013375  0
H  H51  1  0.09466276  0.09357402  0.93470014  1  0  0.126885  0  0.944717  0  0  0.132288  0  1.010177  0  0  0.136066  0  1.005894  0  0  0.116632  0.129504  0  1.013236  0
C  C52  1  0.36095807  0.50703365  0.67155676  1  0  0.018692  0  3.593932  0  0  -0.022413  0  3.850414  0  0  -0.014922  0  3.8631  0  0  0.039817  -0.027277  0  3.842196  0
C  C53  1  0.86096366  0.99296873  0.67155288  1  0  0.018835  0  3.59394  0  0  -0.022398  0  3.850494  0  0  -0.01491  0  3.863181  0  0  0.039826  -0.027255  0  3.842284  0
C  C54  1  0.13903709  0.50703067  0.17155337  1  0  0.018705  0  3.594012  0  0  -0.022528  0  3.85057  0  0  -0.01504  0  3.863258  0  0  0.039797  -0.02738  0  3.842347  0
C  C55  1  0.63904008  0.99296843  0.17155300  1  0  0.018769  0  3.594035  0  0  -0.022447  0  3.850611  0  0  -0.014957  0  3.863299  0  0  0.039793  -0.027312  0  3.842397  0
C  C56  1  0.63903618  0.49296680  0.32844710  1  0  0.018839  0  3.594037  0  0  -0.022366  0  3.850591  0  0  -0.014877  0  3.863279  0  0  0.039822  -0.027233  0  3.842369  0
C  C57  1  0.13904489  0.00703531  0.32844528  1  0  0.018918  0  3.5941  0  0  -0.022212  0  3.850593  0  0  -0.014723  0  3.863281  0  0  0.039851  -0.02707  0  3.842366  0
C  C58  1  0.86095586  0.49296352  0.82844523  1  0  0.018895  0  3.59384  0  0  -0.022302  0  3.850418  0  0  -0.014811  0  3.863103  0  0  0.039856  -0.027163  0  3.842193  0
C  C59  1  0.36095937  0.00703471  0.82844473  1  0  0.018871  0  3.594153  0  0  -0.022278  0  3.850656  0  0  -0.014788  0  3.863345  0  0  0.039837  -0.027148  0  3.842434  0
C  C60  1  0.31667218  0.58568618  0.71606858  1  0  -0.098013  0  3.734948  0  0  -0.103488  0  3.98005  0  0  -0.110851  0  4.00069  0  0  -0.07713  -0.098893  0  3.96628  0
C  C61  1  0.81667907  0.91431088  0.71606731  1  0  -0.098078  0  3.734769  0  0  -0.103547  0  3.979956  0  0  -0.110905  0  4.000596  0  0  -0.077191  -0.098955  0  3.966187  0
C  C62  1  0.18332428  0.58568767  0.21606782  1  0  -0.098125  0  3.734936  0  0  -0.103584  0  3.980102  0  0  -0.110942  0  4.000741  0  0  -0.077204  -0.098986  0  3.966321  0
C  C63  1  0.68332337  0.91431237  0.21606654  1  0  -0.098095  0  3.734878  0  0  -0.103559  0  3.980045  0  0  -0.110916  0  4.000683  0  0  -0.077226  -0.098962  0  3.966275  0
C  C64  1  0.68331817  0.41430980  0.28393309  1  0  -0.098032  0  3.734645  0  0  -0.103505  0  3.979825  0  0  -0.110863  0  4.000467  0  0  -0.077184  -0.09891  0  3.966047  0
C  C65  1  0.18332298  0.08568599  0.28393304  1  0  -0.098169  0  3.734991  0  0  -0.103661  0  3.980139  0  0  -0.111021  0  4.000784  0  0  -0.07722  -0.099074  0  3.966378  0
C  C66  1  0.81667517  0.41430652  0.78393166  1  0  -0.098129  0  3.734899  0  0  -0.103599  0  3.980039  0  0  -0.110958  0  4.00068  0  0  -0.077218  -0.099007  0  3.966269  0
C  C67  1  0.31667738  0.08568450  0.78393337  1  0  -0.09813  0  3.734948  0  0  -0.103613  0  3.980097  0  0  -0.110974  0  4.000736  0  0  -0.07719  -0.09901  0  3.966319  0
C  C68  1  0.19001214  0.67329913  0.70633779  1  0  -0.018646  0  3.697801  0  0  -0.042148  0  3.945887  0  0  -0.037359  0  3.962283  0  0  -0.071205  -0.044861  0  3.934661  0
C  C69  1  0.69001643  0.82670240  0.70633474  1  0  -0.018631  0  3.697847  0  0  -0.042153  0  3.945906  0  0  -0.037365  0  3.962309  0  0  -0.071201  -0.044866  0  3.934682  0
C  C70  1  0.30998302  0.67329704  0.20633527  1  0  -0.018532  0  3.6979  0  0  -0.04206  0  3.945952  0  0  -0.037266  0  3.962362  0  0  -0.071165  -0.044774  0  3.934728  0
C  C71  1  0.80998471  0.82670120  0.20633529  1  0  -0.018596  0  3.697808  0  0  -0.042124  0  3.945858  0  0  -0.037329  0  3.962264  0  0  -0.071151  -0.044841  0  3.93463  0
C  C72  1  0.80997820  0.32669864  0.29366607  1  0  -0.018661  0  3.697771  0  0  -0.04218  0  3.94583  0  0  -0.037403  0  3.962229  0  0  -0.071229  -0.04489  0  3.9346  0
C  C73  1  0.30998432  0.17330164  0.29366386  1  0  -0.018638  0  3.697701  0  0  -0.04214  0  3.945788  0  0  -0.037358  0  3.96218  0  0  -0.071211  -0.044849  0  3.93456  0
C  C74  1  0.69001513  0.32669446  0.79366421  1  0  -0.018544  0  3.697888  0  0  -0.042045  0  3.94596  0  0  -0.037263  0  3.96236  0  0  -0.071158  -0.04476  0  3.934734  0
C  C75  1  0.19001344  0.17330015  0.79366331  1  0  -0.018637  0  3.6976  0  0  -0.042148  0  3.945678  0  0  -0.037349  0  3.962083  0  0  -0.071199  -0.044862  0  3.934447  0
C  C76  1  0.10860938  0.67840708  0.65177338  1  0  -0.083075  0  3.73098  0  0  -0.093919  0  3.983054  0  0  -0.100284  0  4.002897  0  0  -0.075062  -0.090265  0  3.970554  0
C  C77  1  0.60861237  0.82159349  0.65177339  1  0  -0.083047  0  3.730763  0  0  -0.093905  0  3.982812  0  0  -0.100272  0  4.002653  0  0  -0.075065  -0.090254  0  3.970312  0
C  C78  1  0.39139098  0.67840767  0.15177392  1  0  -0.083038  0  3.730701  0  0  -0.093924  0  3.982769  0  0  -0.100287  0  4.002602  0  0  -0.075103  -0.090271  0  3.970276  0
C  C79  1  0.89138877  0.82159319  0.15177175  1  0  -0.083028  0  3.730907  0  0  -0.093854  0  3.982952  0  0  -0.100221  0  4.002795  0  0  -0.075046  -0.090196  0  3.970448  0
C  C80  1  0.89138617  0.32158890  0.34822654  1  0  -0.08301  0  3.730802  0  0  -0.093854  0  3.982858  0  0  -0.100221  0  4.002705  0  0  -0.075074  -0.090204  0  3.970357  0
C  C81  1  0.39138968  0.17840876  0.34822696  1  0  -0.08304  0  3.730806  0  0  -0.093888  0  3.982849  0  0  -0.100256  0  4.002698  0  0  -0.075032  -0.090229  0  3.970344  0
C  C82  1  0.60860847  0.32158831  0.84822643  1  0  -0.083089  0  3.730876  0  0  -0.093977  0  3.982969  0  0  -0.100341  0  4.002807  0  0  -0.075116  -0.090319  0  3.970458  0
C  C83  1  0.10861068  0.17840548  0.84822817  1  0  -0.083066  0  3.730964  0  0  -0.093881  0  3.982999  0  0  -0.100249  0  4.002842  0  0  -0.075067  -0.090229  0  3.970494  0
C  C84  1  0.15370672  0.59732325  0.60850054  1  0  0.03925  0  3.573824  0  0  -0.003681  0  3.833819  0  0  0.005179  0  3.844091  0  0  0.044882  -0.00964  0  3.827741  0
C  C85  1  0.65370580  0.90268085  0.60849751  1  0  0.039084  0  3.573611  0  0  -0.00383  0  3.833612  0  0  0.005033  0  3.843883  0  0  0.044807  -0.009791  0  3.827526  0
C  C86  1  0.34629235  0.59731847  0.10849714  1  0  0.039011  0  3.5736  0  0  -0.003865  0  3.833572  0  0  0.004998  0  3.843847  0  0  0.044803  -0.009828  0  3.827498  0
C  C87  1  0.84629534  0.90267786  0.10849806  1  0  0.039125  0  3.57375  0  0  -0.003852  0  3.833805  0  0  0.005007  0  3.844084  0  0  0.044779  -0.009812  0  3.827729  0
C  C88  1  0.84629404  0.40267810  0.39150332  1  0  0.039088  0  3.573515  0  0  -0.003834  0  3.833528  0  0  0.005031  0  3.843798  0  0  0.044781  -0.009795  0  3.827454  0
C  C89  1  0.34629755  0.09732498  0.39150152  1  0  0.039239  0  3.573619  0  0  -0.003662  0  3.833583  0  0  0.00521  0  3.843833  0  0  0.044883  -0.009629  0  3.827511  0
C  C90  1  0.65370190  0.40267393  0.89150146  1  0  0.039212  0  3.573515  0  0  -0.003722  0  3.833541  0  0  0.005143  0  3.843807  0  0  0.044857  -0.009682  0  3.827463  0
C  C91  1  0.15370671  0.09732349  0.89150054  1  0  0.039099  0  3.573738  0  0  -0.00388  0  3.833802  0  0  0.004985  0  3.844068  0  0  0.044776  -0.009839  0  3.827717  0
N  N92  1  0.27841878  0.51458903  0.61899200  1  0  0.268295  0  3.680352  0  0  0.318829  0  3.94013  0  0  0.316997  0  3.961309  0  0  -0.123732  0.319301  0  3.925992  0
N  N93  1  0.77842047  0.98541240  0.61899119  1  0  0.268428  0  3.680399  0  0  0.318992  0  3.940179  0  0  0.317162  0  3.961357  0  0  -0.123662  0.319465  0  3.926037  0
N  N94  1  0.22157899  0.51458783  0.11899123  1  0  0.268547  0  3.680385  0  0  0.319098  0  3.940157  0  0  0.317267  0  3.961337  0  0  -0.123637  0.319569  0  3.926012  0
N  N95  1  0.72158328  0.98541210  0.11899042  1  0  0.26844  0  3.680349  0  0  0.319017  0  3.940121  0  0  0.317185  0  3.9613  0  0  -0.123667  0.319483  0  3.925991  0
N  N96  1  0.72157807  0.48541143  0.38100835  1  0  0.268444  0  3.680286  0  0  0.319004  0  3.94006  0  0  0.317173  0  3.961238  0  0  -0.123614  0.319477  0  3.925922  0
N  N97  1  0.22158159  0.01458895  0.38100873  1  0  0.268285  0  3.680373  0  0  0.318816  0  3.940153  0  0  0.316984  0  3.961331  0  0  -0.123699  0.319293  0  3.926011  0
N  N98  1  0.77841656  0.48540994  0.88100737  1  0  0.268502  0  3.680183  0  0  0.319006  0  3.93998  0  0  0.317175  0  3.961158  0  0  -0.123565  0.319477  0  3.925843  0
N  N99  1  0.27842007  0.01458836  0.88100906  1  0  0.268492  0  3.680219  0  0  0.319049  0  3.939985  0  0  0.317218  0  3.961164  0  0  -0.123614  0.319523  0  3.925844  0
Cl  Cl100  1  0.54087015  0.21690864  0.65767404  1  0  -0.560945  0  1.048191  0  0  -0.497843  0  1.327797  0  0  -0.518595  0  1.307321  0  0  -0.283679  -0.482384  0  1.342002  0
Cl  Cl101  1  0.04087236  0.28309298  0.65767450  1  0  -0.560972  0  1.048222  0  0  -0.497891  0  1.327853  0  0  -0.51864  0  1.307372  0  0  -0.283693  -0.482424  0  1.342052  0
Cl  Cl102  1  0.95912709  0.21690923  0.15767503  1  0  -0.560932  0  1.048177  0  0  -0.497835  0  1.327785  0  0  -0.518589  0  1.307309  0  0  -0.283682  -0.48237  0  1.341981  0
Cl  Cl103  1  0.45913060  0.28309267  0.15767504  1  0  -0.560932  0  1.048161  0  0  -0.497829  0  1.327772  0  0  -0.518582  0  1.307296  0  0  -0.283681  -0.482365  0  1.341964  0
Cl  Cl104  1  0.45912800  0.78309003  0.34232587  1  0  -0.560956  0  1.048191  0  0  -0.497881  0  1.327828  0  0  -0.518631  0  1.307348  0  0  -0.28369  -0.482424  0  1.342036  0
Cl  Cl105  1  0.95913099  0.71691017  0.34232542  1  0  -0.56093  0  1.048152  0  0  -0.497832  0  1.327766  0  0  -0.518582  0  1.307286  0  0  -0.283675  -0.482371  0  1.341974  0
Cl  Cl106  1  0.04087496  0.78309122  0.84232620  1  0  -0.560952  0  1.048174  0  0  -0.497843  0  1.327793  0  0  -0.518595  0  1.307314  0  0  -0.283683  -0.482378  0  1.342004  0
Cl  Cl107  1  0.54087275  0.71691226  0.84232531  1  0  -0.560922  0  1.048181  0  0  -0.497837  0  1.327833  0  0  -0.518587  0  1.307355  0  0  -0.283666  -0.482376  0  1.342055  0
Cl  Cl108  1  0.24650084  0.99864978  0.57814768  1  0  -0.557543  0  1.009667  0  0  -0.4924  0  1.288119  0  0  -0.515677  0  1.268368  0  0  -0.302908  -0.475432  0  1.301686  0
Cl  Cl109  1  0.74649863  0.50135428  0.57815067  1  0  -0.557539  0  1.009673  0  0  -0.492393  0  1.288119  0  0  -0.51567  0  1.268369  0  0  -0.302901  -0.475426  0  1.301683  0
Cl  Cl110  1  0.25350082  0.99864769  0.07814735  1  0  -0.557553  0  1.009673  0  0  -0.492406  0  1.288127  0  0  -0.515684  0  1.268376  0  0  -0.30291  -0.475438  0  1.301695  0
Cl  Cl111  1  0.75349731  0.50135756  0.07814596  1  0  -0.557525  0  1.009612  0  0  -0.492374  0  1.288056  0  0  -0.515651  0  1.268306  0  0  -0.302899  -0.475405  0  1.30162  0
Cl  Cl112  1  0.75350251  0.00135515  0.42185049  1  0  -0.557529  0  1.009662  0  0  -0.492388  0  1.28812  0  0  -0.515666  0  1.268368  0  0  -0.3029  -0.475421  0  1.301684  0
Cl  Cl113  1  0.25349692  0.49864975  0.42185363  1  0  -0.557552  0  1.009658  0  0  -0.492407  0  1.288113  0  0  -0.515684  0  1.268361  0  0  -0.30292  -0.475436  0  1.30168  0
Cl  Cl114  1  0.74649733  0.00135366  0.92185038  1  0  -0.557548  0  1.00967  0  0  -0.492403  0  1.288132  0  0  -0.515681  0  1.268381  0  0  -0.302909  -0.475432  0  1.301699  0
Cl  Cl115  1  0.24649824  0.49864558  0.92185089  1  0  -0.55757  0  1.009662  0  0  -0.492429  0  1.288132  0  0  -0.515706  0  1.268381  0  0  -0.302924  -0.475453  0  1.301701  0
Cl  Cl116  1  0.54135780  0.26197500  0.49836899  1  0  -0.525512  0  1.102461  0  0  -0.454515  0  1.404307  0  0  -0.477727  0  1.381951  0  0  -0.257617  -0.43741  0  1.419842  0
Cl  Cl117  1  0.04135221  0.23803090  0.49836943  1  0  -0.525504  0  1.102435  0  0  -0.454531  0  1.40431  0  0  -0.477739  0  1.381954  0  0  -0.257612  -0.437425  0  1.41985  0
Cl  Cl118  1  0.95864463  0.26197082  0.99837019  1  0  -0.525542  0  1.1025  0  0  -0.454556  0  1.404369  0  0  -0.477766  0  1.382012  0  0  -0.257616  -0.437451  0  1.419907  0
Cl  Cl119  1  0.45864554  0.23803120  0.99836931  1  0  -0.525522  0  1.10245  0  0  -0.454548  0  1.404337  0  0  -0.477759  0  1.381982  0  0  -0.257628  -0.437445  0  1.419869  0
Cl  Cl120  1  0.45864685  0.73803083  0.50163005  1  0  -0.525528  0  1.102466  0  0  -0.454552  0  1.404335  0  0  -0.47776  0  1.381978  0  0  -0.257618  -0.437448  0  1.419871  0
Cl  Cl121  1  0.95864464  0.76197403  0.50163136  1  0  -0.525532  0  1.102466  0  0  -0.45453  0  1.404299  0  0  -0.47774  0  1.381943  0  0  -0.257628  -0.437428  0  1.41984  0
Cl  Cl122  1  0.04135482  0.73802784  0.00163016  1  0  -0.525538  0  1.10247  0  0  -0.454554  0  1.404343  0  0  -0.477763  0  1.381987  0  0  -0.257613  -0.437443  0  1.419886  0
Cl  Cl123  1  0.54135781  0.76197373  0.00163148  1  0  -0.525532  0  1.102435  0  0  -0.454543  0  1.404296  0  0  -0.47775  0  1.381938  0  0  -0.257626  -0.437434  0  1.41984  0
O  O124  1  0.31949012  0.43843049  0.57587568  1  0  -0.594814  0  2.008184  0  0  -0.532261  0  2.284604  0  0  -0.55939  0  2.281084  0  0  -0.27039  -0.512766  0  2.286533  0
O  O125  1  0.81949051  0.06157192  0.57587431  1  0  -0.594894  0  2.008207  0  0  -0.532378  0  2.284653  0  0  -0.559503  0  2.281129  0  0  -0.270435  -0.512883  0  2.286578  0
O  O126  1  0.18050895  0.43842930  0.07587404  1  0  -0.594887  0  2.008125  0  0  -0.532363  0  2.284569  0  0  -0.559488  0  2.281045  0  0  -0.270424  -0.512873  0  2.286508  0
O  O127  1  0.68051324  0.06157162  0.07587442  1  0  -0.594904  0  2.008225  0  0  -0.532369  0  2.284631  0  0  -0.559495  0  2.281111  0  0  -0.270411  -0.512863  0  2.286539  0
O  O128  1  0.68051323  0.56157175  0.42412598  1  0  -0.594913  0  2.008116  0  0  -0.53238  0  2.284538  0  0  -0.559505  0  2.281016  0  0  -0.270443  -0.512883  0  2.286466  0
O  O129  1  0.18051544  0.93843033  0.42412604  1  0  -0.594873  0  2.008263  0  0  -0.532322  0  2.284677  0  0  -0.559454  0  2.281159  0  0  -0.270418  -0.512812  0  2.286567  0
O  O130  1  0.81948530  0.56156847  0.92412500  1  0  -0.595201  0  2.008279  0  0  -0.532494  0  2.284574  0  0  -0.559623  0  2.281056  0  0  -0.270504  -0.51299  0  2.286486  0
O  O131  1  0.31949141  0.93842973  0.92412549  1  0  -0.594897  0  2.008185  0  0  -0.532341  0  2.284592  0  0  -0.559469  0  2.281071  0  0  -0.270417  -0.512854  0  2.286537  0
