# generated using pymatgen
data_Ag4H44C52(N2O3)3
_symmetry_space_group_name_H-M   'P 1'
_cell_length_a   9.70164468
_cell_length_b   10.44656560
_cell_length_c   13.12314318
_cell_angle_alpha   74.98553180
_cell_angle_beta   75.70895333
_cell_angle_gamma   78.73148357
_symmetry_Int_Tables_number   1
_chemical_formula_structural   Ag4H44C52(N2O3)3
_chemical_formula_sum   'Ag4 H44 C52 N6 O9'
_cell_volume   1232.51693102
_cell_formula_units_Z   1
loop_
 _symmetry_equiv_pos_site_id
 _symmetry_equiv_pos_as_xyz
  1  'x, y, z'
loop_
 _atom_site_type_symbol
 _atom_site_label
 _atom_site_symmetry_multiplicity
 _atom_site_fract_x
 _atom_site_fract_y
 _atom_site_fract_z
 _atom_site_occupancy
 _atom_site_pbe_bader_charge
 _atom_site_pbe_bader_spin_density
 _atom_site_pbe_cm5_charge
 _atom_site_pbe_ddec_charge
 _atom_site_pbe_ddec_spin_density
 _atom_site_pbe_ddec_sum_bond_order
 _atom_site_pbe_magmom
Ag  Ag0  1  0.74058627  0.60765727  0.11034454  1  0.546118  0  0.463666  0.322766  0  1.897924  0
Ag  Ag1  1  0.97899800  0.63370813  0.73198643  1  0.538414  0  0.475297  0.32978  0  1.859727  0
Ag  Ag2  1  0.31959741  0.62638209  0.38608549  1  0.540652  0  0.501074  0.335985  0  1.847371  0
Ag  Ag3  1  0.91240813  0.22332208  0.47116207  1  0.57475  0  0.437997  0.441173  0  1.736981  0
H  H4  1  0.69510664  0.74582600  0.64499842  1  0.643735  0  0.265349  0.366435  0  0.99202  0
H  H5  1  0.73823747  0.62971011  0.57920462  1  0.587719  0  0.299021  0.382128  0  0.91542  0
H  H6  1  0.43035083  0.54456145  0.14860008  1  0.104355  0  0.110887  0.085067  0  1.015001  0
H  H7  1  0.27374311  0.38625235  0.27668427  1  0.155439  0  0.105112  0.12551  0  1.058386  0
H  H8  1  0.62898868  0.20371496  0.43187573  1  0.137834  0  0.108028  0.127891  0  1.028913  0
H  H9  1  0.77076055  0.37901953  0.30352618  1  0.109526  0  0.110281  0.083969  0  1.04123  0
H  H10  1  0.94733316  0.83458950  0.52704363  1  0.156726  0  0.121905  0.113947  0  0.988868  0
H  H11  1  0.08298715  0.00452873  0.38770291  1  0.129445  0  0.104099  0.123453  0  1.036965  0
H  H12  1  0.43128639  0.87477149  0.55926780  1  0.145263  0  0.109783  0.132849  0  1.04261  0
H  H13  1  0.28261506  0.70959233  0.69077088  1  0.067321  0  0.114217  0.084286  0  0.994857  0
H  H14  1  0.23542075  0.22722284  0.45423188  1  0.056675  0  0.088856  0.094206  0  1.026863  0
H  H15  1  0.38605536  0.14087363  0.51352469  1  0.105133  0  0.095579  0.111919  0  1.020594  0
H  H16  1  0.31387343  0.09566756  0.31163303  1  0.038016  0  0.091898  0.097145  0  0.98944  0
H  H17  1  0.46697216  0.01537368  0.36725930  1  0.060895  0  0.095827  0.1038  0  0.993626  0
H  H18  1  0.68531980  0.78277927  0.88276767  1  0.118862  0  0.113764  0.09185  0  1.019846  0
H  H19  1  0.80089785  0.95566498  0.73680349  1  0.148467  0  0.111831  0.138347  0  1.027649  0
H  H20  1  0.11082525  0.93302808  0.92847533  1  0.072132  0  0.105184  0.113289  0  1.025935  0
H  H21  1  0.98040606  0.76439919  0.07070761  1  0.135551  0  0.117036  0.094313  0  1.03716  0
H  H22  1  0.01780415  0.55396957  0.44378250  1  0.1619  0  0.127099  0.112395  0  0.963466  0
H  H23  1  0.87075566  0.39964402  0.59014693  1  0.14021  0  0.103036  0.118156  0  1.051209  0
H  H24  1  0.24657042  0.25542386  0.72991374  1  0.094589  0  0.101251  0.109405  0  1.069361  0
H  H25  1  0.37610762  0.42023413  0.58418245  1  0.129326  0  0.113457  0.093936  0  1.0199  0
H  H26  1  0.02104893  0.06243944  0.65464575  1  0.074827  0  0.091762  0.095499  0  1.027267  0
H  H27  1  0.15360034  0.04920943  0.73069055  1  0.068049  0  0.093044  0.096702  0  1.002341  0
H  H28  1  0.85807276  0.22354394  0.75736868  1  0.053633  0  0.096454  0.107602  0  0.992543  0
H  H29  1  0.98803214  0.20887691  0.83590498  1  0.02113  0  0.090853  0.094631  0  0.999925  0
H  H30  1  0.68974879  0.54901646  0.78975881  1  0.134762  0  0.1181  0.096886  0  1.006421  0
H  H31  1  0.54671062  0.38586788  0.93162802  1  0.073347  0  0.100214  0.105922  0  1.071132  0
H  H32  1  0.90781110  0.26342080  0.08806244  1  0.138779  0  0.107853  0.135281  0  1.029954  0
H  H33  1  0.03331716  0.43545206  0.94403804  1  0.113616  0  0.105359  0.070872  0  1.081938  0
H  H34  1  0.29622033  0.82936430  0.18545269  1  0.138566  0  0.121626  0.107429  0  0.985789  0
H  H35  1  0.43459091  0.00478026  0.05445142  1  0.110446  0  0.102168  0.111044  0  1.05324  0
H  H36  1  0.76599965  0.87620917  0.24122280  1  0.130294  0  0.123291  0.144435  0  0.957648  0
H  H37  1  0.61669109  0.70784801  0.36348992  1  0.102018  0  0.12744  0.104213  0  0.963741  0
H  H38  1  0.52347036  0.22710533  0.10427631  1  0.034266  0  0.094831  0.101828  0  0.9937  0
H  H39  1  0.66157590  0.18907168  0.17922241  1  0.06568  0  0.100204  0.113088  0  0.986763  0
H  H40  1  0.80672386  0.03832293  0.06125392  1  0.064935  0  0.096905  0.101192  0  0.991855  0
H  H41  1  0.67474598  0.07862318  0.98106284  1  0.028086  0  0.096634  0.105041  0  0.978889  0
H  H42  1  0.19997900  0.15378926  0.09483486  1  0.078338  0  0.098862  0.099289  0  1.034924  0
H  H43  1  0.34334663  0.50005777  0.85800059  1  0.065687  0  0.100577  0.10189  0  1.008777  0
H  H44  1  0.22940983  0.63869731  0.98974488  1  0.035501  0  0.09859  0.099821  0  1.009851  0
H  H45  1  0.50057732  0.36258809  0.78285323  1  0.077525  0  0.099174  0.100519  0  1.03703  0
H  H46  1  0.22981377  0.06532525  0.97068539  1  0.053131  0  0.099164  0.09844  0  1.020138  0
H  H47  1  0.35918774  0.91389395  0.84958480  1  0.050077  0  0.099918  0.10202  0  1.012667  0
C  C48  1  0.47213179  0.46824703  0.21188461  1  0.459574  0  0.024715  0.060999  0  3.99997  0
C  C49  1  0.38511687  0.37834999  0.28266229  1  -0.089765  0  -0.096537  -0.197814  0  3.957755  0
C  C50  1  0.43956759  0.27952148  0.36332978  1  0.00957  0  0.015038  0.178257  0  3.914919  0
C  C51  1  0.58165782  0.27838779  0.37018745  1  -0.051318  0  -0.079831  -0.175434  0  3.899683  0
C  C52  1  0.66137424  0.37425328  0.29858694  1  0.469545  0  0.040242  0.086934  0  3.929518  0
C  C53  1  0.05453847  0.84794023  0.53115102  1  0.454883  0  0.042873  0.087765  0  3.917376  0
C  C54  1  0.13121805  0.94239271  0.45440180  1  -0.070266  0  -0.09033  -0.213839  0  3.973055  0
C  C55  1  0.26858978  0.95550613  0.46339412  1  -0.017744  0  0.015877  0.175081  0  3.930317  0
C  C56  1  0.32438745  0.86855200  0.54939079  1  0.015865  0  -0.086964  -0.185874  0  3.924643  0
C  C57  1  0.24177596  0.77726967  0.62289418  1  0.430271  0  0.032538  0.063019  0  3.994541  0
C  C58  1  0.34756604  0.17930115  0.43788371  1  -0.056254  0  -0.162068  -0.198768  0  3.885579  0
C  C59  1  0.35393323  0.05968265  0.38685712  1  -0.047094  0  -0.15443  -0.179564  0  3.887618  0
C  C60  1  0.77994727  0.81728402  0.89151109  1  0.428446  0  0.036448  0.071478  0  3.973773  0
C  C61  1  0.84519576  0.91397306  0.80906035  1  0.004091  0  -0.088409  -0.190513  0  3.932705  0
C  C62  1  0.96707439  0.95848039  0.81946305  1  0.015562  0  0.013287  0.171858  0  3.938814  0
C  C63  1  0.01689740  0.90234792  0.91507358  1  -0.190252  0  -0.090324  -0.19512  0  3.956892  0
C  C64  1  0.94587334  0.80720233  0.99455548  1  0.505461  0  0.036975  0.077606  0  3.956902  0
C  C65  1  0.06330709  0.48758123  0.51003143  1  0.413049  0  0.051293  0.10485  0  3.901178  0
C  C66  1  0.98339654  0.39894644  0.59056576  1  -0.077191  0  -0.094327  -0.20818  0  3.982147  0
C  C67  1  0.04834986  0.31151566  0.67151414  1  0.016818  0  0.009059  0.161434  0  3.949588  0
C  C68  1  0.19122607  0.32074802  0.66884907  1  -0.008947  0  -0.090316  -0.185065  0  3.952737  0
C  C69  1  0.26412085  0.41271465  0.58782768  1  0.416806  0  0.037111  0.072121  0  3.947116  0
C  C70  1  0.03735146  0.06553075  0.73385601  1  -0.033607  0  -0.156488  -0.188975  0  3.900671  0
C  C71  1  0.97368524  0.20599790  0.75593449  1  0.000293  0  -0.156935  -0.185656  0  3.898843  0
C  C72  1  0.73312087  0.48372678  0.85745137  1  0.377732  0  0.041176  0.087383  0  3.927004  0
C  C73  1  0.65576535  0.39194213  0.93550047  1  0.080611  0  -0.088648  -0.188756  0  3.949631  0
C  C74  1  0.71735084  0.30767114  0.01910477  1  -0.043186  0  0.015489  0.175106  0  3.946188  0
C  C75  1  0.85587787  0.32364648  0.02266763  1  -0.051465  0  -0.089576  -0.195283  0  3.928723  0
C  C76  1  0.92628934  0.41950954  0.94298259  1  0.452393  0  0.032753  0.066453  0  3.98107  0
C  C77  1  0.39954943  0.84590444  0.19513350  1  0.414246  0  0.042505  0.079304  0  3.931737  0
C  C78  1  0.47703111  0.94235112  0.12339062  1  6.1e-05  0  -0.085694  -0.183291  0  3.945004  0
C  C79  1  0.61024764  0.95804420  0.13837481  1  -0.052841  0  0.016437  0.168604  0  3.952963  0
C  C80  1  0.66152208  0.87187402  0.22626023  1  0.003001  0  -0.074597  -0.176511  0  3.927072  0
C  C81  1  0.57865471  0.77691030  0.29508370  1  0.42712  0  0.049239  0.081476  0  3.957598  0
C  C82  1  0.63999137  0.20050898  0.09875107  1  -0.014159  0  -0.155568  -0.192653  0  3.897735  0
C  C83  1  0.69109206  0.06588123  0.06335332  1  -0.007412  0  -0.152737  -0.188246  0  3.913074  0
C  C84  1  0.06850414  0.57299854  0.18930971  1  1.630935  0  0.178855  0.565421  0  4.302172  0
C  C85  1  0.05129614  0.26945027  0.24705050  1  1.5717  0  0.191679  0.554468  0  4.233456  0
C  C86  1  0.14368247  0.47838248  0.11486370  1  -0.0068  0  -0.006246  -0.02977  0  3.886481  0
C  C87  1  0.13582824  0.33983563  0.14165450  1  0.016722  0  -0.014823  -0.047761  0  3.943898  0
C  C88  1  0.20808568  0.26040587  0.06853108  1  -0.123684  0  -0.089491  -0.156238  0  3.964733  0
C  C89  1  0.28555043  0.31324536  0.96555938  1  -0.036034  0  -0.01973  0.049396  0  4.028856  0
C  C90  1  0.28914994  0.45254450  0.93830089  1  -0.126672  0  -0.096247  -0.143637  0  4.012008  0
C  C91  1  0.22235678  0.53173225  0.01224337  1  -0.000271  0  -0.094878  -0.113314  0  4.007088  0
C  C92  1  0.55903062  0.95694096  0.67234732  1  1.626552  0  0.192084  0.560674  0  4.273982  0
C  C93  1  0.65146993  0.23726535  0.63636406  1  1.604097  0  0.194195  0.559082  0  4.228419  0
C  C94  1  0.49779850  0.05287844  0.74707795  1  -0.042253  0  -0.006804  -0.032232  0  3.901111  0
C  C95  1  0.53623562  0.18150393  0.72931582  1  -0.002522  0  -0.00863  -0.032447  0  3.918819  0
C  C96  1  0.46694579  0.26418521  0.80084249  1  -0.093563  0  -0.090751  -0.162146  0  3.962533  0
C  C97  1  0.35767023  0.22537271  0.89031142  1  -0.027561  0  -0.017991  0.053376  0  4.023896  0
C  C98  1  0.31813402  0.09788231  0.90500091  1  -0.080692  0  -0.099253  -0.149592  0  4.021731  0
C  C99  1  0.38848587  0.01353805  0.83608391  1  -0.01947  0  -0.094304  -0.116142  0  4.02663  0
N  N100  1  0.60909206  0.46696018  0.21920934  1  -1.227732  0  -0.362245  -0.213071  0  3.65472  0
N  N101  1  0.10794058  0.76719877  0.61524149  1  -1.224737  0  -0.362686  -0.207294  0  3.680881  0
N  N102  1  0.82926743  0.76378241  0.98345143  1  -1.200735  0  -0.355989  -0.206745  0  3.648157  0
N  N103  1  0.20119607  0.49421097  0.50849943  1  -1.204383  0  -0.364856  -0.197672  0  3.678381  0
N  N104  1  0.86778211  0.49680242  0.86011968  1  -1.213033  0  -0.359826  -0.20019  0  3.659978  0
N  N105  1  0.44890535  0.76498308  0.28087197  1  -1.196633  0  -0.362364  -0.199264  0  3.689635  0
O  O106  1  0.77903549  0.68508532  0.60998999  1  -1.257461  0  -0.604109  -0.787184  0  2.019156  0
O  O107  1  0.93245489  0.58115436  0.21788413  1  -1.198429  0  -0.36071  -0.585677  0  2.205413  0
O  O108  1  0.14854879  0.64015156  0.21117602  1  -1.193744  0  -0.361747  -0.608491  0  2.102019  0
O  O109  1  0.05670856  0.30839704  0.33156327  1  -1.106652  0  -0.333503  -0.512562  0  2.387843  0
O  O110  1  0.98451735  0.17814306  0.24652312  1  -1.175619  0  -0.340425  -0.56635  0  2.097376  0
O  O111  1  0.58475001  0.83363705  0.72050973  1  -1.196185  0  -0.350599  -0.595478  0  2.15012  0
O  O112  1  0.57195930  0.00253911  0.57266148  1  -1.179383  0  -0.332299  -0.551951  0  2.151437  0
O  O113  1  0.76391243  0.15228214  0.61273254  1  -1.118577  0  -0.334951  -0.519444  0  2.405988  0
O  O114  1  0.63328791  0.35947626  0.59224581  1  -1.192822  0  -0.345195  -0.575595  0  2.094567  0
