# generated using pymatgen
data_SrSi4H44C16(NO)2
_symmetry_space_group_name_H-M   'P 1'
_cell_length_a   7.47062338
_cell_length_b   8.31728632
_cell_length_c   12.12743871
_cell_angle_alpha   99.55650210
_cell_angle_beta   99.38455548
_cell_angle_gamma   113.82470413
_symmetry_Int_Tables_number   1
_chemical_formula_structural   SrSi4H44C16(NO)2
_chemical_formula_sum   'Sr1 Si4 H44 C16 N2 O2'
_cell_volume   657.27332134
_cell_formula_units_Z   1
loop_
 _symmetry_equiv_pos_site_id
 _symmetry_equiv_pos_as_xyz
  1  'x, y, z'
loop_
 _atom_site_type_symbol
 _atom_site_label
 _atom_site_symmetry_multiplicity
 _atom_site_fract_x
 _atom_site_fract_y
 _atom_site_fract_z
 _atom_site_occupancy
 _atom_site_hle17_bader_spin_density
 _atom_site_hle17_ddec_charge
 _atom_site_hle17_ddec_spin_density
 _atom_site_hle17_ddec_sum_bond_order
 _atom_site_hle17_magmom
 _atom_site_hse06_10hf_bader_spin_density
 _atom_site_hse06_10hf_ddec_charge
 _atom_site_hse06_10hf_ddec_spin_density
 _atom_site_hse06_10hf_ddec_sum_bond_order
 _atom_site_hse06_10hf_magmom
 _atom_site_hse06_bader_spin_density
 _atom_site_hse06_ddec_charge
 _atom_site_hse06_ddec_spin_density
 _atom_site_hse06_ddec_sum_bond_order
 _atom_site_hse06_magmom
 _atom_site_pbe_bader_spin_density
 _atom_site_pbe_cm5_charge
 _atom_site_pbe_ddec_charge
 _atom_site_pbe_ddec_spin_density
 _atom_site_pbe_ddec_sum_bond_order
 _atom_site_pbe_magmom
Sr  Sr0  1  0.99998017  0.99998739  0.99999959  1  0  1.582248  0  1.165939  0  0  1.449797  0  1.497613  0  0  1.481445  0  1.465155  0  0  1.060421  1.426533  0  1.520442  0
Si  Si1  1  0.78967622  0.76621277  0.71780816  1  0  1.251417  0  3.668168  0  0  1.131312  0  4.067635  0  0  1.154691  0  4.062357  0  0  0.159651  1.114846  0  4.070903  0
Si  Si2  1  0.21032220  0.23378673  0.28219046  1  0  1.251495  0  3.668137  0  0  1.131367  0  4.067662  0  0  1.154742  0  4.062389  0  0  0.159661  1.114899  0  4.070941  0
Si  Si3  1  0.02184113  0.17112823  0.73610088  1  0  1.269775  0  3.653463  0  0  1.15207  0  4.049513  0  0  1.175547  0  4.043523  0  0  0.176656  1.13535  0  4.053884  0
Si  Si4  1  0.97817015  0.82887256  0.26390001  1  0  1.269652  0  3.653475  0  0  1.151972  0  4.049561  0  0  1.175439  0  4.043591  0  0  0.176648  1.13527  0  4.053865  0
H  H5  1  0.64863976  0.47941767  0.78123349  1  0  0.16098  0  0.975199  0  0  0.185038  0  1.023122  0  0  0.186559  0  1.024592  0  0  0.09783  0.183883  0  1.022169  0
H  H6  1  0.35136000  0.52057905  0.21876250  1  0  0.160992  0  0.975157  0  0  0.18504  0  1.023086  0  0  0.186562  0  1.024555  0  0  0.097811  0.183884  0  1.022136  0
H  H7  1  0.65284696  0.65436411  0.88585786  1  0  0.114256  0  1.010739  0  0  0.132554  0  1.075205  0  0  0.134294  0  1.07538  0  0  0.086441  0.131268  0  1.075144  0
H  H8  1  0.34714673  0.34562321  0.11414392  1  0  0.114271  0  1.010762  0  0  0.13258  0  1.075195  0  0  0.13432  0  1.07537  0  0  0.086464  0.131293  0  1.075134  0
H  H9  1  0.88002366  0.62935025  0.88079090  1  0  0.127703  0  1.010257  0  0  0.146055  0  1.071274  0  0  0.147978  0  1.071876  0  0  0.092397  0.144653  0  1.070878  0
H  H10  1  0.11997341  0.37064653  0.11920729  1  0  0.127678  0  1.010264  0  0  0.146022  0  1.071295  0  0  0.147945  0  1.071897  0  0  0.092389  0.144621  0  1.070897  0
H  H11  1  0.44054644  0.56394130  0.59252327  1  0  0.140131  0  1.000422  0  0  0.161489  0  1.055483  0  0  0.163087  0  1.056541  0  0  0.08706  0.160305  0  1.054793  0
H  H12  1  0.55944454  0.43605687  0.40747363  1  0  0.140142  0  1.000452  0  0  0.161511  0  1.055497  0  0  0.163109  0  1.056555  0  0  0.087063  0.16033  0  1.054803  0
H  H13  1  0.53958911  0.77494375  0.55601052  1  0  0.147509  0  0.981188  0  0  0.167011  0  1.038432  0  0  0.168919  0  1.038917  0  0  0.089059  0.165616  0  1.038136  0
H  H14  1  0.46040389  0.22505302  0.44398561  1  0  0.147536  0  0.981205  0  0  0.167045  0  1.038434  0  0  0.168953  0  1.038919  0  0  0.089061  0.165651  0  1.038139  0
H  H15  1  0.44408612  0.75915078  0.68002679  1  0  0.132802  0  0.99677  0  0  0.152269  0  1.057548  0  0  0.153694  0  1.058441  0  0  0.081865  0.151147  0  1.057141  0
H  H16  1  0.55591839  0.24085546  0.31997070  1  0  0.132808  0  0.996784  0  0  0.152277  0  1.057562  0  0  0.153703  0  1.058455  0  0  0.08187  0.151155  0  1.057156  0
H  H17  1  0.81198726  0.52857076  0.57133507  1  0  0.14498  0  1.000787  0  0  0.164553  0  1.058925  0  0  0.166377  0  1.059553  0  0  0.087623  0.163221  0  1.058517  0
H  H18  1  0.18798815  0.47142069  0.42866036  1  0  0.145034  0  1.000654  0  0  0.16458  0  1.058821  0  0  0.166406  0  1.059446  0  0  0.087651  0.163247  0  1.058415  0
H  H19  1  0.05407943  0.67404604  0.66600482  1  0  0.136627  0  0.990315  0  0  0.155924  0  1.04996  0  0  0.157551  0  1.050568  0  0  0.083708  0.154642  0  1.049767  0
H  H20  1  0.94590471  0.32593297  0.33398273  1  0  0.13649  0  0.990522  0  0  0.155818  0  1.050143  0  0  0.157446  0  1.05075  0  0  0.083656  0.154535  0  1.049952  0
H  H21  1  0.95113365  0.74923876  0.55470023  1  0  0.147816  0  0.994223  0  0  0.169906  0  1.048508  0  0  0.171218  0  1.049961  0  0  0.091195  0.168933  0  1.047516  0
H  H22  1  0.04885123  0.25075261  0.44529450  1  0  0.147765  0  0.99421  0  0  0.169842  0  1.048519  0  0  0.171149  0  1.04998  0  0  0.091194  0.16887  0  1.047525  0
H  H23  1  0.18939732  0.50645161  0.81932186  1  0  0.139553  0  0.990081  0  0  0.161192  0  1.044911  0  0  0.162688  0  1.045937  0  0  0.086955  0.160099  0  1.044211  0
H  H24  1  0.81063964  0.49354898  0.18067831  1  0  0.139551  0  0.989948  0  0  0.161208  0  1.044778  0  0  0.162703  0  1.045807  0  0  0.086922  0.160115  0  1.044077  0
H  H25  1  0.27521553  0.40252656  0.91826099  1  0  0.12066  0  1.006104  0  0  0.137416  0  1.072041  0  0  0.139263  0  1.072065  0  0  0.080489  0.136072  0  1.072047  0
H  H26  1  0.72482278  0.59747670  0.08173713  1  0  0.120608  0  1.006037  0  0  0.137387  0  1.071988  0  0  0.139234  0  1.072011  0  0  0.080522  0.136043  0  1.071996  0
H  H27  1  0.03293744  0.40043750  0.90644273  1  0  0.13272  0  0.993274  0  0  0.151091  0  1.054363  0  0  0.15318  0  1.05428  0  0  0.086209  0.149579  0  1.054442  0
H  H28  1  0.96711309  0.59957940  0.09356222  1  0  0.13264  0  0.993177  0  0  0.151076  0  1.054198  0  0  0.153166  0  1.054113  0  0  0.086206  0.149564  0  1.05428  0
H  H29  1  0.28880870  0.30179106  0.63010345  1  0  0.14039  0  0.996855  0  0  0.161315  0  1.05294  0  0  0.162867  0  1.054067  0  0  0.086402  0.160179  0  1.052172  0
H  H30  1  0.71119105  0.69818933  0.36989325  1  0  0.140289  0  0.996813  0  0  0.161268  0  1.052847  0  0  0.162823  0  1.053971  0  0  0.08639  0.160129  0  1.052083  0
H  H31  1  0.17279655  0.06029716  0.58794873  1  0  0.14292  0  0.998459  0  0  0.164248  0  1.054232  0  0  0.165883  0  1.055097  0  0  0.088655  0.163049  0  1.053658  0
H  H32  1  0.82720456  0.93968869  0.41204951  1  0  0.142831  0  0.998651  0  0  0.164228  0  1.054344  0  0  0.165863  0  1.05521  0  0  0.088617  0.16303  0  1.05377  0
H  H33  1  0.35621032  0.17870405  0.72172143  1  0  0.125117  0  1.004315  0  0  0.14523  0  1.065712  0  0  0.146614  0  1.066476  0  0  0.080317  0.144171  0  1.065347  0
H  H34  1  0.64378806  0.82127904  0.27827294  1  0  0.125174  0  1.004285  0  0  0.145275  0  1.065701  0  0  0.14666  0  1.066464  0  0  0.080358  0.144214  0  1.065342  0
H  H35  1  0.88485420  0.30863153  0.59544713  1  0  0.143513  0  0.996909  0  0  0.163759  0  1.053681  0  0  0.165446  0  1.054708  0  0  0.086545  0.162523  0  1.052972  0
H  H36  1  0.11514224  0.69136946  0.40455971  1  0  0.143502  0  0.996977  0  0  0.16374  0  1.05375  0  0  0.165432  0  1.054772  0  0  0.086519  0.162505  0  1.053044  0
H  H37  1  0.70402945  0.20385142  0.67134838  1  0  0.136662  0  0.986952  0  0  0.156121  0  1.046083  0  0  0.157859  0  1.046629  0  0  0.08307  0.154733  0  1.045951  0
H  H38  1  0.29598598  0.79614961  0.32867027  1  0  0.136704  0  0.986945  0  0  0.156172  0  1.046049  0  0  0.157909  0  1.046594  0  0  0.083121  0.154784  0  1.045921  0
H  H39  1  0.74160320  0.06885755  0.55689363  1  0  0.139871  0  1.000004  0  0  0.158436  0  1.059664  0  0  0.160407  0  1.059869  0  0  0.086065  0.157001  0  1.059537  0
H  H40  1  0.25839259  0.93114759  0.44311688  1  0  0.13989  0  1.000074  0  0  0.158449  0  1.059717  0  0  0.160419  0  1.059922  0  0  0.086081  0.157014  0  1.059592  0
H  H41  1  0.43200761  0.78596179  0.06548156  1  0  0.064398  0  0.911247  0  0  0.077239  0  0.976548  0  0  0.078185  0  0.975074  0  0  0.108671  0.076436  0  0.977796  0
H  H42  1  0.56797871  0.21406512  0.93452292  1  0  0.06434  0  0.91082  0  0  0.077236  0  0.976103  0  0  0.078189  0  0.974626  0  0  0.108632  0.076429  0  0.977354  0
H  H43  1  0.35288559  0.92361194  0.15834686  1  0  0.086449  0  0.942251  0  0  0.098724  0  1.00599  0  0  0.099503  0  1.005971  0  0  0.124599  0.098077  0  1.006074  0
H  H44  1  0.64710544  0.07640540  0.84165706  1  0  0.086355  0  0.942365  0  0  0.098632  0  1.006065  0  0  0.099414  0  1.006052  0  0  0.124555  0.097992  0  1.006149  0
H  H45  1  0.26141825  0.93299765  0.81899811  1  0  0.086722  0  0.950919  0  0  0.100427  0  1.012393  0  0  0.101117  0  1.012524  0  0  0.125773  0.099814  0  1.012413  0
H  H46  1  0.73857887  0.06701558  0.18100764  1  0  0.086551  0  0.950696  0  0  0.100331  0  1.012198  0  0  0.100985  0  1.012364  0  0  0.125757  0.099748  0  1.01219  0
H  H47  1  0.38037430  0.79490735  0.86182121  1  0  0.057658  0  0.943931  0  0  0.069841  0  1.012366  0  0  0.070616  0  1.011125  0  0  0.107148  0.069167  0  1.013442  0
H  H48  1  0.61960996  0.20510726  0.13817927  1  0  0.057582  0  0.944129  0  0  0.069784  0  1.01258  0  0  0.070555  0  1.011336  0  0  0.107141  0.069109  0  1.013661  0
C  C49  1  0.74116110  0.62325120  0.82808067  1  0  -0.750884  0  3.628686  0  0  -0.780389  0  3.844595  0  0  -0.790986  0  3.851146  0  0  -0.301114  -0.772689  0  3.839916  0
C  C50  1  0.25883666  0.37674425  0.17191992  1  0  -0.750912  0  3.628731  0  0  -0.780402  0  3.844657  0  0  -0.790993  0  3.851192  0  0  -0.301113  -0.772704  0  3.839981  0
C  C51  1  0.53005117  0.71149702  0.62882073  1  0  -0.716951  0  3.612243  0  0  -0.749855  0  3.827512  0  0  -0.759882  0  3.83335  0  0  -0.297104  -0.742573  0  3.823514  0
C  C52  1  0.46994522  0.28850111  0.37117671  1  0  -0.717018  0  3.612339  0  0  -0.749937  0  3.827602  0  0  -0.759964  0  3.833439  0  0  -0.297111  -0.742658  0  3.823604  0
C  C53  1  0.91313056  0.67042727  0.61885238  1  0  -0.727719  0  3.614613  0  0  -0.762334  0  3.828648  0  0  -0.772194  0  3.834078  0  0  -0.300995  -0.755153  0  3.824902  0
C  C54  1  0.08685430  0.32956408  0.38114070  1  0  -0.727571  0  3.614632  0  0  -0.76217  0  3.828678  0  0  -0.772027  0  3.834113  0  0  -0.300961  -0.754993  0  3.824937  0
C  C55  1  0.14053788  0.38907755  0.85705792  1  0  -0.722096  0  3.631378  0  0  -0.755677  0  3.854597  0  0  -0.765389  0  3.860111  0  0  -0.298779  -0.74862  0  3.850655  0
C  C56  1  0.85950246  0.61092436  0.14294108  1  0  -0.721885  0  3.631155  0  0  -0.75557  0  3.854407  0  0  -0.76528  0  3.859916  0  0  -0.298735  -0.748517  0  3.850466  0
C  C57  1  0.22868974  0.17916985  0.66195821  1  0  -0.725185  0  3.622459  0  0  -0.76016  0  3.838846  0  0  -0.77  0  3.844482  0  0  -0.301341  -0.753001  0  3.835013  0
C  C58  1  0.77130663  0.82081738  0.33803888  1  0  -0.725032  0  3.622465  0  0  -0.760111  0  3.838828  0  0  -0.769952  0  3.84446  0  0  -0.301331  -0.752952  0  3.834993  0
C  C59  1  0.81999190  0.19004103  0.63040823  1  0  -0.728532  0  3.624349  0  0  -0.76219  0  3.840902  0  0  -0.772276  0  3.846132  0  0  -0.301243  -0.754813  0  3.837324  0
C  C60  1  0.18001808  0.80996265  0.36960274  1  0  -0.728587  0  3.624426  0  0  -0.762241  0  3.841005  0  0  -0.772337  0  3.846251  0  0  -0.301307  -0.75485  0  3.837389  0
C  C61  1  0.42318259  0.91648153  0.08592350  1  0  0.045673  0  3.624649  0  0  -0.014574  0  3.899083  0  0  -0.007913  0  3.903329  0  0  -0.063142  -0.019148  0  3.896301  0
C  C62  1  0.57681383  0.08352483  0.91407731  1  0  0.04586  0  3.624277  0  0  -0.014378  0  3.898604  0  0  -0.00774  0  3.902901  0  0  -0.063075  -0.018953  0  3.895805  0
C  C63  1  0.37063040  0.92408562  0.88740346  1  0  0.037761  0  3.636701  0  0  -0.023596  0  3.90944  0  0  -0.016885  0  3.913579  0  0  -0.065903  -0.028148  0  3.90674  0
C  C64  1  0.62935521  0.07594257  0.11259532  1  0  0.038217  0  3.636276  0  0  -0.023273  0  3.909143  0  0  -0.016523  0  3.913257  0  0  -0.065812  -0.027847  0  3.906443  0
N  N65  1  0.93336406  0.98779641  0.79173951  1  0  -1.404532  0  2.885496  0  0  -1.27108  0  3.16979  0  0  -1.302707  0  3.163432  0  0  -0.675481  -1.248299  0  3.173237  0
N  N66  1  0.06663572  0.01220309  0.20826007  1  0  -1.404564  0  2.885562  0  0  -1.271114  0  3.169873  0  0  -1.302736  0  3.163509  0  0  -0.675508  -1.248337  0  3.173325  0
O  O67  1  0.28926528  0.92267930  0.98783431  1  0  -0.389337  0  2.298109  0  0  -0.308348  0  2.557255  0  0  -0.326111  0  2.557157  0  0  -0.289496  -0.295681  0  2.55699  0
O  O68  1  0.71073044  0.07732292  0.01216351  1  0  -0.389462  0  2.298  0  0  -0.30846  0  2.557182  0  0  -0.326219  0  2.557074  0  0  -0.289542  -0.295795  0  2.55693  0
