# generated using pymatgen
data_Al6H78C86O33
_symmetry_space_group_name_H-M   'P 1'
_cell_length_a   12.52013668
_cell_length_b   12.44725184
_cell_length_c   26.75479222
_cell_angle_alpha   82.99876883
_cell_angle_beta   81.42952079
_cell_angle_gamma   63.49266881
_symmetry_Int_Tables_number   1
_chemical_formula_structural   Al6H78C86O33
_chemical_formula_sum   'Al6 H78 C86 O33'
_cell_volume   3682.29460960
_cell_formula_units_Z   1
loop_
 _symmetry_equiv_pos_site_id
 _symmetry_equiv_pos_as_xyz
  1  'x, y, z'
loop_
 _atom_site_type_symbol
 _atom_site_label
 _atom_site_symmetry_multiplicity
 _atom_site_fract_x
 _atom_site_fract_y
 _atom_site_fract_z
 _atom_site_occupancy
 _atom_site_pbe_bader_charge
 _atom_site_pbe_bader_spin_density
 _atom_site_pbe_cm5_charge
 _atom_site_pbe_ddec_charge
 _atom_site_pbe_ddec_spin_density
 _atom_site_pbe_ddec_sum_bond_order
 _atom_site_pbe_magmom
Al  Al0  1  0.41404337  0.40459954  0.50786562  1  2.496082  0  0.402332  1.683926  0  2.552799  0
Al  Al1  1  0.66795492  0.41531467  0.49575234  1  2.482349  0  0.50946  1.661884  0  2.509009  0
Al  Al2  1  0.44487328  0.65001243  0.49468070  1  2.477561  0  0.508215  1.661044  0  2.511197  0
Al  Al3  1  0.92543947  0.93254852  0.98162753  1  2.494727  0  0.4046  1.681172  0  2.553537  0
Al  Al4  1  0.91351112  0.67871555  0.99341041  1  2.482469  0  0.508452  1.660304  0  2.513982  0
Al  Al5  1  0.68095487  0.90337597  0.99668194  1  2.481228  0  0.506518  1.658278  0  2.517849  0
H  H6  1  0.30853812  0.69655894  0.17984098  1  0.069304  0  0.115377  0.070816  0  0.972481  0
H  H7  1  0.35858344  0.54428010  0.26996342  1  0.08984  0  0.108684  0.055724  0  1.009037  0
H  H8  1  0.46917838  0.29785264  0.20591712  1  0.029537  0  0.09377  0.096468  0  1.015125  0
H  H9  1  0.48441512  0.35041069  0.28439898  1  0.0372  0  0.09397  0.092203  0  1.009065  0
H  H10  1  0.66342088  0.02197130  0.30884097  1  0.043988  0  0.094395  0.097997  0  0.989364  0
H  H11  1  0.51930867  0.13815899  0.30039888  1  0.028517  0  0.098398  0.105978  0  0.980644  0
H  H12  1  0.82027961  0.22259992  0.26497448  1  0.03735  0  0.09596  0.099305  0  0.990387  0
H  H13  1  0.84582818  0.07082333  0.27455722  1  0.025413  0  0.09107  0.093469  0  1.015023  0
H  H14  1  0.60577358  0.38430849  0.25937108  1  0.001576  0  0.0914  0.089243  0  0.989109  0
H  H15  1  0.56681602  0.35975782  0.17959728  1  0.051215  0  0.095492  0.098908  0  0.999387  0
H  H16  1  0.84963410  0.07021382  0.18739668  1  0.032653  0  0.096442  0.069483  0  0.989672  0
H  H17  1  0.48964539  0.78580448  0.79391956  1  0.060336  0  0.109528  0.063279  0  0.972113  0
H  H18  1  0.77506675  0.73681865  0.68559025  1  0.037012  0  0.097547  0.097901  0  0.984763  0
H  H19  1  0.62243567  0.83998834  0.68971599  1  0.047481  0  0.096734  0.097556  0  1.010695  0
H  H20  1  0.61569760  0.85253817  0.77632850  1  0.026937  0  0.094506  0.086205  0  0.997904  0
H  H21  1  0.99461524  0.80476197  0.29462648  1  -0.000551  0  0.089911  0.052299  0  1.038835  0
H  H22  1  0.77257662  0.77119339  0.76962539  1  0.050826  0  0.096255  0.100361  0  1.019023  0
H  H23  1  0.74722109  0.45581408  0.71500250  1  0.059343  0  0.098435  0.112497  0  0.995624  0
H  H24  1  0.84473783  0.52481284  0.69792726  1  0.033972  0  0.095893  0.101855  0  0.990794  0
H  H25  1  0.98743134  0.86221030  0.21206360  1  0.008697  0  0.092093  0.063551  0  1.018156  0
H  H26  1  0.12952255  0.51958674  0.21696755  1  0.065319  0  0.111179  0.067169  0  0.975451  0
H  H27  1  0.31983562  0.51999181  0.15236000  1  0.609171  0  0.324175  0.350898  0  0.900963  0
H  H28  1  0.91785530  0.72282382  0.24708761  1  0.575798  0  0.308528  0.329596  0  0.951236  0
H  H29  1  0.53752078  0.88212355  0.24244571  1  -0.002043  0  0.078743  0.103822  0  1.045696  0
H  H30  1  0.46935350  0.98608152  0.29056998  1  0.027737  0  0.083824  0.108415  0  1.014116  0
H  H31  1  0.38616820  0.98907537  0.24190353  1  0.022216  0  0.088693  0.121697  0  0.991984  0
H  H32  1  0.43852195  0.15640580  0.22176733  1  0.013309  0  0.088059  0.080267  0  1.006543  0
H  H33  1  0.52045696  0.04904197  0.17692922  1  0.03516  0  0.090318  0.089937  0  0.998827  0
H  H34  1  0.69474544  0.89746880  0.15407464  1  0.020448  0  0.08478  0.11929  0  1.019191  0
H  H35  1  0.81999871  0.93071078  0.14625910  1  0.022113  0  0.084574  0.118942  0  1.021607  0
H  H36  1  0.83334074  0.79073790  0.17515229  1  0.062595  0  0.080831  0.113034  0  1.059244  0
H  H37  1  0.81220082  0.93836330  0.23898549  1  -0.004672  0  0.081302  0.058684  0  1.059886  0
H  H38  1  0.70771521  0.87850838  0.25128229  1  0.007721  0  0.085727  0.075735  0  1.011102  0
H  H39  1  0.37074461  0.71000283  0.29409484  1  0.598896  0  0.31429  0.340018  0  0.924301  0
H  H40  1  0.96514772  0.22560378  0.20521952  1  0.006117  0  0.081197  0.103495  0  1.019698  0
H  H41  1  0.99746614  0.15192274  0.14818246  1  0.043228  0  0.087376  0.117919  0  1.030779  0
H  H42  1  0.95095614  0.30937719  0.14605039  1  0.039087  0  0.090049  0.121263  0  0.994122  0
H  H43  1  0.78384959  0.26206575  0.13082423  1  0.011875  0  0.091326  0.087679  0  0.988081  0
H  H44  1  0.74765303  0.34377978  0.18533258  1  0.025174  0  0.08486  0.072537  0  1.008601  0
H  H45  1  0.41570587  0.92551213  0.73558567  1  0.019565  0  0.089276  0.113581  0  1.011381  0
H  H46  1  0.45282488  0.90610761  0.66917311  1  0.041245  0  0.090578  0.118362  0  1.006412  0
H  H47  1  0.30400433  0.94726376  0.69702175  1  0.087139  0  0.09686  0.130372  0  0.976644  0
H  H48  1  0.41289673  0.72867863  0.67688497  1  0.048918  0  0.09082  0.085261  0  1.007692  0
H  H49  1  0.34775276  0.75617066  0.74026024  1  0.012869  0  0.092444  0.088419  0  1.017634  0
H  H50  1  0.86481389  0.28494615  0.76309234  1  -0.008072  0  0.08086  0.103536  0  1.015268  0
H  H51  1  0.92535379  0.28670438  0.81895088  1  0.044482  0  0.088841  0.116917  0  1.00582  0
H  H52  1  0.80878015  0.24281967  0.82311808  1  0.03489  0  0.082174  0.114138  0  1.03287  0
H  H53  1  0.73125542  0.45352285  0.85034613  1  0.039805  0  0.090067  0.089036  0  0.988953  0
H  H54  1  0.66186715  0.44051287  0.80025909  1  0.019784  0  0.086797  0.078647  0  1.033965  0
H  H55  1  0.45924160  0.56397576  0.72096416  1  0.600157  0  0.318018  0.34853  0  0.925951  0
H  H56  1  0.49412639  0.56183308  0.80824834  1  0.606092  0  0.303222  0.333791  0  0.960802  0
H  H57  1  0.94410684  0.61295184  0.72052503  1  -0.00928  0  0.081545  0.104085  0  1.030593  0
H  H58  1  0.93665048  0.66956946  0.77957149  1  0.041382  0  0.080046  0.102813  0  1.031767  0
H  H59  1  0.05951965  0.53595409  0.76011443  1  0.017966  0  0.083872  0.112218  0  1.014954  0
H  H60  1  0.90682688  0.50326583  0.82785367  1  0.052146  0  0.093682  0.093078  0  0.978425  0
H  H61  1  0.95793397  0.41789057  0.77446904  1  0.039006  0  0.094627  0.09421  0  0.990407  0
H  H62  1  0.91608106  0.95563710  0.35370999  1  0.007185  0  0.078176  0.101005  0  1.024911  0
H  H63  1  0.04356015  0.85107076  0.38353910  1  0.023687  0  0.081158  0.110806  0  1.036092  0
H  H64  1  0.01464550  0.00457611  0.37398142  1  0.026048  0  0.090772  0.125627  0  0.986424  0
H  H65  1  0.17734781  0.89040818  0.30742659  1  0.026729  0  0.089069  0.082556  0  1.00153  0
H  H66  1  0.04633355  0.99060740  0.28068192  1  0.018916  0  0.088376  0.079227  0  1.017629  0
H  H67  1  0.21205892  0.83428573  0.11777256  1  0.042513  0  0.08317  0.11149  0  1.021533  0
H  H68  1  0.06029304  0.94034729  0.12189776  1  0.036437  0  0.087073  0.12103  0  1.008158  0
H  H69  1  0.17479387  0.98738777  0.12265690  1  0.014112  0  0.088582  0.1176  0  0.99709  0
H  H70  1  0.08341734  0.99066256  0.20828122  1  0.039761  0  0.087286  0.076118  0  1.025708  0
H  H71  1  0.22772965  0.87240232  0.20657618  1  0.047433  0  0.09051  0.092173  0  1.012592  0
H  H72  1  0.11128081  0.35735235  0.33485173  1  0.038646  0  0.090567  0.121897  0  1.003966  0
H  H73  1  0.12214301  0.36692481  0.26764426  1  0.027247  0  0.085941  0.112619  0  1.007394  0
H  H74  1  0.24679734  0.26525701  0.29960605  1  0.012172  0  0.086754  0.116087  0  1.002037  0
H  H75  1  0.28905633  0.43157629  0.26589791  1  0.026511  0  0.088156  0.08099  0  1.048742  0
H  H76  1  0.26113765  0.44014329  0.33230904  1  0.047125  0  0.093211  0.093562  0  0.992104  0
H  H77  1  0.10534501  0.48986844  0.39327125  1  0.022903  0  0.093565  0.130449  0  0.998708  0
H  H78  1  0.03746914  0.64562682  0.40183103  1  0.031291  0  0.082092  0.111703  0  1.026487  0
H  H79  1  0.94742984  0.56799688  0.40594333  1  0.037566  0  0.084982  0.116352  0  1.001814  0
H  H80  1  0.94028767  0.69520498  0.32417442  1  -0.007206  0  0.081947  0.061923  0  1.031073  0
H  H81  1  0.97207820  0.54675580  0.31732802  1  0.041502  0  0.091366  0.086935  0  1.009389  0
H  H82  1  0.28761472  0.32108916  0.54958206  1  0.586002  0  0.296314  0.388007  0  0.915342  0
H  H83  1  0.99912791  0.06487553  0.99977018  1  0.574856  0  0.296165  0.386676  0  0.917676  0
C  C84  1  0.62700517  0.28062892  0.43310370  1  1.639025  0  0.281504  0.722854  0  4.154687  0
C  C85  1  0.68706412  0.62713433  0.26719440  1  0.039166  0  0.010518  0.000943  0  4.165965  0
C  C86  1  0.68050095  0.62213146  0.31774494  1  -0.302565  0  0.0049  0.042534  0  4.230109  0
C  C87  1  0.67119610  0.61844826  0.36418786  1  0.175944  0  0.004894  -0.135663  0  3.806263  0
C  C88  1  0.29740258  0.63668625  0.25822067  1  0.45644  0  0.008798  0.133557  0  3.782397  0
C  C89  1  0.08156382  0.80411925  0.27948545  1  0.027713  0  -0.079719  -0.042173  0  3.725078  0
C  C90  1  0.08151905  0.81908190  0.22053332  1  -0.003078  0  -0.078406  -0.046837  0  3.74758  0
C  C91  1  0.08721540  0.69571656  0.10670020  1  0.264556  0  -0.047114  -0.228744  0  3.936273  0
C  C92  1  0.17722382  0.67411284  0.29502823  1  0.122505  0  0.002977  0.018376  0  3.796795  0
C  C93  1  0.27425667  0.63747777  0.20334611  1  0.477816  0  0.006886  0.132289  0  3.816049  0
C  C94  1  0.13746565  0.68974965  0.20081743  1  0.114952  0  -0.007777  0.002572  0  3.881843  0
C  C95  1  0.64108968  0.60014222  0.41740150  1  1.67184  0  0.284239  0.698396  0  4.186409  0
C  C96  1  0.08756140  0.60608707  0.23464632  1  0.477672  0  0.007702  0.124464  0  3.758993  0
C  C97  1  0.12294203  0.58279269  0.29057236  1  0.031195  0  -0.007171  0.045273  0  3.648063  0
C  C98  1  0.11192842  0.69230783  0.14933031  1  -0.524141  0  -0.007455  0.008656  0  4.033469  0
C  C99  1  0.21554198  0.66299628  0.34467206  1  -0.555691  0  0.003385  0.028994  0  4.021004  0
C  C100  1  0.25925536  0.64644179  0.38423970  1  0.247189  0  -0.042157  -0.235644  0  3.935452  0
C  C101  1  0.57141564  0.31647214  0.26106399  1  -0.002747  0  -0.151873  -0.182848  0  3.837399  0
C  C102  1  0.61399135  0.10168205  0.28439606  1  -0.042107  0  -0.151029  -0.248571  0  3.805379  0
C  C103  1  0.62898506  0.06609269  0.22906324  1  0.047509  0  -0.001917  0.115468  0  3.646866  0
C  C104  1  0.65982990  0.13155144  0.09649529  1  0.230444  0  -0.057081  -0.258219  0  3.936365  0
C  C105  1  0.65898482  0.19785539  0.28724441  1  0.140956  0  -0.000112  0.170619  0  3.911886  0
C  C106  1  0.30848603  0.61442215  0.43194640  1  1.645854  0  0.277575  0.712334  0  4.166862  0
C  C107  1  0.55841135  0.29172750  0.20780334  1  0.000341  0  -0.159009  -0.190833  0  3.863283  0
C  C108  1  0.65546538  0.16528016  0.19336985  1  0.142153  0  0.006656  0.075865  0  3.805688  0
C  C109  1  0.78072543  0.15682405  0.20105215  1  0.012199  0  -0.079625  -0.012922  0  3.761889  0
C  C110  1  0.78551778  0.15911776  0.25835173  1  -0.051888  0  -0.155004  -0.231884  0  3.835748  0
C  C111  1  0.65398814  0.15015069  0.14069323  1  -0.507904  0  0.009345  0.041984  0  3.992648  0
C  C112  1  0.65805396  0.21696429  0.33963674  1  -0.364626  0  -0.0025  0.009976  0  3.987334  0
C  C113  1  0.65227579  0.23602728  0.38369989  1  0.100792  0  -0.05314  -0.236146  0  3.966649  0
C  C114  1  0.53654261  0.66537100  0.73309977  1  0.431922  0  0.076733  0.217415  0  3.710327  0
C  C115  1  0.68711900  0.75623638  0.70697094  1  -0.031401  0  -0.15316  -0.184758  0  3.850162  0
C  C116  1  0.68987795  0.76817669  0.76333737  1  -0.01144  0  -0.151711  -0.181209  0  3.854817  0
C  C117  1  0.61252142  0.28217211  0.57715663  1  1.673179  0  0.278034  0.694792  0  4.18485  0
C  C118  1  0.69337927  0.68944819  0.89118953  1  0.272775  0  -0.047949  -0.24586  0  3.93955  0
C  C119  1  0.65800096  0.64996230  0.70116113  1  0.154459  0  0.001793  0.091975  0  3.858056  0
C  C120  1  0.54224352  0.68887095  0.78880556  1  0.521633  0  0.006348  0.108706  0  3.787842  0
C  C121  1  0.67464624  0.66238754  0.79627708  1  0.119114  0  0.001423  0.041353  0  3.819222  0
C  C122  1  0.77230402  0.53579581  0.77835775  1  0.057975  0  -0.003845  0.113148  0  3.661417  0
C  C123  1  0.76170249  0.53345008  0.72136001  1  -0.043234  0  -0.154601  -0.245763  0  3.794826  0
C  C124  1  0.68209986  0.67581404  0.84831808  1  -0.503095  0  0.018868  0.06942  0  3.977351  0
C  C125  1  0.65182022  0.64077072  0.64829896  1  -0.570246  0  0.012079  0.052804  0  3.967114  0
C  C126  1  0.64746055  0.63062521  0.60406731  1  0.318494  0  -0.052439  -0.24816  0  3.944833  0
C  C127  1  0.11951889  0.69636471  0.86475478  1  0.122157  0  0.021144  -0.099113  0  3.783031  0
C  C128  1  0.62804427  0.60439188  0.55665259  1  1.603567  0  0.284676  0.736135  0  4.139471  0
C  C129  1  0.14955762  0.68586321  0.81918418  1  -0.175599  0  0.001162  0.027248  0  4.232033  0
C  C130  1  0.17691814  0.67538085  0.76914685  1  0.207274  0  0.01231  0.008465  0  4.182976  0
C  C131  1  0.19612623  0.66641395  0.72289309  1  -0.207276  0  0.001479  -0.012448  0  4.193086  0
C  C132  1  0.21991286  0.65524542  0.67280228  1  -0.381643  0  -0.007468  0.02153  0  4.26299  0
C  C133  1  0.24453941  0.64402080  0.62701461  1  0.262689  0  0.003667  -0.130162  0  3.819448  0
C  C134  1  0.70265971  0.08498900  0.86140395  1  0.318501  0  0.011162  -0.119289  0  3.812247  0
C  C135  1  0.68736355  0.11405854  0.81661690  1  -0.338325  0  -0.00208  0.024908  0  4.252844  0
C  C136  1  0.67334454  0.14496510  0.76744936  1  0.043079  0  0.005542  0.005036  0  4.183013  0
C  C137  1  0.66277746  0.17182281  0.72192589  1  -0.073558  0  0.001503  -0.001969  0  4.183904  0
C  C138  1  0.65006596  0.20233620  0.67264028  1  -0.40414  0  -0.006306  0.028989  0  4.256314  0
C  C139  1  0.29483440  0.61664155  0.57561797  1  1.666361  0  0.276682  0.691511  0  4.191042  0
C  C140  1  0.63782113  0.23118343  0.62759858  1  0.259565  0  0.002179  -0.132767  0  3.826873  0
C  C141  1  0.03816022  0.72693833  0.05875918  1  1.615429  0  0.278335  0.721899  0  4.142183  0
C  C142  1  0.72693913  0.70612093  0.07266774  1  1.694344  0  0.286186  0.700278  0  4.174499  0
C  C143  1  0.69694076  0.06582989  0.05176501  1  1.621859  0  0.279698  0.727626  0  4.149392  0
C  C144  1  0.06219357  0.72089060  0.91557783  1  1.692757  0  0.285413  0.684151  0  4.188667  0
C  C145  1  0.72194467  0.71567511  0.93636426  1  1.593841  0  0.285154  0.735674  0  4.140304  0
C  C146  1  0.73119277  0.03656261  0.91192841  1  1.68653  0  0.276973  0.685317  0  4.19254  0
C  C147  1  0.70052680  0.66865970  0.12403565  1  -0.204212  0  0.013177  -0.123796  0  3.78555  0
C  C148  1  0.69391526  0.64912497  0.17017982  1  0.087958  0  0.012471  0.049624  0  4.20573  0
C  C149  1  0.68918135  0.63425193  0.22071157  1  0.067691  0  0.020401  0.025428  0  4.145164  0
C  C150  1  0.51198083  0.06562692  0.21709986  1  -0.026156  0  -0.166507  -0.160619  0  3.925802  0
C  C151  1  0.47500897  0.97567711  0.24988155  1  -0.04352  0  -0.247647  -0.347345  0  3.963854  0
C  C152  1  0.73438989  0.93870004  0.22423025  1  -0.022098  0  -0.168005  -0.158984  0  3.932139  0
C  C153  1  0.77239520  0.88695826  0.17205039  1  -0.085289  0  -0.259979  -0.376436  0  3.948395  0
C  C154  1  0.80662303  0.25611993  0.16957080  1  -0.013109  0  -0.166922  -0.131333  0  3.944884  0
C  C155  1  0.93719608  0.23445251  0.16723603  1  -0.080928  0  -0.245541  -0.353547  0  3.964305  0
C  C156  1  0.42029165  0.76018773  0.71243563  1  -0.012525  0  -0.17134  -0.208486  0  3.96836  0
C  C157  1  0.39860472  0.89151912  0.70306911  1  -0.116438  0  -0.238684  -0.333847  0  3.943366  0
C  C158  1  0.74615177  0.43501046  0.81004661  1  -0.028153  0  -0.168948  -0.16394  0  3.913451  0
C  C159  1  0.84216706  0.30598511  0.80319634  1  -0.067478  0  -0.248103  -0.349039  0  3.968362  0
C  C160  1  0.90187595  0.50934163  0.78676535  1  -0.045289  0  -0.165836  -0.154383  0  3.898607  0
C  C161  1  0.96192155  0.58736281  0.76032340  1  -0.070553  0  -0.24999  -0.353121  0  3.979441  0
C  C162  1  0.08426044  0.90747500  0.30489580  1  -0.006361  0  -0.169511  -0.130244  0  3.940804  0
C  C163  1  0.01114248  0.93040261  0.35693997  1  -0.047688  0  -0.248464  -0.356341  0  3.968334  0
C  C164  1  0.13886676  0.90106750  0.19395967  1  -0.080386  0  -0.172406  -0.144286  0  3.942401  0
C  C165  1  0.14669144  0.91594099  0.13613700  1  -0.045284  0  -0.248134  -0.358071  0  3.969944  0
C  C166  1  0.21841458  0.45042068  0.29778468  1  -0.043955  0  -0.170534  -0.174679  0  3.934229  0
C  C167  1  0.17124834  0.35552553  0.30024800  1  -0.070219  0  -0.243395  -0.343961  0  3.957238  0
C  C168  1  0.01057887  0.60252349  0.32885747  1  -0.003888  0  -0.169222  -0.152518  0  3.935268  0
C  C169  1  0.02720007  0.57484147  0.38533385  1  -0.075008  0  -0.246861  -0.350426  0  3.941047  0
O  O170  1  0.32793391  0.51112983  0.45208873  1  -1.214266  0  -0.201471  -0.540227  0  2.281813  0
O  O171  1  0.70091016  0.50229980  0.53938892  1  -1.245053  0  -0.227574  -0.593821  0  2.243784  0
O  O172  1  0.53540075  0.68186292  0.53589667  1  -1.248551  0  -0.230644  -0.598469  0  2.24495  0
O  O173  1  0.32627253  0.69405166  0.54961067  1  -1.245298  0  -0.234797  -0.588805  0  2.232872  0
O  O174  1  0.50970375  0.49142706  0.49967634  1  -1.612103  0  -0.390294  -1.274279  0  2.291206  0
O  O175  1  0.79994018  0.04466737  0.02913597  1  -1.235553  0  -0.214919  -0.583833  0  2.294227  0
O  O176  1  0.00703638  0.83443897  0.04117682  1  -1.218206  0  -0.207885  -0.558177  0  2.282351  0
O  O177  1  0.02620926  0.64448934  0.03837211  1  -1.257988  0  -0.2468  -0.615959  0  2.23006  0
O  O178  1  0.82569516  0.63458953  0.04934141  1  -1.230165  0  -0.219007  -0.57355  0  2.250409  0
O  O179  1  0.65394528  0.80962428  0.05606550  1  -1.231529  0  -0.216593  -0.569784  0  2.251319  0
O  O180  1  0.62504967  0.02612762  0.03978150  1  -1.256189  0  -0.243004  -0.605188  0  2.217048  0
O  O181  1  0.52562523  0.30014378  0.45691565  1  -1.228329  0  -0.204303  -0.547826  0  2.285326  0
O  O182  1  0.83320533  0.01701411  0.92283092  1  -1.191219  0  -0.19886  -0.529078  0  2.273659  0
O  O183  1  0.04111385  0.82017243  0.93156779  1  -1.198844  0  -0.188524  -0.512375  0  2.27859  0
O  O184  1  0.03256690  0.63967860  0.93906202  1  -1.242611  0  -0.231893  -0.587061  0  2.232722  0
O  O185  1  0.82523586  0.64565121  0.95092796  1  -1.247938  0  -0.229651  -0.598825  0  2.249569  0
O  O186  1  0.64514465  0.81077947  0.95826293  1  -1.248892  0  -0.230866  -0.599503  0  2.238446  0
O  O187  1  0.65015525  0.01453184  0.94056977  1  -1.251887  0  -0.235308  -0.596331  0  2.250003  0
O  O188  1  0.83921937  0.83723217  0.99048969  1  -1.612711  0  -0.390838  -1.275035  0  2.30204  0
O  O189  1  0.70806105  0.30238944  0.44863896  1  -1.254395  0  -0.24564  -0.614715  0  2.230483  0
O  O190  1  0.71280718  0.50398263  0.43992434  1  -1.240809  0  -0.218678  -0.572963  0  2.258386  0
O  O191  1  0.54083546  0.67836124  0.43682754  1  -1.236898  0  -0.221172  -0.575533  0  2.251225  0
O  O192  1  0.33103644  0.69326684  0.44990428  1  -1.256771  0  -0.246659  -0.614349  0  2.232198  0
O  O193  1  0.30868996  0.51792047  0.56135769  1  -1.206456  0  -0.205174  -0.553088  0  2.292289  0
O  O194  1  0.50881967  0.31039867  0.56554031  1  -1.199003  0  -0.205953  -0.552934  0  2.291301  0
O  O195  1  0.69773455  0.29831747  0.54886251  1  -1.24842  0  -0.237128  -0.595793  0  2.234805  0
O  O196  1  0.33790248  0.51793330  0.18681477  1  -1.128902  0  -0.388162  -0.486031  0  2.263279  0
O  O197  1  0.96288054  0.64739497  0.23060173  1  -1.103426  0  -0.398591  -0.479766  0  2.271302  0
O  O198  1  0.35433710  0.71347025  0.25923104  1  -1.114729  0  -0.396967  -0.493535  0  2.231625  0
O  O199  1  0.53203186  0.55038041  0.73494978  1  -1.09871  0  -0.382735  -0.515368  0  2.253269  0
O  O200  1  0.48672252  0.63161715  0.82453617  1  -1.129253  0  -0.409068  -0.479713  0  2.217978  0
O  O201  1  0.32555493  0.32664231  0.51578897  1  -1.363836  0  -0.572104  -0.988478  0  1.786761  0
O  O202  1  0.00920957  0.01541011  0.97263949  1  -1.351074  0  -0.570264  -0.984737  0  1.790723  0
