# generated using pymatgen
data_AlH7C13O6
_symmetry_space_group_name_H-M   'P 1'
_cell_length_a   6.68603500
_cell_length_b   19.97907083
_cell_length_c   23.30039910
_cell_angle_alpha   93.08111626
_cell_angle_beta   89.99984374
_cell_angle_gamma   90.00049307
_symmetry_Int_Tables_number   1
_chemical_formula_structural   AlH7C13O6
_chemical_formula_sum   'Al4 H28 C52 O24'
_cell_volume   3107.98589400
_cell_formula_units_Z   4
loop_
 _symmetry_equiv_pos_site_id
 _symmetry_equiv_pos_as_xyz
  1  'x, y, z'
loop_
 _atom_site_type_symbol
 _atom_site_label
 _atom_site_symmetry_multiplicity
 _atom_site_fract_x
 _atom_site_fract_y
 _atom_site_fract_z
 _atom_site_occupancy
 _atom_site_pbe_bader_charge
 _atom_site_pbe_bader_spin_density
 _atom_site_pbe_cm5_charge
 _atom_site_pbe_ddec_charge
 _atom_site_pbe_ddec_spin_density
 _atom_site_pbe_ddec_sum_bond_order
 _atom_site_pbe_magmom
Al  Al0  1  0.75271487  0.74899371  0.25082334  1  2.502985  0  0.402202  1.651503  0  2.572545  0
Al  Al1  1  0.24712664  0.25068299  0.74956900  1  2.502663  0  0.40162  1.648866  0  2.577081  0
Al  Al2  1  0.25288353  0.75068747  0.24957170  1  2.502512  0  0.401684  1.649124  0  2.576651  0
Al  Al3  1  0.74728702  0.24899316  0.75082752  1  2.503122  0  0.402078  1.651235  0  2.572945  0
H  H4  1  0.68657001  0.98728875  0.45427709  1  0.066472  0  0.098744  0.094313  0  1.021013  0
H  H5  1  0.30698751  0.05527524  0.51390973  1  0.048236  0  0.099916  0.096221  0  1.018779  0
H  H6  1  0.19298284  0.55527667  0.01390563  1  0.048389  0  0.099913  0.096298  0  1.018721  0
H  H7  1  0.81340740  0.48728476  0.95427989  1  0.066638  0  0.098807  0.094388  0  1.021099  0
H  H8  1  0.69082991  0.90227498  0.37249783  1  0.069136  0  0.109454  0.113775  0  0.999445  0
H  H9  1  0.30753008  0.13576912  0.59886055  1  0.078661  0  0.110318  0.115115  0  0.995335  0
H  H10  1  0.19245302  0.63577553  0.09885602  1  0.078537  0  0.110304  0.115104  0  0.995171  0
H  H11  1  0.80916151  0.40227124  0.87250494  1  0.06933  0  0.109425  0.113682  0  0.999587  0
H  H12  1  0.31756176  0.86922269  0.39905110  1  0.092423  0  0.11043  0.115136  0  0.997238  0
H  H13  1  0.68805830  0.09332070  0.62904696  1  0.109368  0  0.108919  0.112434  0  0.998714  0
H  H14  1  0.81191059  0.59331247  0.12904443  1  0.108844  0  0.108821  0.112291  0  0.998678  0
H  H15  1  0.18242475  0.36921620  0.89904245  1  0.092984  0  0.110402  0.115023  0  0.997163  0
H  H16  1  0.31306697  0.95029148  0.48366785  1  0.056536  0  0.098846  0.094514  0  1.022168  0
H  H17  1  0.68863890  0.00886922  0.54693192  1  0.057488  0  0.0994  0.095781  0  1.019409  0
H  H18  1  0.81132608  0.50886165  0.04693197  1  0.057636  0  0.099457  0.095881  0  1.019493  0
H  H19  1  0.18689342  0.45028761  0.98366092  1  0.056678  0  0.098827  0.094486  0  1.022085  0
H  H20  1  0.33725399  0.04361620  0.97445396  1  0.134973  0  0.113217  0.145295  0  1.014842  0
H  H21  1  0.66210593  0.95650938  0.02590466  1  0.177292  0  0.11338  0.145509  0  1.014788  0
H  H22  1  0.83790656  0.45650617  0.52590314  1  0.177154  0  0.113379  0.145638  0  1.014739  0
H  H23  1  0.16275606  0.54361368  0.47445978  1  0.134951  0  0.113202  0.145423  0  1.014776  0
H  H24  1  0.29895592  0.92996100  0.08655358  1  0.624183  0  0.322781  0.351063  0  0.914042  0
H  H25  1  0.69990296  0.07103486  0.91446523  1  0.618124  0  0.322967  0.351657  0  0.913129  0
H  H26  1  0.80011494  0.57104268  0.41447175  1  0.61835  0  0.322958  0.351625  0  0.913074  0
H  H27  1  0.20106819  0.42995034  0.58654963  1  0.624193  0  0.322757  0.350996  0  0.913937  0
H  H28  1  0.50668708  0.83596298  0.23874790  1  0.639808  0  0.358253  0.437448  0  0.842606  0
H  H29  1  0.49302280  0.16188434  0.75444802  1  0.61345  0  0.359351  0.43938  0  0.839326  0
H  H30  1  0.00697849  0.66188778  0.25445058  1  0.613531  0  0.359241  0.439264  0  0.839299  0
H  H31  1  0.99332216  0.33595835  0.73874233  1  0.640248  0  0.358235  0.437465  0  0.842516  0
C  C32  1  0.50342522  0.67250418  0.32653633  1  1.66436  0  0.272112  0.714595  0  4.170287  0
C  C33  1  0.50417425  0.32748906  0.67381878  1  1.690868  0  0.270654  0.714128  0  4.172043  0
C  C34  1  0.99583497  0.82749191  0.17381906  1  1.691142  0  0.270737  0.714143  0  4.171815  0
C  C35  1  0.99658585  0.17249836  0.82652775  1  1.66524  0  0.272079  0.714531  0  4.169837  0
C  C36  1  0.49936773  0.66735208  0.17035085  1  1.56016  0  0.266798  0.641037  0  4.103461  0
C  C37  1  0.49298503  0.33227609  0.82988847  1  1.555848  0  0.267338  0.642592  0  4.101494  0
C  C38  1  0.00701252  0.83228078  0.32988673  1  1.555762  0  0.267349  0.642564  0  4.101601  0
C  C39  1  0.00063107  0.16735189  0.67035316  1  1.560336  0  0.266821  0.641168  0  4.103488  0
C  C40  1  0.82485335  0.96062438  0.44330640  1  -0.067748  0  -0.089973  -0.132371  0  3.98093  0
C  C41  1  0.17190901  0.06197706  0.53978852  1  -0.057246  0  -0.090656  -0.134444  0  3.985703  0
C  C42  1  0.32807343  0.56197487  0.03978598  1  -0.057123  0  -0.090567  -0.134548  0  3.985661  0
C  C43  1  0.67513670  0.46061936  0.94330549  1  -0.067679  0  -0.090071  -0.132483  0  3.98123  0
C  C44  1  0.82646350  0.91372759  0.39703634  1  0.005982  0  -0.079744  -0.082725  0  3.97924  0
C  C45  1  0.17278312  0.10771238  0.58686209  1  -0.013477  0  -0.079968  -0.082104  0  3.980604  0
C  C46  1  0.32720809  0.60771275  0.08686041  1  -0.014117  0  -0.079992  -0.08201  0  3.980487  0
C  C47  1  0.67353568  0.41372544  0.89704146  1  0.006179  0  -0.079714  -0.082582  0  3.979475  0
C  C48  1  0.00456632  0.88108724  0.38050506  1  -0.052854  0  -0.016365  -0.048449  0  3.977168  0
C  C49  1  0.99840560  0.11911120  0.61934903  1  0.010391  0  -0.017183  -0.049437  0  3.980392  0
C  C50  1  0.50159408  0.61910881  0.11934643  1  0.01232  0  -0.017193  -0.049667  0  3.980588  0
C  C51  1  0.49543560  0.38108248  0.88050551  1  -0.05359  0  -0.016412  -0.048556  0  3.977425  0
C  C52  1  0.18014289  0.89534327  0.41175482  1  -0.025763  0  -0.079832  -0.08248  0  3.977449  0
C  C53  1  0.82325342  0.08408908  0.60369890  1  -0.04999  0  -0.079584  -0.080855  0  3.980162  0
C  C54  1  0.67673471  0.58408297  0.10369481  1  -0.050848  0  -0.0795  -0.080439  0  3.979923  0
C  C55  1  0.31985638  0.39533514  0.91174731  1  -0.026367  0  -0.079714  -0.082162  0  3.977122  0
C  C56  1  0.17697874  0.94137685  0.45862569  1  -0.019161  0  -0.089637  -0.132827  0  3.982246  0
C  C57  1  0.82407687  0.03748656  0.55720207  1  -0.087563  0  -0.090461  -0.134828  0  3.982317  0
C  C58  1  0.67590396  0.53748247  0.05719842  1  -0.087865  0  -0.090576  -0.1351  0  3.982757  0
C  C59  1  0.32301137  0.44137397  0.95862204  1  -0.019021  0  -0.0897  -0.132996  0  3.982058  0
C  C60  1  0.99990795  0.97548760  0.47511434  1  0.003405  0  -0.001563  0.0758  0  3.987021  0
C  C61  1  0.99842072  0.02530618  0.52430628  1  0.003379  0  -0.001444  0.077125  0  3.987797  0
C  C62  1  0.50156283  0.52530129  0.02430368  1  0.003671  0  -0.001399  0.077231  0  3.987924  0
C  C63  1  0.50006899  0.47548309  0.97511149  1  0.002783  0  -0.001539  0.075791  0  3.987068  0
C  C64  1  0.17237061  0.98041109  0.02938940  1  0.477769  0  0.086714  0.259763  0  4.068886  0
C  C65  1  0.82680833  0.02000614  0.97119287  1  0.464591  0  0.086531  0.259048  0  4.070758  0
C  C66  1  0.67320919  0.52000685  0.47119395  1  0.464535  0  0.086659  0.259222  0  4.070628  0
C  C67  1  0.32764638  0.48040285  0.52938789  1  0.476879  0  0.086803  0.259888  0  4.068542  0
C  C68  1  0.98085083  0.95514362  0.04382533  1  0.109247  0  -0.01112  0.017445  0  4.14596  0
C  C69  1  0.01848365  0.04513012  0.95663824  1  0.11246  0  -0.010438  0.01831  0  4.144658  0
C  C70  1  0.48152951  0.54513156  0.45664068  1  0.11224  0  -0.01044  0.018398  0  4.145097  0
C  C71  1  0.51916752  0.45513214  0.54382246  1  0.109411  0  -0.011255  0.017457  0  4.14583  0
C  C72  1  0.80889430  0.97521597  0.01444053  1  0.028441  0  -0.08876  -0.213266  0  3.91083  0
C  C73  1  0.19042673  0.02497928  0.98595982  1  0.069078  0  -0.088741  -0.213498  0  3.909736  0
C  C74  1  0.30958267  0.52497631  0.48596160  1  0.069338  0  -0.088706  -0.213667  0  3.90965  0
C  C75  1  0.69112184  0.47520934  0.51443746  1  0.028908  0  -0.088773  -0.213503  0  3.910681  0
C  C76  1  0.97367985  0.91017782  0.08835168  1  -0.499422  0  -0.020648  -0.022732  0  4.121815  0
C  C77  1  0.02504890  0.09010855  0.91208955  1  -0.389335  0  -0.020236  -0.022309  0  4.120772  0
C  C78  1  0.47496889  0.59011265  0.41210275  1  -0.389803  0  -0.020047  -0.022064  0  4.119888  0
C  C79  1  0.52633688  0.41016669  0.58834621  1  -0.499079  0  -0.020673  -0.022864  0  4.121908  0
C  C80  1  0.00604730  0.12812625  0.87309130  1  0.077898  0  -0.035085  -0.202838  0  3.94277  0
C  C81  1  0.99082983  0.87216440  0.12745137  1  0.166177  0  -0.036331  -0.204537  0  3.945879  0
C  C82  1  0.50918252  0.37215538  0.62744807  1  0.166061  0  -0.036251  -0.20443  0  3.94599  0
C  C83  1  0.49396888  0.62814139  0.37309631  1  0.07862  0  -0.035185  -0.203149  0  3.942009  0
O  O84  1  0.32942580  0.69054108  0.18639891  1  -1.262638  0  -0.23837  -0.599321  0  2.35103  0
O  O85  1  0.66121008  0.31630885  0.80720407  1  -1.255837  0  -0.238584  -0.601261  0  2.348997  0
O  O86  1  0.83880274  0.81631108  0.30719980  1  -1.255881  0  -0.238618  -0.601296  0  2.349203  0
O  O87  1  0.17057369  0.19053997  0.68639672  1  -1.262712  0  -0.238394  -0.599309  0  2.351147  0
O  O88  1  0.67630382  0.69249263  0.31196252  1  -1.229597  0  -0.232237  -0.586706  0  2.269883  0
O  O89  1  0.33320271  0.31448133  0.69486111  1  -1.235161  0  -0.233076  -0.591418  0  2.273698  0
O  O90  1  0.16681572  0.81448402  0.19486219  1  -1.234781  0  -0.233221  -0.591556  0  2.273443  0
O  O91  1  0.82370347  0.19249131  0.81195973  1  -1.23043  0  -0.232131  -0.586632  0  2.26976  0
O  O92  1  0.66658510  0.68109970  0.19464815  1  -1.262766  0  -0.240427  -0.6043  0  2.349096  0
O  O93  1  0.32266703  0.31093753  0.81246498  1  -1.25642  0  -0.236664  -0.595565  0  2.350602  0
O  O94  1  0.17734634  0.81094383  0.31246735  1  -1.256527  0  -0.236715  -0.595679  0  2.350459  0
O  O95  1  0.83341779  0.18110049  0.69465481  1  -1.26299  0  -0.240378  -0.604353  0  2.349252  0
O  O96  1  0.82687944  0.80568724  0.18973670  1  -1.242318  0  -0.228536  -0.580625  0  2.284939  0
O  O97  1  0.16321179  0.18702125  0.80388027  1  -1.232347  0  -0.227539  -0.580542  0  2.290088  0
O  O98  1  0.33678862  0.68702580  0.30388933  1  -1.232288  0  -0.227634  -0.580676  0  2.289963  0
O  O99  1  0.67312751  0.30568664  0.68974268  1  -1.241989  0  -0.228528  -0.580621  0  2.284912  0
O  O100  1  0.50372641  0.79043389  0.25103453  1  -1.440249  0  -0.4484  -0.996543  0  2.200307  0
O  O101  1  0.49642171  0.20952227  0.74888390  1  -1.415741  0  -0.447641  -0.998683  0  2.205604  0
O  O102  1  0.00358414  0.70952560  0.24888475  1  -1.415817  0  -0.447552  -0.998604  0  2.205352  0
O  O103  1  0.99628579  0.29043109  0.75103412  1  -1.440801  0  -0.448387  -0.996512  0  2.20025  0
O  O104  1  0.33969363  0.96146260  0.05778371  1  -1.150868  0  -0.340312  -0.426408  0  2.29987  0
O  O105  1  0.65939857  0.03917712  0.94297231  1  -1.145671  0  -0.34033  -0.426584  0  2.299791  0
O  O106  1  0.84061072  0.53918544  0.44297749  1  -1.145984  0  -0.340349  -0.426595  0  2.299744  0
O  O107  1  0.16031964  0.46145091  0.55778067  1  -1.150506  0  -0.34039  -0.426465  0  2.299456  0
