# generated using pymatgen
data_Cu3H9C13S3(N2Cl)3
_symmetry_space_group_name_H-M   'P 1'
_cell_length_a   8.24240100
_cell_length_b   10.86336162
_cell_length_c   12.44354111
_cell_angle_alpha   72.61208879
_cell_angle_beta   87.58462464
_cell_angle_gamma   90.33859702
_symmetry_Int_Tables_number   1
_chemical_formula_structural   Cu3H9C13S3(N2Cl)3
_chemical_formula_sum   'Cu6 H18 C26 S6 N12 Cl6'
_cell_volume   1062.13719303
_cell_formula_units_Z   2
loop_
 _symmetry_equiv_pos_site_id
 _symmetry_equiv_pos_as_xyz
  1  'x, y, z'
loop_
 _atom_site_type_symbol
 _atom_site_label
 _atom_site_symmetry_multiplicity
 _atom_site_fract_x
 _atom_site_fract_y
 _atom_site_fract_z
 _atom_site_occupancy
 _atom_site_hle17_ddec_charge
 _atom_site_hle17_ddec_spin_density
 _atom_site_hle17_ddec_sum_bond_order
 _atom_site_hle17_magmom
 _atom_site_hse06_10hf_ddec_charge
 _atom_site_hse06_10hf_ddec_spin_density
 _atom_site_hse06_10hf_ddec_sum_bond_order
 _atom_site_hse06_10hf_magmom
 _atom_site_hse06_ddec_charge
 _atom_site_hse06_ddec_spin_density
 _atom_site_hse06_ddec_sum_bond_order
 _atom_site_hse06_magmom
 _atom_site_pbe_cm5_charge
 _atom_site_pbe_ddec_charge
 _atom_site_pbe_ddec_spin_density
 _atom_site_pbe_ddec_sum_bond_order
 _atom_site_pbe_magmom
Cu  Cu0  1  0.70240000  0.13509754  0.16996454  1  0.56031  0.471843  2.060724  0.319  0.516226  0.608762  2.482635  0.436  0.595141  0.744753  2.417609  0.549  0.58579  0.482717  0.511282  2.521412  0.367
Cu  Cu1  1  0.29759885  0.86490459  0.83003688  1  0.560272  -0.471813  2.060644  -0.319  0.516192  -0.608739  2.482559  -0.436  0.595083  -0.744722  2.417502  -0.549  0.585757  0.482667  -0.51128  2.521331  -0.367
Cu  Cu2  1  0.46900728  0.64732903  0.47799703  1  0.443008  -0.012273  2.037623  -0.008  0.341562  -0.005715  2.519849  -0.004  0.332749  -0.002273  2.479984  -0.001  0.445552  0.353159  -0.012857  2.541731  -0.009
Cu  Cu3  1  0.53098639  0.35267381  0.52200132  1  0.442985  0.012276  2.037632  0.008  0.341549  0.005718  2.519854  0.004  0.332753  0.002267  2.479998  0.001  0.445547  0.353147  0.012857  2.541735  0.009
Cu  Cu4  1  0.08809644  0.36171313  0.02825016  1  0.476527  0.126621  1.986121  0.089  0.370907  0.071955  2.481692  0.053  0.355289  0.023302  2.445703  0.017  0.378231  0.391688  0.128381  2.497605  0.095
Cu  Cu5  1  0.91190673  0.63828593  0.97174620  1  0.476483  -0.126616  1.986163  -0.089  0.370833  -0.071961  2.481711  -0.053  0.355203  -0.023306  2.445717  -0.017  0.378221  0.391616  -0.128354  2.497634  -0.095
H  H6  1  0.91479647  0.92657512  0.10969110  1  0.091695  0.000488  0.966644  0.001  0.097826  0.00039  1.032632  0.001  0.100183  0.000278  1.029945  0.001  0.104563  0.095527  0.000425  1.035012  0.001
H  H7  1  0.08519889  0.07342798  0.89031189  1  0.091703  -0.000489  0.966586  -0.001  0.097825  -0.00039  1.032588  -0.001  0.100182  -0.000279  1.029902  -0.001  0.104567  0.095526  -0.000425  1.034965  -0.001
H  H8  1  0.94247737  0.68485583  0.19591926  1  0.130361  4.3e-05  0.975287  0.0  0.136758  0.00018  1.038283  0.0  0.142068  0.000145  1.035848  0.0  0.100164  0.132252  0.000156  1.040979  0.0
H  H9  1  0.05751738  0.31514502  0.80407799  1  0.130381  -4.1e-05  0.975247  0.0  0.136772  -0.00018  1.038254  0.0  0.142085  -0.000145  1.035813  0.0  0.100171  0.132265  -0.000156  1.040948  0.0
H  H10  1  0.74374702  0.57352752  0.35823071  1  0.087948  1.4e-05  0.940521  0.0  0.093342  -3.4e-05  1.009644  0.0  0.097655  -4e-05  1.003866  0.0  0.113823  0.089625  -2.6e-05  1.014622  0.0
H  H11  1  0.25625310  0.42646886  0.64177230  1  0.087939  -1.5e-05  0.940593  0.0  0.093372  3.4e-05  1.009667  0.0  0.097685  4e-05  1.003888  0.0  0.113847  0.089655  2.6e-05  1.014644  0.0
H  H12  1  0.78459188  0.35167906  0.94739270  1  0.080672  0.000761  1.007239  0.001  0.084547  0.000676  1.080228  0.001  0.089893  0.000567  1.07263  0.001  0.096079  0.079903  0.000708  1.086166  0.001
H  H13  1  0.21541106  0.64831756  0.05261407  1  0.080738  -0.000762  1.007169  -0.001  0.084596  -0.000676  1.080183  -0.001  0.089947  -0.000567  1.072579  -0.001  0.09609  0.079951  -0.000709  1.086121  -0.001
H  H14  1  0.62072009  0.50760671  0.80262044  1  0.12933  -0.00011  0.976479  0.0  0.132158  0.000257  1.046305  0.0  0.136731  0.000237  1.045328  0.0  0.09719  0.129033  0.000283  1.046944  0.0
H  H15  1  0.37928595  0.49238099  0.19738229  1  0.129336  0.000112  0.976416  0.0  0.13217  -0.000257  1.046218  0.0  0.13672  -0.000237  1.045311  0.0  0.097174  0.129055  -0.000283  1.046849  0.0
H  H16  1  0.31322700  0.50332725  0.84244853  1  0.087769  0.000238  0.947556  0.001  0.093427  -2.2e-05  1.015939  0.0  0.09622  -3.3e-05  1.013092  0.0  0.108495  0.091362  3.7e-05  1.017841  0.0
H  H17  1  0.68678325  0.49666702  0.15754633  1  0.087889  -0.000236  0.947494  -0.001  0.0936  2.2e-05  1.015837  0.0  0.096394  3.3e-05  1.012986  0.0  0.10859  0.091532  -3.7e-05  1.01775  0.0
H  H18  1  0.04067085  0.16838809  0.27914862  1  0.069231  0.000745  0.979643  0.001  0.0724  0.000594  1.055873  0.001  0.076053  0.00042  1.050224  0.001  0.10061  0.069273  0.000688  1.060578  0.001
H  H19  1  0.95932223  0.83160922  0.72085704  1  0.069168  -0.000746  0.979662  -0.001  0.072368  -0.000594  1.055865  -0.001  0.076006  -0.00042  1.05023  -0.001  0.100596  0.069239  -0.000688  1.060565  -0.001
H  H20  1  0.12225192  0.27070880  0.42887453  1  0.127343  -0.000115  0.953519  0.0  0.133716  0.000189  1.017325  0.0  0.137736  0.000129  1.016925  0.0  0.102629  0.130815  0.000222  1.017985  0.0
H  H21  1  0.87774595  0.72929342  0.57112934  1  0.127386  0.000116  0.953518  0.0  0.13377  -0.00019  1.01731  0.0  0.137767  -0.000129  1.016935  0.0  0.102622  0.130868  -0.000222  1.017973  0.0
H  H22  1  0.89463581  0.35760125  0.52820957  1  0.092189  5.4e-05  0.92814  0.0  0.100585  -9.8e-05  0.989604  0.0  0.104075  -6.3e-05  0.985423  0.0  0.115348  0.097569  -0.0001  0.993231  0.0
H  H23  1  0.10535401  0.64240624  0.47178606  1  0.092068  -5.4e-05  0.928243  0.0  0.100483  9.8e-05  0.989711  0.0  0.103967  6.3e-05  0.985529  0.0  0.115308  0.09747  0.000101  0.993337  0.0
C  C24  1  0.48413563  0.10922884  0.26293200  1  -0.224665  0.190072  3.522122  0.178  -0.22146  0.124524  3.877446  0.122  -0.242519  0.115052  3.894052  0.119  -0.121352  -0.218383  0.114616  3.875886  0.11
C  C25  1  0.51586505  0.89076916  0.73706405  1  -0.224734  -0.1901  3.522356  -0.178  -0.221488  -0.12453  3.8776  -0.122  -0.242537  -0.115064  3.894195  -0.119  -0.12132  -0.218401  -0.114624  3.876025  -0.11
C  C26  1  0.61494670  0.86954765  0.30040477  1  0.347069  0.007414  3.751647  0.008  0.331507  0.008717  4.02392  0.01  0.349916  0.006853  4.037098  0.008  0.233378  0.319632  0.009509  4.015385  0.01
C  C27  1  0.38504752  0.13045642  0.69959881  1  0.347019  -0.007428  3.751732  -0.008  0.331541  -0.008719  4.023926  -0.01  0.349953  -0.006853  4.037102  -0.008  0.233459  0.319664  -0.009511  4.015383  -0.01
C  C28  1  0.83388556  0.87061391  0.17877673  1  0.199947  -0.003304  3.630476  -0.004  0.167118  -0.001309  3.879426  -0.002  0.182314  -0.001519  3.892416  -0.002  0.061063  0.156653  -0.000856  3.873386  -0.002
C  C29  1  0.16611162  0.12938603  0.82122061  1  0.199927  0.003306  3.630501  0.004  0.167117  0.001308  3.879475  0.002  0.182307  0.001519  3.892472  0.002  0.061075  0.15665  0.000855  3.873427  0.002
C  C30  1  0.84981879  0.73843478  0.22683386  1  -0.180384  0.004716  3.699255  0.004  -0.190805  0.003156  3.946311  0.003  -0.20244  0.002748  3.961982  0.003  -0.09101  -0.1845  0.003223  3.938538  0.003
C  C31  1  0.15018270  0.26156169  0.77317064  1  -0.180419  -0.004713  3.699138  -0.004  -0.190835  -0.003153  3.9462  -0.003  -0.20247  -0.002747  3.961875  -0.003  -0.090999  -0.184533  -0.003223  3.938423  -0.003
C  C32  1  0.74023124  0.67662537  0.31451688  1  0.195241  -0.002777  3.640905  -0.002  0.162545  -0.001068  3.888265  -0.001  0.177835  -0.001401  3.896367  -0.001  0.062139  0.152073  -0.000569  3.884294  0.0
C  C33  1  0.25976967  0.32337372  0.68548125  1  0.19528  0.002779  3.641001  0.002  0.162563  0.001066  3.888362  0.001  0.177857  0.0014  3.896466  0.001  0.062157  0.152087  0.000568  3.884387  0.0
C  C34  1  0.41802276  0.26507338  0.05789299  1  0.339907  -0.00218  3.749022  -0.002  0.320537  0.003695  4.027191  0.003  0.339418  0.002402  4.040523  0.002  0.230238  0.309002  0.004532  4.018626  0.004
C  C35  1  0.58198207  0.73492109  0.94210865  1  0.339919  0.002171  3.749173  0.002  0.320509  -0.003697  4.027323  -0.003  0.339382  -0.002402  4.040658  -0.002  0.230256  0.308977  -0.004533  4.018755  -0.004
C  C36  1  0.65258532  0.35244452  0.95557657  1  0.199599  -0.009457  3.623389  -0.01  0.163897  -0.003374  3.87446  -0.004  0.180847  -0.003425  3.883007  -0.005  0.059428  0.153332  -0.003177  3.870106  -0.004
C  C37  1  0.34742370  0.64755804  0.04442883  1  0.199599  0.009459  3.623239  0.01  0.163916  0.003372  3.874269  0.004  0.180863  0.003426  3.882813  0.005  0.059445  0.15335  0.003176  3.869919  0.004
C  C38  1  0.56172065  0.43973701  0.87679756  1  -0.158851  0.012356  3.681491  0.011  -0.173384  0.006843  3.935839  0.007  -0.184795  0.005835  3.952958  0.006  -0.088552  -0.166877  0.007199  3.924719  0.007
C  C39  1  0.43829036  0.56026152  0.12320405  1  -0.158905  -0.012357  3.681458  -0.011  -0.173388  -0.00684  3.935787  -0.007  -0.184806  -0.005835  3.952896  -0.006  -0.08852  -0.166892  -0.007199  3.924665  -0.007
C  C40  1  0.39494048  0.43634510  0.89693659  1  0.18044  -0.008424  3.643789  -0.008  0.145405  -0.003328  3.901758  -0.003  0.158834  -0.003248  3.912833  -0.003  0.053453  0.137028  -0.00314  3.89441  -0.003
C  C41  1  0.60507488  0.56364746  0.10306083  1  0.180329  0.008423  3.643876  0.008  0.145136  0.003329  3.901866  0.003  0.158567  0.003249  3.912933  0.003  0.053282  0.136757  0.003139  3.894533  0.003
C  C42  1  0.68232202  0.23594718  0.36617895  1  0.340639  0.000321  3.764078  0.0  0.320995  0.004159  4.043699  0.004  0.339394  0.00288  4.056725  0.003  0.226272  0.309382  0.0048  4.035339  0.004
C  C43  1  0.31767178  0.76405862  0.63382013  1  0.340603  -0.000313  3.763898  0.0  0.320841  -0.004166  4.043725  -0.004  0.33923  -0.00288  4.056758  -0.003  0.226175  0.309228  -0.004804  4.035349  -0.004
C  C44  1  0.95112517  0.20235946  0.33023415  1  0.203552  -0.006086  3.663765  -0.006  0.169625  -0.002422  3.919337  -0.003  0.186819  -0.002704  3.929683  -0.003  0.057796  0.158134  -0.002202  3.914299  -0.003
C  C45  1  0.04886769  0.79763677  0.66976942  1  0.2036  0.006088  3.664106  0.006  0.169671  0.002417  3.919677  0.003  0.186866  0.002706  3.93003  0.003  0.057838  0.158185  0.0022  3.914625  0.003
C  C46  1  0.99539872  0.25846691  0.41220725  1  -0.169727  0.010077  3.696061  0.009  -0.182912  0.006222  3.946567  0.006  -0.194817  0.005044  3.96365  0.005  -0.090804  -0.176436  0.006542  3.93659  0.006
C  C47  1  0.00458951  0.74153805  0.58779731  1  -0.169915  -0.010067  3.696012  -0.009  -0.18311  -0.006215  3.946572  -0.006  -0.194994  -0.005046  3.963663  -0.005  -0.090857  -0.176636  -0.006544  3.936597  -0.006
C  C48  1  0.87210892  0.30678226  0.46655952  1  0.187252  -0.006208  3.642296  -0.006  0.151419  -0.002743  3.896144  -0.003  0.166382  -0.002792  3.904194  -0.003  0.057181  0.141218  -0.002486  3.892288  -0.002
C  C49  1  0.12788678  0.69322817  0.53343322  1  0.187706  0.006199  3.642002  0.006  0.151813  0.002738  3.895903  0.003  0.166787  0.002793  3.903936  0.003  0.057337  0.141602  0.002486  3.892052  0.002
S  S50  1  0.46138798  0.94712614  0.35427347  1  0.000555  0.015915  2.551112  0.005  -0.01949  0.015953  2.912316  0.004  -0.019754  0.011096  2.910186  0.0  0.013946  -0.019446  0.017574  2.916503  0.005
S  S51  1  0.53860942  0.05287585  0.64572567  1  0.00059  -0.01591  2.551001  -0.005  -0.019482  -0.015954  2.912157  -0.004  -0.019749  -0.011098  2.910028  0.0  0.013937  -0.019453  -0.017575  2.916342  -0.005
S  S52  1  0.32049160  0.14589880  0.16878202  1  0.026228  0.03307  2.543998  0.022  0.011542  0.025073  2.900062  0.015  0.006949  0.016248  2.896531  0.007  0.027811  0.012288  0.027626  2.906345  0.017
S  S53  1  0.67951074  0.85410236  0.83121782  1  0.026154  -0.03307  2.543905  -0.022  0.011445  -0.025076  2.899969  -0.015  0.006852  -0.016248  2.896434  -0.007  0.027744  0.012187  -0.02763  2.906247  -0.017
S  S54  1  0.47684555  0.22294907  0.34299729  1  0.004208  0.02885  2.584759  0.02  -0.008919  0.020785  2.956808  0.012  -0.010136  0.013679  2.953254  0.006  0.021774  -0.009271  0.023208  2.961596  0.015
S  S55  1  0.52315441  0.77705497  0.65700268  1  0.004277  -0.028863  2.584824  -0.02  -0.00883  -0.02079  2.956925  -0.012  -0.010048  -0.013684  2.953369  -0.006  0.02178  -0.009186  -0.023217  2.961699  -0.015
N  N56  1  0.71786401  0.93685869  0.21598307  1  -0.360092  0.028518  3.268585  0.034  -0.304675  0.026902  3.553717  0.033  -0.332793  0.025139  3.566023  0.033  -0.346612  -0.290068  0.026184  3.548044  0.031
N  N57  1  0.28214117  0.06314758  0.78401990  1  -0.35996  -0.028507  3.268647  -0.034  -0.30461  -0.026897  3.553813  -0.033  -0.332723  -0.025136  3.566109  -0.033  -0.346623  -0.290003  -0.026182  3.548126  -0.031
N  N58  1  0.58142494  0.26468536  0.04575923  1  -0.361508  0.040179  3.290295  0.048  -0.304665  0.035612  3.579652  0.044  -0.332979  0.034221  3.590994  0.045  -0.34612  -0.29066  0.033107  3.574682  0.041
N  N59  1  0.41857975  0.73531484  0.95423991  1  -0.361514  -0.040175  3.290153  -0.048  -0.304697  -0.035608  3.579527  -0.044  -0.332998  -0.034221  3.590851  -0.045  -0.34614  -0.290689  -0.033106  3.574551  -0.041
N  N60  1  0.79485588  0.19148397  0.30677622  1  -0.365266  0.020273  3.251217  0.024  -0.312101  0.01924  3.535492  0.024  -0.339897  0.017547  3.549235  0.023  -0.340609  -0.298255  0.018562  3.529356  0.022
N  N61  1  0.20513531  0.80851685  0.69322209  1  -0.365202  -0.020288  3.251293  -0.024  -0.312026  -0.019243  3.535644  -0.024  -0.339804  -0.017554  3.549372  -0.023  -0.340606  -0.298179  -0.018566  3.52949  -0.022
N  N62  1  0.62188661  0.74126618  0.35136795  1  -0.355316  0.002391  3.335999  0.002  -0.284524  0.001552  3.622133  0.001  -0.296956  0.001259  3.623531  0.001  -0.358804  -0.277734  0.001682  3.621293  0.001
N  N63  1  0.37811402  0.25873529  0.64863918  1  -0.355353  -0.002393  3.336236  -0.002  -0.284612  -0.001552  3.622397  -0.001  -0.297056  -0.00126  3.623808  -0.001  -0.358948  -0.277822  -0.001682  3.621553  -0.001
N  N64  1  0.32187370  0.35051406  0.98860002  1  -0.3679  0.014161  3.348395  0.017  -0.300347  0.007927  3.64847  0.009  -0.31274  0.005168  3.651453  0.006  -0.362543  -0.293741  0.010529  3.645269  0.012
N  N65  1  0.67813044  0.64948490  0.01139389  1  -0.367872  -0.014159  3.34884  -0.017  -0.300159  -0.007927  3.648792  -0.009  -0.312542  -0.005168  3.651762  -0.006  -0.362461  -0.293557  -0.010528  3.645604  -0.012
N  N66  1  0.71421350  0.29498967  0.44488046  1  -0.375921  0.004532  3.378953  0.005  -0.306777  0.002747  3.679914  0.003  -0.31848  0.002554  3.680079  0.003  -0.371215  -0.300459  0.002728  3.679735  0.003
N  N67  1  0.28577774  0.70501408  0.55511779  1  -0.376129  -0.004539  3.378998  -0.005  -0.306904  -0.002748  3.679989  -0.003  -0.318602  -0.002558  3.680145  -0.003  -0.37122  -0.300582  -0.002728  3.679813  -0.003
Cl  Cl68  1  0.95011969  0.16929487  0.06048751  1  -0.526855  0.046875  1.30422  0.052  -0.478214  0.044718  1.660995  0.052  -0.496913  0.039395  1.626466  0.046  -0.286946  -0.466165  0.045926  1.682089  0.052
Cl  Cl69  1  0.04987904  0.83070332  0.93951346  1  -0.526838  -0.046868  1.304233  -0.052  -0.478195  -0.044714  1.661036  -0.052  -0.496885  -0.039389  1.62649  -0.046  -0.286959  -0.466152  -0.045921  1.682139  -0.052
Cl  Cl70  1  0.33526451  0.48964992  0.40940965  1  -0.590425  0.000321  1.146945  0.0  -0.528819  0.000465  1.467487  0.0  -0.54765  0.000398  1.443551  0.0  -0.337282  -0.514158  0.001932  1.481339  0.002
Cl  Cl71  1  0.66472810  0.51035394  0.59059008  1  -0.590424  -0.000321  1.146956  0.0  -0.528801  -0.000464  1.467484  0.0  -0.547639  -0.000398  1.443539  0.0  -0.337269  -0.51414  -0.001932  1.481328  -0.002
Cl  Cl72  1  0.99896920  0.47610579  0.14616827  1  -0.564119  0.003528  1.2228  0.003  -0.500967  0.001867  1.565537  0.002  -0.519634  0.000442  1.542424  0.0  -0.311099  -0.485501  0.003885  1.577715  0.004
Cl  Cl73  1  0.00103642  0.52389042  0.85382876  1  -0.564077  -0.003528  1.222826  -0.003  -0.500929  -0.001868  1.565571  -0.002  -0.5196  -0.000443  1.542459  0.0  -0.311055  -0.485465  -0.003883  1.577746  -0.004
