# generated using pymatgen
data_CdH8C10(NCl)2
_symmetry_space_group_name_H-M   'P 1'
_cell_length_a   3.77671001
_cell_length_b   11.79996123
_cell_length_c   11.86346215
_cell_angle_alpha   89.99992013
_cell_angle_beta   90.00006658
_cell_angle_gamma   90.00014229
_symmetry_Int_Tables_number   1
_chemical_formula_structural   CdH8C10(NCl)2
_chemical_formula_sum   'Cd2 H16 C20 N4 Cl4'
_cell_volume   528.69556710
_cell_formula_units_Z   2
loop_
 _symmetry_equiv_pos_site_id
 _symmetry_equiv_pos_as_xyz
  1  'x, y, z'
loop_
 _atom_site_type_symbol
 _atom_site_label
 _atom_site_symmetry_multiplicity
 _atom_site_fract_x
 _atom_site_fract_y
 _atom_site_fract_z
 _atom_site_occupancy
 _atom_site_hle17_bader_spin_density
 _atom_site_hle17_ddec_charge
 _atom_site_hle17_ddec_spin_density
 _atom_site_hle17_ddec_sum_bond_order
 _atom_site_hle17_magmom
 _atom_site_hse06_10hf_bader_spin_density
 _atom_site_hse06_10hf_ddec_charge
 _atom_site_hse06_10hf_ddec_spin_density
 _atom_site_hse06_10hf_ddec_sum_bond_order
 _atom_site_hse06_10hf_magmom
 _atom_site_hse06_bader_spin_density
 _atom_site_hse06_ddec_charge
 _atom_site_hse06_ddec_spin_density
 _atom_site_hse06_ddec_sum_bond_order
 _atom_site_hse06_magmom
 _atom_site_pbe_bader_spin_density
 _atom_site_pbe_cm5_charge
 _atom_site_pbe_ddec_charge
 _atom_site_pbe_ddec_spin_density
 _atom_site_pbe_ddec_sum_bond_order
 _atom_site_pbe_magmom
Cd  Cd0  1  0.50000009  0.24999916  0.25000028  1  0  0.924514  0  1.984085  0  0  0.755526  0  2.44383  0  0  0.800853  0  2.405552  0  0  0.597889  0.723513  0  2.470215  0
Cd  Cd1  1  0.50000027  0.75000047  0.74999984  1  0  0.924558  0  1.983999  0  0  0.755564  0  2.443748  0  0  0.800888  0  2.405475  0  0  0.597915  0.723553  0  2.470128  0
H  H2  1  0.68392893  0.04273088  0.08593031  1  0  0.075855  0  0.956783  0  0  0.083965  0  1.023441  0  0  0.086186  0  1.021588  0  0  0.104894  0.082338  0  1.024787  0
H  H3  1  0.31606925  0.54273202  0.58592728  1  0  0.075833  0  0.956743  0  0  0.083989  0  1.023345  0  0  0.08621  0  1.021493  0  0  0.10491  0.082362  0  1.02469  0
H  H4  1  0.68391917  0.54273280  0.91406679  1  0  0.075889  0  0.956774  0  0  0.083974  0  1.023447  0  0  0.086192  0  1.021598  0  0  0.104936  0.082348  0  1.024787  0
H  H5  1  0.68393593  0.95726998  0.58592789  1  0  0.075804  0  0.956743  0  0  0.083933  0  1.023381  0  0  0.086152  0  1.021532  0  0  0.104898  0.082306  0  1.024724  0
H  H6  1  0.31608996  0.95726621  0.91406896  1  0  0.075944  0  0.956731  0  0  0.084042  0  1.023401  0  0  0.086261  0  1.02155  0  0  0.104951  0.082415  0  1.024745  0
H  H7  1  0.68392316  0.45726845  0.41407116  1  0  0.075888  0  0.956755  0  0  0.084015  0  1.023383  0  0  0.086236  0  1.021529  0  0  0.104935  0.082387  0  1.024726  0
H  H8  1  0.31607325  0.45726768  0.08593164  1  0  0.075872  0  0.956771  0  0  0.084012  0  1.023398  0  0  0.086234  0  1.021546  0  0  0.104921  0.082385  0  1.02474  0
H  H9  1  0.31608031  0.04273219  0.41406971  1  0  0.075867  0  0.956754  0  0  0.083958  0  1.023427  0  0  0.086177  0  1.021577  0  0  0.104918  0.082333  0  1.02477  0
H  H10  1  0.68557875  0.83130551  0.07700824  1  0  0.111209  0  0.991412  0  0  0.11894  0  1.058444  0  0  0.122273  0  1.057077  0  0  0.092512  0.116441  0  1.059711  0
H  H11  1  0.31441623  0.33130676  0.57700929  1  0  0.111199  0  0.991469  0  0  0.118965  0  1.058473  0  0  0.122277  0  1.057135  0  0  0.092514  0.116464  0  1.059746  0
H  H12  1  0.68557328  0.33130837  0.92298592  1  0  0.111205  0  0.991493  0  0  0.118961  0  1.058507  0  0  0.12228  0  1.057154  0  0  0.092548  0.116462  0  1.059774  0
H  H13  1  0.68558259  0.16869621  0.57701368  1  0  0.111148  0  0.991545  0  0  0.118929  0  1.058537  0  0  0.122235  0  1.057193  0  0  0.092527  0.11643  0  1.059805  0
H  H14  1  0.31442425  0.16869158  0.92299188  1  0  0.11118  0  0.991403  0  0  0.118919  0  1.058431  0  0  0.122251  0  1.05707  0  0  0.092527  0.116419  0  1.059702  0
H  H15  1  0.68557354  0.66869372  0.42299168  1  0  0.111171  0  0.991489  0  0  0.118925  0  1.05851  0  0  0.122247  0  1.057157  0  0  0.092512  0.116427  0  1.059775  0
H  H16  1  0.31441384  0.66869211  0.07701504  1  0  0.111237  0  0.991459  0  0  0.118981  0  1.058493  0  0  0.122321  0  1.057113  0  0  0.092529  0.116485  0  1.059762  0
H  H17  1  0.31442306  0.83130596  0.42298728  1  0  0.111153  0  0.991521  0  0  0.118903  0  1.058553  0  0  0.122231  0  1.057188  0  0  0.092535  0.116406  0  1.059818  0
C  C18  1  0.59912595  0.99183560  0.15785972  1  0  0.128694  0  3.713212  0  0  0.098266  0  3.964461  0  0  0.10504  0  3.983536  0  0  0.040459  0.093908  0  3.951368  0
C  C19  1  0.40087053  0.49183947  0.65785995  1  0  0.128826  0  3.713142  0  0  0.09841  0  3.964394  0  0  0.105184  0  3.983464  0  0  0.040542  0.094052  0  3.951295  0
C  C20  1  0.59911751  0.49183773  0.84213756  1  0  0.128614  0  3.71342  0  0  0.098241  0  3.964678  0  0  0.105015  0  3.98375  0  0  0.040379  0.093884  0  3.951579  0
C  C21  1  0.59913126  0.00816508  0.65786286  1  0  0.128869  0  3.713364  0  0  0.098458  0  3.964621  0  0  0.105232  0  3.983691  0  0  0.040479  0.094099  0  3.951525  0
C  C22  1  0.40088764  0.00816318  0.84214124  1  0  0.128545  0  3.71321  0  0  0.098141  0  3.964455  0  0  0.104917  0  3.983528  0  0  0.040387  0.093782  0  3.951358  0
C  C23  1  0.59911924  0.50815931  0.34214185  1  0  0.128805  0  3.713088  0  0  0.098432  0  3.964312  0  0  0.105208  0  3.983379  0  0  0.040515  0.094073  0  3.951212  0
C  C24  1  0.40087225  0.50815936  0.15786340  1  0  0.128793  0  3.713341  0  0  0.098394  0  3.964591  0  0  0.105166  0  3.983667  0  0  0.040507  0.094037  0  3.951489  0
C  C25  1  0.40087969  0.99183540  0.34213642  1  0  0.128623  0  3.713397  0  0  0.098231  0  3.964656  0  0  0.105006  0  3.983729  0  0  0.040373  0.093871  0  3.951565  0
C  C26  1  0.59995692  0.87407675  0.15387024  1  0  -0.153909  0  3.685843  0  0  -0.171307  0  3.930455  0  0  -0.178673  0  3.95154  0  0  -0.083956  -0.166483  0  3.916327  0
C  C27  1  0.40003603  0.37407722  0.65386795  1  0  -0.153906  0  3.68574  0  0  -0.171369  0  3.930396  0  0  -0.178721  0  3.951499  0  0  -0.083958  -0.166545  0  3.916268  0
C  C28  1  0.59993261  0.37407972  0.84612805  1  0  -0.153992  0  3.68594  0  0  -0.171432  0  3.930569  0  0  -0.178786  0  3.951663  0  0  -0.084062  -0.166607  0  3.916438  0
C  C29  1  0.59994985  0.12592140  0.65386984  1  0  -0.154006  0  3.685744  0  0  -0.171484  0  3.930404  0  0  -0.178823  0  3.951498  0  0  -0.084012  -0.16666  0  3.916275  0
C  C30  1  0.40005668  0.12592289  0.84612987  1  0  -0.153824  0  3.685798  0  0  -0.171223  0  3.930404  0  0  -0.178591  0  3.951497  0  0  -0.083993  -0.166397  0  3.91627  0
C  C31  1  0.59994579  0.62592326  0.34613133  1  0  -0.153953  0  3.685742  0  0  -0.171394  0  3.93041  0  0  -0.178752  0  3.9515  0  0  -0.083988  -0.166569  0  3.916276  0
C  C32  1  0.40005186  0.62591907  0.15387207  1  0  -0.154157  0  3.685806  0  0  -0.171612  0  3.930545  0  0  -0.178979  0  3.951619  0  0  -0.084101  -0.166793  0  3.916417  0
C  C33  1  0.40006109  0.87407738  0.34612859  1  0  -0.153896  0  3.685789  0  0  -0.171363  0  3.930448  0  0  -0.178722  0  3.951532  0  0  -0.084044  -0.166537  0  3.916319  0
C  C34  1  0.50001275  0.81262050  0.24999820  1  0  0.099968  0  3.739067  0  0  0.112196  0  3.967345  0  0  0.115978  0  3.988434  0  0  0.013543  0.109879  0  3.952834  0
C  C35  1  0.49998542  0.31262106  0.74999762  1  0  0.099953  0  3.73923  0  0  0.112135  0  3.967557  0  0  0.115919  0  3.988641  0  0  0.013515  0.109816  0  3.953047  0
C  C36  1  0.49999025  0.18738082  0.75000277  1  0  0.100023  0  3.739024  0  0  0.112209  0  3.967336  0  0  0.115992  0  3.98842  0  0  0.013558  0.109892  0  3.952824  0
C  C37  1  0.50000700  0.68737942  0.25000503  1  0  0.100028  0  3.738928  0  0  0.112173  0  3.967314  0  0  0.115955  0  3.988401  0  0  0.013513  0.109854  0  3.952802  0
N  N38  1  0.50000200  0.05010614  0.25000043  1  0  -0.326437  0  3.29385  0  0  -0.248901  0  3.554709  0  0  -0.269245  0  3.576994  0  0  -0.331664  -0.235002  0  3.539181  0
N  N39  1  0.49999424  0.55010744  0.74999745  1  0  -0.326513  0  3.293855  0  0  -0.249043  0  3.55481  0  0  -0.269382  0  3.577085  0  0  -0.331782  -0.235143  0  3.539273  0
N  N40  1  0.50001424  0.94989434  0.74999717  1  0  -0.326557  0  3.293937  0  0  -0.249063  0  3.554855  0  0  -0.269405  0  3.577136  0  0  -0.331762  -0.235163  0  3.539319  0
N  N41  1  0.49999818  0.44989389  0.25000183  1  0  -0.326529  0  3.293856  0  0  -0.249094  0  3.554858  0  0  -0.269441  0  3.577149  0  0  -0.33179  -0.235194  0  3.539318  0
Cl  Cl42  1  0.99999845  0.25000033  0.09179191  1  0  -0.559394  0  1.014072  0  0  -0.500628  0  1.299732  0  0  -0.516651  0  1.279043  0  0  -0.288509  -0.488882  0  1.31424  0
Cl  Cl43  1  0.00000128  0.75000037  0.59179214  1  0  -0.559383  0  1.014068  0  0  -0.500611  0  1.29971  0  0  -0.516636  0  1.279023  0  0  -0.288513  -0.488868  0  1.314216  0
Cl  Cl44  1  0.00000191  0.75000100  0.90820905  1  0  -0.559415  0  1.01408  0  0  -0.500632  0  1.29972  0  0  -0.516658  0  1.279036  0  0  -0.288502  -0.488891  0  1.314228  0
Cl  Cl45  1  0.99999907  0.25000096  0.40820882  1  0  -0.559396  0  1.014079  0  0  -0.500632  0  1.299728  0  0  -0.516651  0  1.279033  0  0  -0.288506  -0.488886  0  1.314237  0
