# generated using pymatgen
data_ZnH8C10(NCl)2
_symmetry_space_group_name_H-M   'P 1'
_cell_length_a   4.52962991
_cell_length_b   8.42254057
_cell_length_c   14.89820100
_cell_angle_alpha   73.56166482
_cell_angle_beta   81.17239122
_cell_angle_gamma   74.56519062
_symmetry_Int_Tables_number   1
_chemical_formula_structural   ZnH8C10(NCl)2
_chemical_formula_sum   'Zn2 H16 C20 N4 Cl4'
_cell_volume   523.60645880
_cell_formula_units_Z   2
loop_
 _symmetry_equiv_pos_site_id
 _symmetry_equiv_pos_as_xyz
  1  'x, y, z'
loop_
 _atom_site_type_symbol
 _atom_site_label
 _atom_site_symmetry_multiplicity
 _atom_site_fract_x
 _atom_site_fract_y
 _atom_site_fract_z
 _atom_site_occupancy
 _atom_site_hle17_bader_spin_density
 _atom_site_hle17_ddec_charge
 _atom_site_hle17_ddec_spin_density
 _atom_site_hle17_ddec_sum_bond_order
 _atom_site_hle17_magmom
 _atom_site_hse06_10hf_bader_spin_density
 _atom_site_hse06_10hf_ddec_charge
 _atom_site_hse06_10hf_ddec_spin_density
 _atom_site_hse06_10hf_ddec_sum_bond_order
 _atom_site_hse06_10hf_magmom
 _atom_site_hse06_bader_spin_density
 _atom_site_hse06_ddec_charge
 _atom_site_hse06_ddec_spin_density
 _atom_site_hse06_ddec_sum_bond_order
 _atom_site_hse06_magmom
 _atom_site_pbe_bader_spin_density
 _atom_site_pbe_cm5_charge
 _atom_site_pbe_ddec_charge
 _atom_site_pbe_ddec_spin_density
 _atom_site_pbe_ddec_sum_bond_order
 _atom_site_pbe_magmom
Zn  Zn0  1  0.79896012  0.85646870  0.65060555  1  0  0.862556  0  2.048131  0  0  0.678613  0  2.539201  0  0  0.719985  0  2.493242  0  0  0.565148  0.650207  0  2.5704  0
Zn  Zn1  1  0.69366648  0.35525461  0.15116033  1  0  0.861884  0  2.048673  0  0  0.67731  0  2.53957  0  0  0.718744  0  2.493556  0  0  0.564994  0.648859  0  2.570822  0
H  H2  1  0.20124713  0.51835957  0.64077515  1  0  0.073601  0  0.965201  0  0  0.080989  0  1.032093  0  0  0.083516  0  1.02947  0  0  0.10528  0.079083  0  1.034118  0
H  H3  1  0.63953630  0.01665239  0.14041617  1  0  0.074291  0  0.964143  0  0  0.081647  0  1.031203  0  0  0.084272  0  1.028466  0  0  0.105321  0.079683  0  1.033275  0
H  H4  1  0.62330415  0.39605054  0.53634941  1  0  0.103999  0  0.991513  0  0  0.113801  0  1.055096  0  0  0.117162  0  1.05344  0  0  0.096497  0.111358  0  1.056497  0
H  H5  1  0.44594208  0.89476009  0.03541579  1  0  0.104862  0  0.991192  0  0  0.114093  0  1.055322  0  0  0.117542  0  1.053583  0  0  0.097159  0.111613  0  1.05673  0
H  H6  1  0.49810603  0.90058217  0.34531686  1  0  0.109705  0  0.969146  0  0  0.117633  0  1.034631  0  0  0.120898  0  1.033248  0  0  0.101535  0.115218  0  1.035902  0
H  H7  1  0.25575121  0.40076138  0.84621590  1  0  0.109876  0  0.968202  0  0  0.117552  0  1.034056  0  0  0.12086  0  1.032614  0  0  0.101503  0.115137  0  1.035329  0
H  H8  1  0.07065995  0.99645154  0.45617554  1  0  0.080957  0  0.960343  0  0  0.086233  0  1.030335  0  0  0.088729  0  1.027888  0  0  0.105483  0.084367  0  1.032174  0
H  H9  1  0.47707330  0.49613153  0.95713361  1  0  0.080113  0  0.959717  0  0  0.084846  0  1.03019  0  0  0.087455  0  1.027633  0  0  0.105194  0.082895  0  1.032105  0
H  H10  1  0.42025540  0.21591151  0.34559000  1  0  0.08019  0  0.959835  0  0  0.085821  0  1.0295  0  0  0.088334  0  1.02704  0  0  0.105697  0.08392  0  1.03137  0
H  H11  1  0.01253188  0.71672718  0.84521080  1  0  0.080675  0  0.958371  0  0  0.086259  0  1.02776  0  0  0.088871  0  1.025211  0  0  0.105658  0.084271  0  1.029744  0
H  H12  1  0.99222510  0.31214375  0.45614331  1  0  0.109393  0  0.968146  0  0  0.117134  0  1.034238  0  0  0.120467  0  1.03276  0  0  0.101376  0.114718  0  1.035509  0
H  H13  1  0.23365399  0.81232047  0.95608978  1  0  0.109523  0  0.967672  0  0  0.117977  0  1.032565  0  0  0.12119  0  1.031252  0  0  0.101682  0.115574  0  1.033813  0
H  H14  1  0.86457069  0.81573393  0.26407954  1  0  0.104384  0  0.990096  0  0  0.114085  0  1.053826  0  0  0.117536  0  1.052051  0  0  0.097009  0.111605  0  1.055259  0
H  H15  1  0.06099495  0.31576829  0.76394012  1  0  0.105407  0  0.988046  0  0  0.114658  0  1.05209  0  0  0.118017  0  1.050403  0  0  0.097754  0.112232  0  1.053488  0
H  H16  1  0.28870945  0.69332277  0.16023757  1  0  0.073137  0  0.964284  0  0  0.0804  0  1.031495  0  0  0.082909  0  1.02889  0  0  0.104712  0.078527  0  1.033457  0
H  H17  1  0.86355700  0.19409581  0.65964505  1  0  0.073889  0  0.963522  0  0  0.081165  0  1.030526  0  0  0.083662  0  1.027913  0  0  0.105541  0.079277  0  1.032532  0
C  C18  1  0.27826642  0.59777869  0.57473117  1  0  0.13866  0  3.722833  0  0  0.107367  0  3.971208  0  0  0.114987  0  3.989231  0  0  0.042515  0.102436  0  3.959022  0
C  C19  1  0.54940498  0.09651482  0.07460077  1  0  0.137404  0  3.724006  0  0  0.105362  0  3.972562  0  0  0.112916  0  3.990539  0  0  0.042186  0.100482  0  3.960397  0
C  C20  1  0.51767792  0.53164142  0.51590253  1  0  -0.148179  0  3.692799  0  0  -0.167582  0  3.939174  0  0  -0.175641  0  3.960463  0  0  -0.082923  -0.162415  0  3.92494  0
C  C21  1  0.43519875  0.03062947  0.01557934  1  0  -0.149527  0  3.69284  0  0  -0.168645  0  3.939446  0  0  -0.176797  0  3.960711  0  0  -0.083332  -0.163423  0  3.925228  0
C  C22  1  0.61331076  0.63870473  0.43186611  1  0  0.103536  0  3.723272  0  0  0.114771  0  3.953454  0  0  0.119235  0  3.974582  0  0  0.015284  0.111991  0  3.93896  0
C  C23  1  0.31635321  0.13824253  0.93194100  1  0  0.104117  0  3.723387  0  0  0.115467  0  3.952566  0  0  0.119959  0  3.973669  0  0  0.014958  0.112661  0  3.938114  0
C  C24  1  0.44627343  0.80914273  0.40995507  1  0  -0.142848  0  3.672858  0  0  -0.161896  0  3.921109  0  0  -0.169782  0  3.942162  0  0  -0.080147  -0.156862  0  3.907137  0
C  C25  1  0.33455614  0.30894857  0.91055394  1  0  -0.142603  0  3.672032  0  0  -0.161481  0  3.919722  0  0  -0.169397  0  3.940742  0  0  -0.079687  -0.156441  0  3.905752  0
C  C26  1  0.20655101  0.86566474  0.47200294  1  0  0.140803  0  3.708001  0  0  0.10819  0  3.958415  0  0  0.11616  0  3.976027  0  0  0.044405  0.10301  0  3.946561  0
C  C27  1  0.45628840  0.36510202  0.97263348  1  0  0.142646  0  3.707182  0  0  0.110196  0  3.956929  0  0  0.118067  0  3.974523  0  0  0.044872  0.105075  0  3.945103  0
C  C28  1  0.28412508  0.34663191  0.32953248  1  0  0.142728  0  3.705495  0  0  0.109514  0  3.956089  0  0  0.117458  0  3.973719  0  0  0.0444  0.104347  0  3.944208  0
C  C29  1  0.03656630  0.84726248  0.82917290  1  0  0.142211  0  3.703316  0  0  0.109661  0  3.95369  0  0  0.117527  0  3.971291  0  0  0.044381  0.104543  0  3.941826  0
C  C30  1  0.04392401  0.40336234  0.39137570  1  0  -0.141784  0  3.670407  0  0  -0.160544  0  3.918618  0  0  -0.168463  0  3.939654  0  0  -0.079643  -0.155514  0  3.904631  0
C  C31  1  0.15851773  0.90351199  0.89117419  1  0  -0.143069  0  3.671684  0  0  -0.162827  0  3.919609  0  0  -0.170726  0  3.940737  0  0  -0.08054  -0.15776  0  3.905579  0
C  C32  1  0.87589932  0.57357150  0.36912226  1  0  0.101374  0  3.723884  0  0  0.112729  0  3.953962  0  0  0.117228  0  3.975087  0  0  0.013844  0.109919  0  3.939492  0
C  C33  1  0.18161574  0.07351945  0.86900228  1  0  0.102178  0  3.724255  0  0  0.114498  0  3.952738  0  0  0.119014  0  3.973816  0  0  0.014703  0.111677  0  3.938294  0
C  C34  1  0.97121088  0.68032474  0.28492295  1  0  -0.148612  0  3.691414  0  0  -0.167953  0  3.93779  0  0  -0.176081  0  3.958994  0  0  -0.083183  -0.162753  0  3.92363  0
C  C35  1  0.06670512  0.18046870  0.78469349  1  0  -0.149297  0  3.691536  0  0  -0.168807  0  3.938  0  0  -0.176876  0  3.959249  0  0  -0.082822  -0.163642  0  3.923797  0
C  C36  1  0.21151475  0.61407783  0.22632175  1  0  0.140581  0  3.72097  0  0  0.108931  0  3.9699  0  0  0.116611  0  3.987861  0  0  0.043457  0.103941  0  3.95776  0
C  C37  1  0.95099169  0.11469186  0.72589969  1  0  0.140833  0  3.720481  0  0  0.109589  0  3.969152  0  0  0.117305  0  3.987038  0  0  0.043577  0.104596  0  3.957039  0
N  N38  1  0.12668135  0.76277610  0.55425427  1  0  -0.328348  0  3.337805  0  0  -0.240165  0  3.608598  0  0  -0.259889  0  3.624645  0  0  -0.334574  -0.226969  0  3.59763  0
N  N39  1  0.55677493  0.26173445  0.05457131  1  0  -0.328832  0  3.338114  0  0  -0.239234  0  3.606772  0  0  -0.25909  0  3.623194  0  0  -0.333794  -0.22596  0  3.595581  0
N  N40  1  0.36425668  0.44925993  0.24719085  1  0  -0.330797  0  3.335696  0  0  -0.241922  0  3.606077  0  0  -0.261799  0  3.622333  0  0  -0.334361  -0.228602  0  3.594955  0
N  N41  1  0.93864217  0.95009277  0.74678893  1  0  -0.330858  0  3.332672  0  0  -0.243044  0  3.604044  0  0  -0.2628  0  3.620075  0  0  -0.334512  -0.229786  0  3.593026  0
Cl  Cl42  1  0.51596505  0.09231222  0.55982153  1  0  -0.562467  0  0.959698  0  0  -0.497671  0  1.247782  0  0  -0.514446  0  1.22673  0  0  -0.295938  -0.485331  0  1.26208  0
Cl  Cl43  1  0.83551525  0.59131631  0.06071378  1  0  -0.562831  0  0.958574  0  0  -0.498053  0  1.246252  0  0  -0.514719  0  1.225088  0  0  -0.296349  -0.485743  0  1.260533  0
Cl  Cl44  1  0.65722762  0.62037961  0.74086617  1  0  -0.563435  0  0.955101  0  0  -0.499025  0  1.242622  0  0  -0.515758  0  1.221567  0  0  -0.297701  -0.486673  0  1.256845  0
Cl  Cl45  1  0.97842830  0.11943638  0.24130706  1  0  -0.562026  0  0.957482  0  0  -0.49764  0  1.245587  0  0  -0.514353  0  1.224547  0  0  -0.296622  -0.485346  0  1.259863  0
