# generated using pymatgen
data_CuP3H19C14NO10
_symmetry_space_group_name_H-M   'P 1'
_cell_length_a   9.68970466
_cell_length_b   9.83713503
_cell_length_c   10.33095960
_cell_angle_alpha   81.37250179
_cell_angle_beta   71.42225755
_cell_angle_gamma   87.80051123
_symmetry_Int_Tables_number   1
_chemical_formula_structural   CuP3H19C14NO10
_chemical_formula_sum   'Cu2 P6 H38 C28 N2 O20'
_cell_volume   922.81495373
_cell_formula_units_Z   2
loop_
 _symmetry_equiv_pos_site_id
 _symmetry_equiv_pos_as_xyz
  1  'x, y, z'
loop_
 _atom_site_type_symbol
 _atom_site_label
 _atom_site_symmetry_multiplicity
 _atom_site_fract_x
 _atom_site_fract_y
 _atom_site_fract_z
 _atom_site_occupancy
 _atom_site_hle17_ddec_charge
 _atom_site_hle17_ddec_spin_density
 _atom_site_hle17_ddec_sum_bond_order
 _atom_site_hle17_magmom
 _atom_site_hse06_10hf_ddec_charge
 _atom_site_hse06_10hf_ddec_spin_density
 _atom_site_hse06_10hf_ddec_sum_bond_order
 _atom_site_hse06_10hf_magmom
 _atom_site_hse06_ddec_charge
 _atom_site_hse06_ddec_spin_density
 _atom_site_hse06_ddec_sum_bond_order
 _atom_site_hse06_magmom
 _atom_site_pbe_cm5_charge
 _atom_site_pbe_ddec_charge
 _atom_site_pbe_ddec_spin_density
 _atom_site_pbe_ddec_sum_bond_order
 _atom_site_pbe_magmom
Cu  Cu0  1  0.27003410  0.84005918  0.01798165  1  1.086103  -0.730225  1.702824  -0.557  1.089029  -0.818796  2.088766  -0.687  1.172428  -0.876754  2.018037  -0.768  0.777682  1.050681  -0.775485  2.10952  -0.631
Cu  Cu1  1  0.72996555  0.15994164  0.98201823  1  1.086072  -0.730224  1.702885  -0.557  1.102048  -0.818832  2.06621  -0.687  1.17667  -0.876794  2.011728  -0.768  0.777663  1.054329  -0.775511  2.104186  -0.631
P  P2  1  0.33660189  0.01180532  0.69128827  1  1.52974  -0.000977  4.703686  -0.001  1.379333  -0.002354  5.200901  -0.003  1.429349  -0.001662  5.161344  -0.002  0.376476  1.344394  -0.00319  5.228027  -0.003
P  P3  1  0.66339661  0.98819966  0.30871515  1  1.52964  -0.000983  4.703619  -0.001  1.379296  -0.002357  5.201142  -0.003  1.42939  -0.001659  5.161272  -0.002  0.376422  1.344415  -0.00319  5.227946  -0.003
P  P4  1  0.14548191  0.14096482  0.08493401  1  1.528804  -0.001395  4.69747  0.001  1.386424  -0.003933  5.188363  -0.003  1.436201  -0.002596  5.152408  -0.002  0.371141  1.351583  -0.005316  5.213652  -0.003
P  P5  1  0.85452418  0.85903294  0.91506647  1  1.528839  -0.001384  4.697365  0.001  1.386425  -0.00393  5.188984  -0.003  1.436313  -0.002592  5.152527  -0.002  0.371146  1.351665  -0.005315  5.213797  -0.003
P  P6  1  0.67821353  0.41260671  0.17283683  1  1.531507  -0.002281  4.674722  -0.002  1.387316  -0.0043  5.174038  -0.005  1.438415  -0.003041  5.132263  -0.004  0.388569  1.351433  -0.005568  5.202945  -0.005
P  P7  1  0.32178396  0.58739616  0.82716333  1  1.531637  -0.002309  4.674564  -0.002  1.387401  -0.004305  5.173381  -0.005  1.438406  -0.003043  5.132041  -0.004  0.38859  1.351454  -0.005566  5.202703  -0.005
H  H8  1  0.22768556  0.37265447  0.92979330  1  0.44726  6.8e-05  0.860831  0.0  0.408919  1.6e-05  0.935078  0.0  0.421484  1.3e-05  0.917462  0.0  0.303806  0.400288  2.2e-05  0.947163  0.0
H  H9  1  0.77232280  0.62734944  0.07020463  1  0.447288  6.8e-05  0.8608  0.0  0.408945  1.6e-05  0.935052  0.0  0.421512  1.3e-05  0.917433  0.0  0.303806  0.400314  2.2e-05  0.947135  0.0
H  H10  1  0.92176564  0.08734048  0.08926831  1  0.422888  0.000409  0.86675  0.0  0.389796  0.000383  0.94946  0.0  0.400644  0.000389  0.933115  0.0  0.311889  0.381998  0.000359  0.960645  0.0
H  H11  1  0.07823746  0.91266747  0.91072465  1  0.422842  0.000409  0.866924  0.0  0.390038  0.00038  0.948966  0.0  0.400721  0.000388  0.932953  0.0  0.311879  0.382068  0.000358  0.960503  0.0
H  H12  1  0.56514904  0.06662055  0.56682881  1  0.438123  3.6e-05  0.8614  0.0  0.404537  -3e-06  0.928849  0.0  0.416335  9e-06  0.912035  0.0  0.306076  0.396254  -1.2e-05  0.940604  0.0
H  H13  1  0.43484948  0.93338441  0.43317364  1  0.438032  3.8e-05  0.861521  0.0  0.404473  -3e-06  0.928924  0.0  0.416268  9e-06  0.912117  0.0  0.306054  0.396197  -1.2e-05  0.940672  0.0
H  H14  1  0.30779802  0.40115010  0.13890122  1  0.107037  0.001048  0.944921  0.001  0.118423  7.5e-05  1.007024  0.0  0.121355  5.8e-05  1.006042  0.0  0.102054  0.116011  6.1e-05  1.008499  0.0
H  H15  1  0.69219932  0.59884768  0.86110364  1  0.106993  0.001052  0.944991  0.001  0.118387  7.5e-05  1.007075  0.0  0.121318  5.7e-05  1.006101  0.0  0.102041  0.115982  6.1e-05  1.008538  0.0
H  H16  1  0.90627964  0.48388836  0.31591220  1  0.115561  -0.000867  0.980316  -0.001  0.121965  -0.000676  1.045043  -0.001  0.124556  -0.000439  1.04439  -0.001  0.110493  0.119552  -0.000799  1.046538  -0.001
H  H17  1  0.09373198  0.51610109  0.68408125  1  0.11547  -0.000862  0.980414  -0.001  0.121943  -0.000676  1.045063  -0.001  0.124536  -0.000439  1.044415  -0.001  0.110555  0.119538  -0.000799  1.046549  -0.001
H  H18  1  0.02585196  0.31568098  0.20723823  1  0.143972  -0.001879  0.945003  -0.003  0.15524  -0.000893  1.004678  -0.001  0.156668  -0.000523  1.005449  -0.001  0.11164  0.154067  -0.001254  1.004863  -0.002
H  H19  1  0.97415209  0.68432188  0.79275913  1  0.143988  -0.001879  0.944921  -0.003  0.155247  -0.000894  1.004634  -0.001  0.156678  -0.000523  1.005405  -0.001  0.111638  0.154077  -0.001254  1.004814  -0.002
H  H20  1  0.98728210  0.15454947  0.31318776  1  0.141651  0.000617  0.928121  0.001  0.155371  0.000182  0.982954  0.0  0.158252  0.000132  0.981777  0.0  0.109017  0.153251  0.000214  0.984171  0.0
H  H21  1  0.01271338  0.84545228  0.68680636  1  0.141655  0.000631  0.92813  0.001  0.155371  0.000182  0.982981  0.0  0.158256  0.000132  0.981808  0.0  0.108996  0.15325  0.000214  0.984206  0.0
H  H22  1  0.11722047  0.13247908  0.71099055  1  0.147218  0.000529  0.926874  0.0  0.16074  0.000142  0.981351  0.0  0.163254  0.000107  0.981158  0.0  0.111321  0.158921  0.000153  0.98162  0.0
H  H23  1  0.88277479  0.86751865  0.28901102  1  0.147213  0.000528  0.926848  0.0  0.16073  0.000142  0.981319  0.0  0.163243  0.000107  0.981138  0.0  0.11131  0.15891  0.000153  0.981599  0.0
H  H24  1  0.25460008  0.23663474  0.72449190  1  0.152808  0.000144  0.933221  0.0  0.164557  0.000108  0.990356  0.0  0.167253  9.7e-05  0.989857  0.0  0.112333  0.162373  8.6e-05  0.991369  0.0
H  H25  1  0.74539407  0.76336610  0.27551144  1  0.152889  0.00015  0.933118  0.0  0.164599  0.000108  0.990279  0.0  0.167298  9.7e-05  0.989784  0.0  0.11232  0.162414  8.6e-05  0.991303  0.0
H  H26  1  0.18442220  0.64400369  0.51573294  1  0.11897  -0.000599  0.965964  -0.001  0.129636  -0.000469  1.022826  -0.001  0.13233  -0.000303  1.022354  0.0  0.110985  0.127251  -0.000616  1.023841  -0.001
H  H27  1  0.81558723  0.35598474  0.48426128  1  0.119053  -0.000596  0.965938  -0.001  0.12966  -0.000469  1.022829  -0.001  0.132352  -0.000303  1.022369  0.0  0.111014  0.127272  -0.000616  1.023857  -0.001
H  H28  1  0.04061933  0.63241131  0.10282308  1  0.098086  -0.001293  0.945984  -0.002  0.100637  -0.000995  1.017253  -0.002  0.102209  -0.000619  1.0147  -0.001  0.121511  0.098967  -0.001326  1.019917  -0.002
H  H29  1  0.95938264  0.36759460  0.89717149  1  0.097979  -0.001291  0.946075  -0.002  0.100403  -0.000993  1.017683  -0.002  0.102049  -0.000618  1.01491  -0.001  0.121447  0.098808  -0.001325  1.020127  -0.002
H  H30  1  0.29944810  0.79482605  0.29447618  1  0.101379  -0.00154  0.943448  -0.003  0.10792  -0.001115  1.004857  -0.002  0.109281  -0.00072  1.002853  -0.001  0.12367  0.106556  -0.001433  1.006762  -0.002
H  H31  1  0.70054835  0.20517989  0.70552282  1  0.101381  -0.001539  0.943483  -0.003  0.107866  -0.001114  1.005  -0.002  0.109266  -0.00072  1.002898  -0.001  0.123669  0.106543  -0.001433  1.006801  -0.002
H  H32  1  0.69340272  0.23460429  0.33788853  1  0.444844  1.8e-05  0.859797  0.0  0.406897  1.7e-05  0.933847  0.0  0.418752  1.9e-05  0.917079  0.0  0.305248  0.398701  1.1e-05  0.945497  0.0
H  H33  1  0.30658923  0.76539966  0.66211688  1  0.444883  1.8e-05  0.859748  0.0  0.406907  1.7e-05  0.93385  0.0  0.418757  1.9e-05  0.917085  0.0  0.305252  0.398703  1.1e-05  0.945512  0.0
H  H34  1  0.51753954  0.56271439  0.31353021  1  0.137635  -0.00102  0.935987  -0.001  0.151956  -0.000761  0.991912  -0.001  0.154234  -0.000491  0.991251  -0.001  0.108968  0.150481  -0.001058  0.992381  -0.001
H  H35  1  0.48245475  0.43729258  0.68646924  1  0.137663  -0.001014  0.93601  -0.001  0.151947  -0.00076  0.991968  -0.001  0.154223  -0.00049  0.991308  -0.001  0.108974  0.150472  -0.001058  0.992431  -0.001
H  H36  1  0.48173896  0.56073962  0.15567633  1  0.161073  0.000596  0.917673  0.0  0.17516  0.000189  0.968912  0.0  0.177831  0.000149  0.96848  0.0  0.118154  0.173247  0.000202  0.969358  0.0
H  H37  1  0.51825191  0.43925709  0.84432759  1  0.161084  0.000588  0.917659  0.0  0.175188  0.000189  0.968868  0.0  0.177865  0.000148  0.968421  0.0  0.118142  0.173278  0.000202  0.969312  0.0
H  H38  1  0.08390767  0.11237446  0.49395314  1  0.095137  0.0003  0.945185  0.0  0.106993  1e-05  1.007133  0.0  0.109895  1e-05  1.005819  0.0  0.098232  0.105029  3.4e-05  1.007529  0.0
H  H39  1  0.91609192  0.88762121  0.50604754  1  0.09505  0.000291  0.945088  0.0  0.106918  1e-05  1.00703  0.0  0.10982  9e-06  1.005714  0.0  0.098206  0.104953  3.4e-05  1.007431  0.0
H  H40  1  0.43583004  0.35871078  0.50501850  1  0.094889  0.000812  0.953197  0.001  0.107894  -1.4e-05  1.014994  0.0  0.110764  -7e-06  1.013842  0.0  0.096885  0.105729  -1.6e-05  1.0165  0.0
H  H41  1  0.56416732  0.64128906  0.49498604  1  0.094882  0.000808  0.953293  0.001  0.107909  -1.4e-05  1.015044  0.0  0.110781  -7e-06  1.013894  0.0  0.096879  0.105745  -1.6e-05  1.016553  0.0
H  H42  1  0.47427475  0.93825965  0.11392633  1  0.428299  0.00012  0.837735  0.0  0.406019  0.000164  0.905901  0.0  0.415441  0.000145  0.892841  0.0  0.306825  0.399153  0.000163  0.914842  0.0
H  H43  1  0.52572969  0.06174819  0.88605660  1  0.428197  0.000117  0.83781  0.0  0.406038  0.000164  0.905907  0.0  0.415463  0.000146  0.89282  0.0  0.306752  0.399161  0.000163  0.914852  0.0
H  H44  1  0.57106468  0.81871982  0.04845369  1  0.434621  8.6e-05  0.867665  0.0  0.40837  7.7e-05  0.923598  0.0  0.419616  7.2e-05  0.907256  0.0  0.290648  0.400547  7.2e-05  0.935007  0.0
H  H45  1  0.42893794  0.18127391  0.95155516  1  0.43466  8.4e-05  0.867642  0.0  0.408438  7.6e-05  0.923535  0.0  0.419705  7.2e-05  0.907173  0.0  0.290623  0.400624  7.2e-05  0.934941  0.0
C  C46  1  0.18541123  0.25108542  0.30785037  1  0.166341  0.005482  3.777243  0.005  0.185392  0.001208  4.020061  0.001  0.188131  0.001262  4.044546  0.001  -0.006489  0.18325  0.000725  4.003351  0.001
C  C47  1  0.81458950  0.74891539  0.69214920  1  0.166225  0.005463  3.777179  0.005  0.185284  0.001206  4.01999  0.001  0.188031  0.00126  4.044486  0.001  -0.006527  0.183144  0.000725  4.003297  0.001
C  C48  1  0.29545597  0.35029265  0.24331214  1  -0.161801  -0.020535  3.651654  -0.019  -0.202956  -0.002593  3.909869  -0.003  -0.208192  -0.0014  3.932098  -0.001  -0.094238  -0.199889  -0.002305  3.895956  -0.002
C  C49  1  0.70453816  0.64970407  0.75669087  1  -0.161681  -0.020544  3.651609  -0.019  -0.202832  -0.002591  3.909848  -0.003  -0.208066  -0.001398  3.932072  -0.001  -0.094221  -0.199779  -0.002305  3.895923  -0.002
C  C50  1  0.99438631  0.54799136  0.31765383  1  -0.144913  -0.011107  3.682531  -0.012  -0.161577  -0.004346  3.927626  -0.006  -0.169978  -0.003551  3.949411  -0.005  -0.075303  -0.156239  -0.004966  3.913623  -0.006
C  C51  1  0.00561886  0.45200321  0.68233966  1  -0.144902  -0.011102  3.682645  -0.012  -0.161609  -0.004347  3.927672  -0.006  -0.170007  -0.00355  3.949487  -0.005  -0.075365  -0.156272  -0.004966  3.913694  -0.006
C  C52  1  0.03557287  0.54670497  0.43611588  1  0.096042  0.012132  3.756377  0.008  0.109579  0.004208  3.979322  0.002  0.113829  0.004633  4.001041  0.003  0.019234  0.106406  0.003991  3.964636  0.002
C  C53  1  0.96443658  0.45328758  0.56387866  1  0.096185  0.012098  3.756291  0.008  0.109697  0.004207  3.979188  0.002  0.113946  0.004629  4.000956  0.003  0.019233  0.106512  0.003991  3.964559  0.002
C  C54  1  0.38638317  0.38894189  0.31306110  1  0.14947  0.013003  3.803841  0.01  0.171396  0.001326  4.046906  0.001  0.173543  0.001183  4.072931  0.001  -0.010044  0.170084  0.001003  4.029727  0.001
C  C55  1  0.61361525  0.61106003  0.68694476  1  0.149502  0.013031  3.803933  0.01  0.171389  0.00132  4.047071  0.001  0.173535  0.001181  4.073083  0.001  -0.010027  0.170092  0.001003  4.02984  0.001
C  C56  1  0.07618395  0.22019081  0.24031677  1  -0.50082  -0.010995  3.712444  -0.012  -0.522038  -0.00563  3.949044  -0.006  -0.532849  -0.003509  3.958104  -0.004  -0.163861  -0.514302  -0.007168  3.943231  -0.008
C  C57  1  0.92381458  0.77981002  0.75968438  1  -0.500776  -0.011007  3.712435  -0.012  -0.522024  -0.005631  3.949101  -0.006  -0.532858  -0.003508  3.958195  -0.004  -0.163798  -0.514293  -0.007167  3.943303  -0.008
C  C58  1  0.23207200  0.16394471  0.66248248  1  -0.502311  -0.005721  3.713451  -0.007  -0.522706  -0.002683  3.953068  -0.003  -0.533422  -0.001719  3.961666  -0.002  -0.165077  -0.515185  -0.003456  3.947303  -0.004
C  C59  1  0.76792322  0.83605407  0.33752088  1  -0.502441  -0.00572  3.713459  -0.007  -0.522727  -0.002683  3.952964  -0.003  -0.533453  -0.001718  3.961612  -0.002  -0.165048  -0.515209  -0.003456  3.947247  -0.004
C  C60  1  0.14717461  0.63769637  0.42793372  1  -0.14857  -0.010549  3.682868  -0.012  -0.165841  -0.003945  3.925931  -0.005  -0.174326  -0.003251  3.947676  -0.004  -0.075318  -0.159932  -0.004649  3.911559  -0.006
C  C61  1  0.85282938  0.36229928  0.57206380  1  -0.148754  -0.010545  3.682985  -0.012  -0.165907  -0.003945  3.925901  -0.005  -0.174385  -0.00325  3.947673  -0.004  -0.07537  -0.159991  -0.004649  3.911565  -0.006
C  C62  1  0.06788263  0.63238195  0.19709632  1  0.133146  0.0118  3.68668  0.007  0.101683  0.001881  3.95297  0.001  0.111167  0.003715  3.971738  0.002  0.051869  0.095157  0.000501  3.942806  -0.001
C  C63  1  0.93212143  0.36761987  0.80290023  1  0.133343  0.011782  3.686597  0.007  0.101691  0.001886  3.954187  0.001  0.11138  0.003714  3.972095  0.002  0.051945  0.095365  0.000501  3.943114  -0.001
C  C64  1  0.21284193  0.72258616  0.30516827  1  0.137675  0.012969  3.675074  0.009  0.111013  0.002712  3.929896  0.002  0.120363  0.004536  3.949098  0.003  0.051099  0.104009  0.001477  3.919101  0.001
C  C65  1  0.78715777  0.27741566  0.69482950  1  0.137691  0.012955  3.675168  0.009  0.110933  0.002712  3.930894  0.002  0.120441  0.004534  3.949418  0.003  0.051117  0.104082  0.001476  3.919388  0.001
C  C66  1  0.50469553  0.49514734  0.24235957  1  -0.500916  -0.007532  3.710102  -0.009  -0.525169  -0.004263  3.950144  -0.005  -0.535691  -0.002813  3.958543  -0.003  -0.159676  -0.517257  -0.005976  3.943943  -0.006
C  C67  1  0.49530080  0.50485349  0.75764316  1  -0.501018  -0.007532  3.710152  -0.009  -0.525238  -0.004265  3.950251  -0.005  -0.535755  -0.002816  3.958607  -0.003  -0.159673  -0.517333  -0.005976  3.94401  -0.006
C  C68  1  0.25915247  0.22641689  0.51478497  1  0.158329  0.002865  3.808399  0.002  0.173477  0.000418  4.056852  0.0  0.175732  0.000714  4.082417  0.0  -0.013122  0.172214  -0.0001  4.038877  0.0
C  C69  1  0.74085254  0.77358603  0.48521695  1  0.158354  0.002862  3.808365  0.002  0.173369  0.000417  4.056968  0.0  0.175625  0.000713  4.082538  0.0  -0.013209  0.172099  -0.0001  4.039013  0.0
C  C70  1  0.17079342  0.18813553  0.44211856  1  -0.176785  -0.005381  3.686007  -0.005  -0.210093  -0.000379  3.940831  0.0  -0.214168  -0.000347  3.961449  0.0  -0.096497  -0.205878  -0.002133  3.925021  -0.002
C  C71  1  0.82919741  0.81185500  0.55788536  1  -0.176619  -0.005352  3.686261  -0.005  -0.209862  -0.000379  3.941053  0.0  -0.213937  -0.000346  3.961673  0.0  -0.096381  -0.205648  -0.002132  3.92525  -0.002
C  C72  1  0.36692902  0.32695589  0.44914964  1  -0.181858  -0.018347  3.679245  -0.017  -0.220196  -0.002721  3.939937  -0.003  -0.225707  -0.001513  3.962026  -0.002  -0.100682  -0.217756  -0.002534  3.926333  -0.002
C  C73  1  0.63306187  0.67303978  0.55085347  1  -0.181906  -0.018362  3.678977  -0.017  -0.220228  -0.002719  3.939723  -0.003  -0.225742  -0.001512  3.961811  -0.002  -0.10068  -0.217788  -0.002535  3.926117  -0.002
N  N74  1  0.17507261  0.71788364  0.19144787  1  -0.294613  -0.093176  3.344342  -0.121  -0.255401  -0.06051  3.647678  -0.085  -0.289713  -0.045725  3.671277  -0.07  -0.346476  -0.237235  -0.069271  3.634317  -0.093
N  N75  1  0.82492379  0.28211923  0.80855259  1  -0.294671  -0.093152  3.34414  -0.121  -0.257852  -0.060515  3.647712  -0.085  -0.290797  -0.045717  3.671281  -0.07  -0.346501  -0.238167  -0.069272  3.634311  -0.093
O  O76  1  0.19681238  0.99714373  0.12346607  1  -0.829767  -0.062856  1.994788  -0.087  -0.785187  -0.040303  2.288173  -0.061  -0.823905  -0.029329  2.269692  -0.048  -0.379753  -0.76065  -0.047468  2.298392  -0.068
O  O77  1  0.80319480  0.00285816  0.87653541  1  -0.829734  -0.062854  1.994711  -0.087  -0.787554  -0.040295  2.286727  -0.061  -0.824858  -0.02932  2.269345  -0.048  -0.379716  -0.761461  -0.047463  2.298124  -0.068
O  O78  1  0.25854965  0.23694984  0.97504893  1  -0.830522  8.2e-05  1.980068  0.0  -0.741363  0.000278  2.20295  0.0  -0.769227  0.000379  2.185273  0.0  -0.357157  -0.721582  0.000126  2.2157  0.0
O  O79  1  0.74146397  0.76305314  0.02495446  1  -0.830568  7.8e-05  1.979981  0.0  -0.741437  0.000276  2.202941  0.0  -0.769294  0.000375  2.185199  0.0  -0.357163  -0.721636  0.000126  2.215625  0.0
O  O80  1  0.33500660  0.91116496  0.59136897  1  -0.851365  -0.000833  1.945719  -0.001  -0.764761  -0.00059  2.175131  -0.001  -0.790966  -0.000299  2.155703  -0.001  -0.362683  -0.745997  -0.00098  2.188222  -0.002
O  O81  1  0.66499188  0.08884003  0.40863543  1  -0.851363  -0.000836  1.945682  -0.001  -0.764748  -0.000591  2.174995  -0.001  -0.790957  -0.000301  2.155586  -0.001  -0.362668  -0.745984  -0.000981  2.188102  -0.002
O  O82  1  0.00988128  0.14123324  0.02866131  1  -0.753711  0.001827  2.053612  0.0  -0.696759  0.002094  2.307904  0.001  -0.714923  0.002077  2.279244  0.001  -0.388538  -0.683808  0.00197  2.327804  0.001
O  O83  1  0.99013043  0.85876650  0.97133149  1  -0.75369  0.001824  2.053701  0.0  -0.696069  0.002083  2.307274  0.001  -0.714633  0.00207  2.278869  0.001  -0.388544  -0.683537  0.001967  2.327466  0.001
O  O84  1  0.26611612  0.95531727  0.84344633  1  -0.880048  -0.033206  2.109118  -0.048  -0.815255  -0.022688  2.410476  -0.035  -0.849483  -0.016966  2.383589  -0.028  -0.38161  -0.794175  -0.026754  2.427062  -0.039
O  O85  1  0.73388675  0.04468977  0.15655555  1  -0.879971  -0.03321  2.10897  -0.048  -0.817806  -0.022676  2.409182  -0.035  -0.850516  -0.016962  2.383363  -0.028  -0.381586  -0.795049  -0.026751  2.42686  -0.039
O  O86  1  0.49871093  0.05923264  0.66695293  1  -0.745869  7.6e-05  1.983072  0.0  -0.673808  0.000248  2.202749  0.0  -0.695078  0.000286  2.176816  0.0  -0.381641  -0.65855  9.3e-05  2.220453  0.0
O  O87  1  0.50128772  0.94077949  0.33304644  1  -0.745744  7.3e-05  1.983197  0.0  -0.673708  0.000248  2.202837  0.0  -0.694962  0.000286  2.176875  0.0  -0.381578  -0.658453  9.3e-05  2.220518  0.0
O  O88  1  0.72547481  0.33586237  0.29696853  1  -0.764649  0.000576  2.023035  0.0  -0.689721  0.00044  2.254319  0.0  -0.711059  0.000497  2.228804  0.0  -0.378446  -0.67441  0.000288  2.273195  0.0
O  O89  1  0.27451940  0.66414154  0.70303335  1  -0.764672  0.00058  2.022946  0.0  -0.689747  0.000442  2.254282  0.0  -0.711096  0.000498  2.228789  0.0  -0.378449  -0.674458  0.000288  2.273195  0.0
O  O90  1  0.65778655  0.32171649  0.07479690  1  -0.845921  -0.045999  2.05496  -0.064  -0.799994  -0.033346  2.355082  -0.05  -0.834578  -0.02523  2.333304  -0.041  -0.379879  -0.77593  -0.039368  2.370031  -0.056
O  O91  1  0.34220975  0.67828126  0.92520631  1  -0.846001  -0.045992  2.054921  -0.064  -0.797431  -0.033356  2.356727  -0.05  -0.83358  -0.025234  2.333624  -0.041  -0.379901  -0.775093  -0.039371  2.370286  -0.056
O  O92  1  0.79910970  0.52570805  0.10767058  1  -0.762055  0.00029  1.99369  0.0  -0.688454  4.3e-05  2.227102  0.0  -0.71068  8.4e-05  2.201544  0.0  -0.376341  -0.672615  -0.000158  2.244342  0.0
O  O93  1  0.20089121  0.47428648  0.89232023  1  -0.762075  0.0003  1.993673  0.0  -0.688483  4.7e-05  2.227159  0.0  -0.710715  8.5e-05  2.201599  0.0  -0.376358  -0.672641  -0.000159  2.24437  0.0
O  O94  1  0.47192795  0.85883006  0.06860782  1  -0.872148  0.002443  1.895618  0.001  -0.837772  0.002106  2.108166  0.001  -0.856355  0.002261  2.070915  0.001  -0.603022  -0.827055  0.001819  2.1318  0.001
O  O95  1  0.52807349  0.14115854  0.93140312  1  -0.872069  0.00245  1.895681  0.001  -0.8399  0.002116  2.106401  0.001  -0.857246  0.002265  2.070412  0.001  -0.602885  -0.827818  0.001823  2.131397  0.001
