# generated using pymatgen
data_CuH10C14(BrN2)2
_symmetry_space_group_name_H-M   'P 1'
_cell_length_a   4.07063187
_cell_length_b   12.53841143
_cell_length_c   13.38150574
_cell_angle_alpha   89.99898030
_cell_angle_beta   95.44191236
_cell_angle_gamma   90.00000146
_symmetry_Int_Tables_number   1
_chemical_formula_structural   CuH10C14(BrN2)2
_chemical_formula_sum   'Cu2 H20 C28 Br4 N8'
_cell_volume   679.90381488
_cell_formula_units_Z   2
loop_
 _symmetry_equiv_pos_site_id
 _symmetry_equiv_pos_as_xyz
  1  'x, y, z'
loop_
 _atom_site_type_symbol
 _atom_site_label
 _atom_site_symmetry_multiplicity
 _atom_site_fract_x
 _atom_site_fract_y
 _atom_site_fract_z
 _atom_site_occupancy
 _atom_site_hle17_bader_spin_density
 _atom_site_hle17_ddec_charge
 _atom_site_hle17_ddec_spin_density
 _atom_site_hle17_ddec_sum_bond_order
 _atom_site_hle17_magmom
 _atom_site_hse06_10hf_bader_spin_density
 _atom_site_hse06_10hf_ddec_charge
 _atom_site_hse06_10hf_ddec_spin_density
 _atom_site_hse06_10hf_ddec_sum_bond_order
 _atom_site_hse06_10hf_magmom
 _atom_site_hse06_bader_spin_density
 _atom_site_hse06_ddec_charge
 _atom_site_hse06_ddec_spin_density
 _atom_site_hse06_ddec_sum_bond_order
 _atom_site_hse06_magmom
 _atom_site_pbe_bader_spin_density
 _atom_site_pbe_cm5_charge
 _atom_site_pbe_ddec_charge
 _atom_site_pbe_ddec_spin_density
 _atom_site_pbe_ddec_sum_bond_order
 _atom_site_pbe_magmom
Cu  Cu0  1  0.00000114  0.99999992  0.99999964  1  0  0.61694  0  1.925568  0  0  0.546534  0  2.348214  0  0  0.570209  0  2.303334  0  0  0.540436  0.53282  0  2.378283  0
Cu  Cu1  1  0.00000187  0.50000036  0.50000135  1  0  0.61712  0  1.925264  0  0  0.54693  0  2.34791  0  0  0.570098  0  2.303213  0  0  0.54037  0.532671  0  2.377979  0
H  H2  1  0.24328109  0.20812402  0.96504517  1  0  0.081242  0  1.017982  0  0  0.088615  0  1.089903  0  0  0.092109  0  1.08598  0  0  0.098745  0.085825  0  1.09314  0
H  H3  1  0.75670489  0.70812369  0.53494814  1  0  0.081262  0  1.017956  0  0  0.088614  0  1.089909  0  0  0.092108  0  1.085988  0  0  0.09871  0.085763  0  1.093182  0
H  H4  1  0.75671676  0.79187511  0.03495275  1  0  0.081218  0  1.017988  0  0  0.088604  0  1.089901  0  0  0.092095  0  1.085983  0  0  0.098738  0.085806  0  1.093146  0
H  H5  1  0.24329811  0.29187704  0.46505438  1  0  0.081187  0  1.017949  0  0  0.088551  0  1.08991  0  0  0.092042  0  1.085993  0  0  0.098696  0.085706  0  1.093177  0
H  H6  1  0.05683626  0.39620832  0.22653784  1  0  0.120328  0  0.966625  0  0  0.128588  0  1.030049  0  0  0.132107  0  1.027269  0  0  0.101489  0.125965  0  1.032258  0
H  H7  1  0.94317271  0.89621460  0.27345843  1  0  0.120319  0  0.966581  0  0  0.128519  0  1.03007  0  0  0.132039  0  1.027287  0  0  0.101469  0.125878  0  1.032332  0
H  H8  1  0.94317393  0.60379081  0.77346037  1  0  0.12031  0  0.966591  0  0  0.128562  0  1.030024  0  0  0.132082  0  1.027243  0  0  0.101486  0.125938  0  1.032234  0
H  H9  1  0.05681542  0.10378612  0.72654223  1  0  0.120324  0  0.966603  0  0  0.128536  0  1.030086  0  0  0.132055  0  1.027304  0  0  0.101476  0.125896  0  1.032345  0
H  H10  1  0.83840168  0.22919851  0.29169632  1  0  0.083821  0  0.951911  0  0  0.092107  0  1.016996  0  0  0.094844  0  1.015328  0  0  0.107775  0.090209  0  1.018084  0
H  H11  1  0.16161068  0.72920363  0.20830357  1  0  0.083913  0  0.951936  0  0  0.092221  0  1.016984  0  0  0.094958  0  1.015313  0  0  0.107834  0.090314  0  1.018086  0
H  H12  1  0.16160609  0.77080301  0.70830259  1  0  0.083765  0  0.951951  0  0  0.092058  0  1.017042  0  0  0.094797  0  1.015372  0  0  0.107744  0.09016  0  1.01813  0
H  H13  1  0.83838985  0.27079710  0.79169890  1  0  0.083871  0  0.951941  0  0  0.092174  0  1.017  0  0  0.094913  0  1.015327  0  0  0.107816  0.090268  0  1.018101  0
H  H14  1  0.32970909  0.34468507  0.89291264  1  0  0.089816  0  0.971927  0  0  0.100282  0  1.036678  0  0  0.102505  0  1.03605  0  0  0.098974  0.098659  0  1.037211  0
H  H15  1  0.67030095  0.84467937  0.60708124  1  0  0.089761  0  0.972076  0  0  0.100257  0  1.03678  0  0  0.10248  0  1.036157  0  0  0.098962  0.098633  0  1.037306  0
H  H16  1  0.67029613  0.65531326  0.10708471  1  0  0.089815  0  0.971948  0  0  0.100281  0  1.03669  0  0  0.102504  0  1.036061  0  0  0.09897  0.098658  0  1.037222  0
H  H17  1  0.32968975  0.15532056  0.39292173  1  0  0.089784  0  0.972097  0  0  0.10027  0  1.036816  0  0  0.102489  0  1.036192  0  0  0.098967  0.098645  0  1.037344  0
H  H18  1  0.40561007  0.50467864  0.18095016  1  0  0.103662  0  0.972441  0  0  0.11076  0  1.040772  0  0  0.114096  0  1.038406  0  0  0.097009  0.108314  0  1.042546  0
H  H19  1  0.59438106  0.00468974  0.31904845  1  0  0.103672  0  0.972442  0  0  0.11078  0  1.040759  0  0  0.114118  0  1.038385  0  0  0.097016  0.108327  0  1.042542  0
H  H20  1  0.59440006  0.49531890  0.81904656  1  0  0.103653  0  0.972412  0  0  0.110742  0  1.040752  0  0  0.11408  0  1.038381  0  0  0.096996  0.108297  0  1.042524  0
H  H21  1  0.40561697  0.99531178  0.68095321  1  0  0.103666  0  0.972356  0  0  0.110752  0  1.040718  0  0  0.114089  0  1.038339  0  0  0.097004  0.108299  0  1.042502  0
C  C22  1  0.15712537  0.22168561  0.03861840  1  0  0.053154  0  3.631854  0  0  0.011774  0  3.88207  0  0  0.016032  0  3.897562  0  0  0.04759  0.009017  0  3.872111  0
C  C23  1  0.84286927  0.72168751  0.46137071  1  0  0.053166  0  3.631833  0  0  0.01176  0  3.882013  0  0  0.01601  0  3.897485  0  0  0.047602  0.009013  0  3.872036  0
C  C24  1  0.84287746  0.77831272  0.96138038  1  0  0.053115  0  3.631644  0  0  0.011701  0  3.88192  0  0  0.015957  0  3.897411  0  0  0.047566  0.008949  0  3.871971  0
C  C25  1  0.15713123  0.27831321  0.53863101  1  0  0.053307  0  3.631687  0  0  0.011902  0  3.881876  0  0  0.01615  0  3.897346  0  0  0.047655  0.009153  0  3.871892  0
C  C26  1  0.18778836  0.32063866  0.08814573  1  0  0.055155  0  3.740527  0  0  0.069112  0  3.971844  0  0  0.068648  0  3.994322  0  0  0.013388  0.069399  0  3.956731  0
C  C27  1  0.81221323  0.82064230  0.41184340  1  0  0.055066  0  3.74054  0  0  0.069004  0  3.971845  0  0  0.068533  0  3.994336  0  0  0.013318  0.069297  0  3.956725  0
C  C28  1  0.81221934  0.67936206  0.91185167  1  0  0.055153  0  3.74024  0  0  0.069034  0  3.97168  0  0  0.068568  0  3.994158  0  0  0.013329  0.069323  0  3.956564  0
C  C29  1  0.18778233  0.17935762  0.58815820  1  0  0.055143  0  3.740552  0  0  0.06912  0  3.971849  0  0  0.068651  0  3.994339  0  0  0.013371  0.069413  0  3.956731  0
C  C30  1  0.06298808  0.32381042  0.18180708  1  0  -0.094401  0  3.659867  0  0  -0.11598  0  3.902798  0  0  -0.116529  0  3.920502  0  0  -0.06554  -0.115729  0  3.891047  0
C  C31  1  0.93701627  0.82381346  0.31818880  1  0  -0.094319  0  3.659909  0  0  -0.115779  0  3.902801  0  0  -0.116327  0  3.920505  0  0  -0.065443  -0.115555  0  3.891154  0
C  C32  1  0.93702462  0.67618951  0.81819195  1  0  -0.094339  0  3.659702  0  0  -0.115866  0  3.902629  0  0  -0.116414  0  3.920333  0  0  -0.065462  -0.115617  0  3.890879  0
C  C33  1  0.06297676  0.17618647  0.68181124  1  0  -0.094393  0  3.660008  0  0  -0.11588  0  3.902914  0  0  -0.116429  0  3.92062  0  0  -0.065487  -0.115655  0  3.891268  0
C  C34  1  0.93800467  0.22955571  0.21878228  1  0  0.077725  0  3.708211  0  0  0.055787  0  3.970066  0  0  0.056971  0  3.987133  0  0  0.043282  0.054867  0  3.958581  0
C  C35  1  0.06200250  0.72956263  0.28121224  1  0  0.077544  0  3.708522  0  0  0.055519  0  3.970458  0  0  0.056694  0  3.987538  0  0  0.043163  0.054583  0  3.959008  0
C  C36  1  0.06200309  0.77044422  0.78121662  1  0  0.077761  0  3.708174  0  0  0.055796  0  3.970048  0  0  0.056977  0  3.987117  0  0  0.043279  0.054877  0  3.958562  0
C  C37  1  0.93799553  0.27043810  0.71878941  1  0  0.077605  0  3.708538  0  0  0.0556  0  3.970457  0  0  0.056774  0  3.987538  0  0  0.043174  0.054662  0  3.959007  0
C  C38  1  0.34382523  0.41228149  0.04276954  1  0  0.047742  0  3.771408  0  0  0.063808  0  3.999117  0  0  0.062581  0  4.024907  0  0  -0.004952  0.06464  0  3.981616  0
C  C39  1  0.65616889  0.91228107  0.45722685  1  0  0.047868  0  3.771338  0  0  0.063924  0  3.999063  0  0  0.062703  0  4.024844  0  0  -0.004957  0.064758  0  3.981555  0
C  C40  1  0.65617750  0.58771684  0.95722699  1  0  0.047753  0  3.771309  0  0  0.063841  0  3.99902  0  0  0.062615  0  4.024803  0  0  -0.004978  0.064671  0  3.981519  0
C  C41  1  0.34381927  0.08772045  0.54277456  1  0  0.047729  0  3.771351  0  0  0.063741  0  3.999126  0  0  0.062513  0  4.024909  0  0  -0.005013  0.064575  0  3.981619  0
C  C42  1  0.40530369  0.41210225  0.94100113  1  0  -0.094574  0  3.713346  0  0  -0.114364  0  3.960396  0  0  -0.117401  0  3.982869  0  0  -0.083627  -0.112192  0  3.945147  0
C  C43  1  0.59469863  0.91209985  0.55899218  1  0  -0.094574  0  3.713584  0  0  -0.114379  0  3.960598  0  0  -0.117419  0  3.983076  0  0  -0.083598  -0.112209  0  3.945356  0
C  C44  1  0.59470150  0.58789768  0.05899547  1  0  -0.094496  0  3.71339  0  0  -0.114267  0  3.960409  0  0  -0.117302  0  3.982879  0  0  -0.083581  -0.112094  0  3.94516  0
C  C45  1  0.40529447  0.08789928  0.44100935  1  0  -0.094601  0  3.713656  0  0  -0.114395  0  3.960705  0  0  -0.117426  0  3.983176  0  0  -0.083632  -0.112225  0  3.945462  0
C  C46  1  0.44137071  0.50223890  0.10116620  1  0  -0.08874  0  3.699901  0  0  -0.107775  0  3.94563  0  0  -0.110357  0  3.967001  0  0  -0.082622  -0.106009  0  3.931225  0
C  C47  1  0.55861539  0.00224449  0.39883009  1  0  -0.088693  0  3.69981  0  0  -0.107727  0  3.94551  0  0  -0.110307  0  3.966876  0  0  -0.082556  -0.105954  0  3.931105  0
C  C48  1  0.55862948  0.49776023  0.89882878  1  0  -0.088673  0  3.699867  0  0  -0.107689  0  3.945568  0  0  -0.110269  0  3.966937  0  0  -0.082558  -0.105921  0  3.931161  0
C  C49  1  0.44137770  0.99775544  0.60117145  1  0  -0.088633  0  3.699638  0  0  -0.107637  0  3.945369  0  0  -0.11021  0  3.966733  0  0  -0.08256  -0.105866  0  3.930965  0
Br  Br50  1  0.40348079  0.91790777  0.12370682  1  0  -0.476503  0  1.110557  0  0  -0.475587  0  1.457033  0  0  -0.486811  0  1.430172  0  0  -0.226089  -0.467136  0  1.47554  0
Br  Br51  1  0.59652803  0.41789545  0.37628835  1  0  -0.476331  0  1.110287  0  0  -0.475562  0  1.456883  0  0  -0.486811  0  1.430025  0  0  -0.226152  -0.467104  0  1.475249  0
Br  Br52  1  0.59651474  0.08209136  0.87629403  1  0  -0.476508  0  1.110572  0  0  -0.475607  0  1.457074  0  0  -0.486829  0  1.430205  0  0  -0.2261  -0.467156  0  1.47558  0
Br  Br53  1  0.40347010  0.58210607  0.62371555  1  0  -0.47635  0  1.11033  0  0  -0.475559  0  1.456901  0  0  -0.486814  0  1.43005  0  0  -0.226138  -0.4671  0  1.475263  0
N  N54  1  0.92681699  0.13624132  0.17014671  1  0  -0.141557  0  2.98215  0  0  -0.125823  0  3.254543  0  0  -0.129024  0  3.269934  0  0  -0.192431  -0.123436  0  3.244406  0
N  N55  1  0.07318300  0.63624572  0.32984320  1  0  -0.141493  0  2.982236  0  0  -0.125795  0  3.254634  0  0  -0.128999  0  3.269999  0  0  -0.192491  -0.123432  0  3.244423  0
N  N56  1  0.07318337  0.86375940  0.82985201  1  0  -0.141515  0  2.98202  0  0  -0.12579  0  3.254411  0  0  -0.12899  0  3.269797  0  0  -0.192416  -0.123404  0  3.244272  0
N  N57  1  0.92681997  0.36375501  0.67015857  1  0  -0.141486  0  2.982141  0  0  -0.125774  0  3.254561  0  0  -0.128983  0  3.269923  0  0  -0.192464  -0.123411  0  3.24435  0
N  N58  1  0.03219697  0.13522212  0.07922429  1  0  -0.125519  0  3.377682  0  0  -0.054723  0  3.656113  0  0  -0.06489  0  3.67059  0  0  -0.223145  -0.048779  0  3.647191  0
N  N59  1  0.96779337  0.63522719  0.42076989  1  0  -0.125583  0  3.377766  0  0  -0.05472  0  3.656171  0  0  -0.064869  0  3.670565  0  0  -0.223131  -0.048723  0  3.647091  0
N  N60  1  0.96780586  0.86477781  0.92077449  1  0  -0.125556  0  3.377478  0  0  -0.054698  0  3.655856  0  0  -0.064862  0  3.670327  0  0  -0.22313  -0.048753  0  3.646932  0
N  N61  1  0.03220960  0.36477274  0.57923189  1  0  -0.125595  0  3.377663  0  0  -0.054786  0  3.656147  0  0  -0.064923  0  3.670524  0  0  -0.223147  -0.048791  0  3.647071  0
