# generated using pymatgen
data_CuH4C4SN2
_symmetry_space_group_name_H-M   'P 1'
_cell_length_a   5.62297120
_cell_length_b   6.84680844
_cell_length_c   13.96724278
_cell_angle_alpha   90.00007141
_cell_angle_beta   91.77320060
_cell_angle_gamma   90.00052204
_symmetry_Int_Tables_number   1
_chemical_formula_structural   CuH4C4SN2
_chemical_formula_sum   'Cu4 H16 C16 S4 N8'
_cell_volume   537.47306330
_cell_formula_units_Z   4
loop_
 _symmetry_equiv_pos_site_id
 _symmetry_equiv_pos_as_xyz
  1  'x, y, z'
loop_
 _atom_site_type_symbol
 _atom_site_label
 _atom_site_symmetry_multiplicity
 _atom_site_fract_x
 _atom_site_fract_y
 _atom_site_fract_z
 _atom_site_occupancy
 _atom_site_hle17_bader_spin_density
 _atom_site_hle17_ddec_charge
 _atom_site_hle17_ddec_spin_density
 _atom_site_hle17_ddec_sum_bond_order
 _atom_site_hle17_magmom
 _atom_site_hse06_10hf_bader_spin_density
 _atom_site_hse06_10hf_ddec_charge
 _atom_site_hse06_10hf_ddec_spin_density
 _atom_site_hse06_10hf_ddec_sum_bond_order
 _atom_site_hse06_10hf_magmom
 _atom_site_hse06_bader_spin_density
 _atom_site_hse06_ddec_charge
 _atom_site_hse06_ddec_spin_density
 _atom_site_hse06_ddec_sum_bond_order
 _atom_site_hse06_magmom
 _atom_site_pbe_bader_spin_density
 _atom_site_pbe_cm5_charge
 _atom_site_pbe_ddec_charge
 _atom_site_pbe_ddec_spin_density
 _atom_site_pbe_ddec_sum_bond_order
 _atom_site_pbe_magmom
Cu  Cu0  1  0.11049967  0.31945274  0.83425155  1  0  0.454552  0  2.106701  0  0  0.372256  0  2.58571  0  0  0.360127  0  2.553378  0  0  0.505759  0.383958  0  2.604324  0
Cu  Cu1  1  0.61050435  0.18054858  0.33424908  1  0  0.454667  0  2.106541  0  0  0.372395  0  2.585536  0  0  0.360195  0  2.553183  0  0  0.505803  0.384128  0  2.604205  0
Cu  Cu2  1  0.88950246  0.68054437  0.16575062  1  0  0.454584  0  2.10687  0  0  0.372306  0  2.58589  0  0  0.360139  0  2.553556  0  0  0.505838  0.384027  0  2.604648  0
Cu  Cu3  1  0.38949250  0.81945291  0.66575085  1  0  0.454587  0  2.106777  0  0  0.372293  0  2.585797  0  0  0.360142  0  2.553469  0  0  0.505855  0.384  0  2.604516  0
H  H4  1  0.47935266  0.62771126  0.83843782  1  0  0.076299  0  1.00748  0  0  0.079092  0  1.084604  0  0  0.082782  0  1.08179  0  0  0.099951  0.076106  0  1.087326  0
H  H5  1  0.97933852  0.87229235  0.33844098  1  0  0.076239  0  1.007364  0  0  0.079026  0  1.08451  0  0  0.08272  0  1.081695  0  0  0.099931  0.076043  0  1.087233  0
H  H6  1  0.52065844  0.37228731  0.16156164  1  0  0.076373  0  1.007182  0  0  0.079159  0  1.084326  0  0  0.082861  0  1.081499  0  0  0.099927  0.076173  0  1.087047  0
H  H7  1  0.02063829  0.12772083  0.66157507  1  0  0.076344  0  1.007033  0  0  0.07916  0  1.084171  0  0  0.082861  0  1.081349  0  0  0.099902  0.076172  0  1.086886  0
H  H8  1  0.81068801  0.92082831  0.98081917  1  0  0.124578  0  0.949435  0  0  0.146387  0  1.011151  0  0  0.147392  0  1.011647  0  0  0.094302  0.145519  0  1.010952  0
H  H9  1  0.31067912  0.57915243  0.48081913  1  0  0.124526  0  0.949066  0  0  0.146315  0  1.010858  0  0  0.147319  0  1.011358  0  0  0.094276  0.145447  0  1.010664  0
H  H10  1  0.18933537  0.07916734  0.01918694  1  0  0.124649  0  0.949533  0  0  0.14645  0  1.011236  0  0  0.147453  0  1.011731  0  0  0.094302  0.145581  0  1.011039  0
H  H11  1  0.68932122  0.42081548  0.51918301  1  0  0.124562  0  0.949748  0  0  0.146437  0  1.011352  0  0  0.147441  0  1.011846  0  0  0.09433  0.145573  0  1.011156  0
H  H12  1  0.84428922  0.80222279  0.86886889  1  0  0.128234  0  0.958729  0  0  0.14971  0  1.016385  0  0  0.150004  0  1.018317  0  0  0.092797  0.149354  0  1.01518  0
H  H13  1  0.34429102  0.69779175  0.36886487  1  0  0.128173  0  0.958488  0  0  0.149613  0  1.016235  0  0  0.149907  0  1.018167  0  0  0.092759  0.14928  0  1.015006  0
H  H14  1  0.15571843  0.19777433  0.13112692  1  0  0.128133  0  0.958763  0  0  0.149652  0  1.016387  0  0  0.149946  0  1.018321  0  0  0.092783  0.14931  0  1.01517  0
H  H15  1  0.65570806  0.30222435  0.63111934  1  0  0.128101  0  0.958883  0  0  0.149644  0  1.016494  0  0  0.149936  0  1.018425  0  0  0.092785  0.149295  0  1.015284  0
H  H16  1  0.02757046  0.73524184  0.97055228  1  0  0.123468  0  0.959002  0  0  0.13973  0  1.030599  0  0  0.142062  0  1.028505  0  0  0.091765  0.137918  0  1.03223  0
H  H17  1  0.52754588  0.76476360  0.47055657  1  0  0.123448  0  0.959052  0  0  0.13968  0  1.030675  0  0  0.142015  0  1.02858  0  0  0.091781  0.137884  0  1.03229  0
H  H18  1  0.97249224  0.26474359  0.02944806  1  0  0.123482  0  0.9595  0  0  0.139794  0  1.030975  0  0  0.142138  0  1.028868  0  0  0.091858  0.138013  0  1.032572  0
H  H19  1  0.47248837  0.23524958  0.52944257  1  0  0.123511  0  0.959557  0  0  0.1398  0  1.031064  0  0  0.142152  0  1.028949  0  0  0.091815  0.13801  0  1.032671  0
C  C20  1  0.48861813  0.57029329  0.91113157  1  0  0.032155  0  3.657915  0  0  -0.004335  0  3.909859  0  0  -0.001497  0  3.923285  0  0  0.036598  -0.006883  0  3.902302  0
C  C21  1  0.98860109  0.92971036  0.41113976  1  0  0.032413  0  3.659016  0  0  -0.004128  0  3.910757  0  0  -0.001308  0  3.924198  0  0  0.036749  -0.006658  0  3.903221  0
C  C22  1  0.51139692  0.42971697  0.08885435  1  0  0.032044  0  3.657878  0  0  -0.004383  0  3.909808  0  0  -0.001564  0  3.923249  0  0  0.036678  -0.006927  0  3.90226  0
C  C23  1  0.01137825  0.07027361  0.58884984  1  0  0.031926  0  3.65803  0  0  -0.00464  0  3.910069  0  0  -0.001819  0  3.923519  0  0  0.036654  -0.007164  0  3.902488  0
C  C24  1  0.66909886  0.63198239  0.97463186  1  0  0.261489  0  3.696981  0  0  0.269693  0  3.945226  0  0  0.275202  0  3.960841  0  0  0.115825  0.265583  0  3.935456  0
C  C25  1  0.16906034  0.86802677  0.47462736  1  0  0.260964  0  3.697773  0  0  0.269515  0  3.945531  0  0  0.275036  0  3.961141  0  0  0.115593  0.265397  0  3.935779  0
C  C26  1  0.33090513  0.36800304  0.02536747  1  0  0.261307  0  3.696896  0  0  0.269436  0  3.945233  0  0  0.274943  0  3.960866  0  0  0.115701  0.265322  0  3.93547  0
C  C27  1  0.83088659  0.13200101  0.52537530  1  0  0.261352  0  3.696334  0  0  0.269619  0  3.944588  0  0  0.275121  0  3.960217  0  0  0.115837  0.265517  0  3.934828  0
C  C28  1  0.84805678  0.77998615  0.94650644  1  0  -0.380072  0  3.714356  0  0  -0.469671  0  3.958883  0  0  -0.470859  0  3.963664  0  0  -0.247494  -0.468488  0  3.955922  0
C  C29  1  0.34803553  0.72004445  0.44650993  1  0  -0.379735  0  3.713869  0  0  -0.469403  0  3.958416  0  0  -0.470596  0  3.963197  0  0  -0.247312  -0.468247  0  3.955428  0
C  C30  1  0.15192592  0.21999927  0.05349038  1  0  -0.379975  0  3.714709  0  0  -0.469642  0  3.959277  0  0  -0.470839  0  3.964046  0  0  -0.247606  -0.4685  0  3.956289  0
C  C31  1  0.65187596  0.28002130  0.55348710  1  0  -0.379816  0  3.714649  0  0  -0.469565  0  3.959046  0  0  -0.470756  0  3.963802  0  0  -0.247601  -0.468412  0  3.956067  0
C  C32  1  0.61009142  0.14657505  0.81245063  1  0  0.295784  0  3.936843  0  0  0.286257  0  4.227505  0  0  0.302023  0  4.241973  0  0  0.14948  0.275988  0  4.217182  0
C  C33  1  0.11009881  0.35342481  0.31245190  1  0  0.295822  0  3.936987  0  0  0.286302  0  4.227626  0  0  0.302062  0  4.242088  0  0  0.149475  0.276033  0  4.217326  0
C  C34  1  0.38992655  0.85341476  0.18755753  1  0  0.295703  0  3.936872  0  0  0.28618  0  4.227534  0  0  0.301944  0  4.242002  0  0  0.149412  0.275913  0  4.21726  0
C  C35  1  0.88991893  0.64656354  0.68756413  1  0  0.295621  0  3.936985  0  0  0.286088  0  4.227669  0  0  0.301855  0  4.242147  0  0  0.149293  0.27582  0  4.217371  0
S  S36  1  0.34889351  0.04116170  0.80159509  1  0  -0.312998  0  2.596181  0  0  -0.281547  0  3.015014  0  0  -0.28558  0  2.99513  0  0  -0.151104  -0.279625  0  3.027715  0
S  S37  1  0.84890197  0.45884241  0.30159731  1  0  -0.313034  0  2.596122  0  0  -0.281605  0  3.01499  0  0  -0.285611  0  2.995082  0  0  -0.151105  -0.279686  0  3.027728  0
S  S38  1  0.65110340  0.95883979  0.19840269  1  0  -0.312898  0  2.59645  0  0  -0.281437  0  3.015249  0  0  -0.285442  0  2.995347  0  0  -0.151049  -0.279526  0  3.028001  0
S  S39  1  0.15110555  0.54115470  0.69840280  1  0  -0.312856  0  2.596429  0  0  -0.281414  0  3.01528  0  0  -0.285441  0  2.995397  0  0  -0.151035  -0.279493  0  3.027995  0
N  N40  1  0.31992598  0.44049657  0.93478931  1  0  -0.303374  0  3.341967  0  0  -0.23662  0  3.622891  0  0  -0.240705  0  3.629108  0  0  -0.353664  -0.234806  0  3.61913  0
N  N41  1  0.81993787  0.05948399  0.43478682  1  0  -0.30353  0  3.342279  0  0  -0.236879  0  3.623289  0  0  -0.240936  0  3.629474  0  0  -0.353872  -0.235129  0  3.619609  0
N  N42  1  0.68009762  0.55951514  0.06520892  1  0  -0.303372  0  3.342253  0  0  -0.236702  0  3.623226  0  0  -0.240764  0  3.629424  0  0  -0.353743  -0.234912  0  3.619538  0
N  N43  1  0.18009458  0.94047807  0.56521300  1  0  -0.303104  0  3.342021  0  0  -0.236482  0  3.622853  0  0  -0.240553  0  3.629061  0  0  -0.353688  -0.234692  0  3.619146  0
N  N44  1  0.79609197  0.22537287  0.82324187  1  0  -0.500052  0  3.148448  0  0  -0.450846  0  3.476436  0  0  -0.460847  0  3.477747  0  0  -0.434151  -0.444508  0  3.474301  0
N  N45  1  0.29610010  0.27463095  0.32324092  1  0  -0.500105  0  3.14861  0  0  -0.450916  0  3.476615  0  0  -0.460896  0  3.477899  0  0  -0.434155  -0.444587  0  3.47452  0
N  N46  1  0.20388698  0.77462571  0.17676133  1  0  -0.500109  0  3.148243  0  0  -0.450916  0  3.476286  0  0  -0.460909  0  3.477593  0  0  -0.434174  -0.444593  0  3.474263  0
N  N47  1  0.70388775  0.72536470  0.67676243  1  0  -0.500063  0  3.14825  0  0  -0.450856  0  3.476242  0  0  -0.460855  0  3.477562  0  0  -0.43406  -0.444528  0  3.474184  0
