# generated using pymatgen
data_Cu2H15C12I2N7
_symmetry_space_group_name_H-M   'P 1'
_cell_length_a   9.44261377
_cell_length_b   18.51073132
_cell_length_c   18.50257087
_cell_angle_alpha   117.17973868
_cell_angle_beta   99.79123130
_cell_angle_gamma   99.79710771
_symmetry_Int_Tables_number   1
_chemical_formula_structural   Cu2H15C12I2N7
_chemical_formula_sum   'Cu12 H90 C72 I12 N42'
_cell_volume   2719.37719958
_cell_formula_units_Z   6
loop_
 _symmetry_equiv_pos_site_id
 _symmetry_equiv_pos_as_xyz
  1  'x, y, z'
loop_
 _atom_site_type_symbol
 _atom_site_label
 _atom_site_symmetry_multiplicity
 _atom_site_fract_x
 _atom_site_fract_y
 _atom_site_fract_z
 _atom_site_occupancy
 _atom_site_pbe_bader_charge
 _atom_site_pbe_bader_spin_density
 _atom_site_pbe_cm5_charge
 _atom_site_pbe_ddec_charge
 _atom_site_pbe_ddec_spin_density
 _atom_site_pbe_ddec_sum_bond_order
 _atom_site_pbe_magmom
Cu  Cu0  1  0.92501320  0.62608431  0.67454680  1  0.507094  0  0.34772  0.173508  0  2.674674  0
Cu  Cu1  1  0.25051303  0.32552661  0.95181938  1  0.507555  0  0.347214  0.172593  0  2.676591  0
Cu  Cu2  1  0.29919026  0.04831931  0.37381136  1  0.509639  0  0.346821  0.171755  0  2.676589  0
Cu  Cu3  1  0.07498548  0.37391541  0.32545260  1  0.507038  0  0.347715  0.173498  0  2.674698  0
Cu  Cu4  1  0.74948653  0.67447057  0.04817895  1  0.507561  0  0.347177  0.17253  0  2.676633  0
Cu  Cu5  1  0.70080930  0.95167788  0.62618967  1  0.509522  0  0.34681  0.171702  0  2.676667  0
Cu  Cu6  1  0.06614556  0.61179586  0.56269063  1  0.401807  0  0.240644  0.163307  0  2.686924  0
Cu  Cu7  1  0.50375672  0.43746032  0.04913294  1  0.399413  0  0.240343  0.163481  0  2.689328  0
Cu  Cu8  1  0.45456214  0.95089737  0.38828953  1  0.398873  0  0.240291  0.163814  0  2.688207  0
Cu  Cu9  1  0.93385280  0.38820322  0.43730953  1  0.401852  0  0.240659  0.163519  0  2.686859  0
Cu  Cu10  1  0.49623615  0.56254066  0.95087086  1  0.399526  0  0.240342  0.163491  0  2.689294  0
Cu  Cu11  1  0.54543988  0.04910045  0.61171145  1  0.398926  0  0.240273  0.163775  0  2.68828  0
H  H12  1  0.14284105  0.60131451  0.80849231  1  0.144702  0  0.106996  0.100229  0  1.033091  0
H  H13  1  0.33484601  0.19180885  0.79307882  1  0.132389  0  0.10708  0.09904  0  1.034647  0
H  H14  1  0.54164660  0.20697768  0.39825487  1  0.108677  0  0.106748  0.099653  0  1.033187  0
H  H15  1  0.85715902  0.39868584  0.19150643  1  0.144469  0  0.106977  0.100215  0  1.033136  0
H  H16  1  0.66515703  0.80819530  0.20692298  1  0.132405  0  0.107099  0.09906  0  1.034689  0
H  H17  1  0.45834833  0.79301887  0.60174060  1  0.1091  0  0.106739  0.099653  0  1.033183  0
H  H18  1  0.03835753  0.51445488  0.88534225  1  0.104714  0  0.093654  0.122862  0  1.048835  0
H  H19  1  0.15347233  0.11479003  0.62928275  1  0.111242  0  0.093358  0.121931  0  1.049406  0
H  H20  1  0.52371697  0.37063003  0.48484063  1  0.091753  0  0.093396  0.12248  0  1.049006  0
H  H21  1  0.96164671  0.48554737  0.11465772  1  0.10468  0  0.093666  0.122863  0  1.048853  0
H  H22  1  0.84652901  0.88521285  0.37071833  1  0.111219  0  0.093345  0.121904  0  1.049416  0
H  H23  1  0.47628043  0.62936716  0.51515427  1  0.091669  0  0.093447  0.12253  0  1.048935  0
H  H24  1  0.73089754  0.46107663  0.81418592  1  0.141615  0  0.108955  0.105092  0  1.063876  0
H  H25  1  0.91689760  0.18569192  0.64701223  1  0.133556  0  0.109615  0.105989  0  1.061987  0
H  H26  1  0.26990986  0.35292375  0.53844552  1  0.1377  0  0.11119  0.107591  0  1.060777  0
H  H27  1  0.26910512  0.53892245  0.18581570  1  0.141622  0  0.108969  0.105114  0  1.063833  0
H  H28  1  0.08310310  0.81430969  0.35299038  1  0.133366  0  0.109609  0.105928  0  1.062043  0
H  H29  1  0.73009128  0.64707660  0.46155330  1  0.137699  0  0.111173  0.107583  0  1.060788  0
H  H30  1  0.00547890  0.82723998  0.76013099  1  0.106048  0  0.109739  0.099793  0  1.024074  0
H  H31  1  0.24520535  0.23996230  0.06745862  1  0.120862  0  0.109376  0.100013  0  1.02389  0
H  H32  1  0.17833086  0.93274023  0.17257300  1  0.105053  0  0.108953  0.0988  0  1.025128  0
H  H33  1  0.99452040  0.17276101  0.23986905  1  0.106009  0  0.10977  0.099877  0  1.024141  0
H  H34  1  0.75479332  0.76003741  0.93254024  1  0.120944  0  0.109372  0.100007  0  1.023884  0
H  H35  1  0.82167028  0.06726012  0.82742798  1  0.105037  0  0.108946  0.098784  0  1.025112  0
H  H36  1  0.80461046  0.91568708  0.82056475  1  0.080818  0  0.10544  0.131674  0  1.030486  0
H  H37  1  0.98375638  0.17963835  0.09544526  1  0.084714  0  0.105267  0.130871  0  1.031114  0
H  H38  1  0.88875308  0.90440602  0.08413714  1  0.127558  0  0.105464  0.130913  0  1.031976  0
H  H39  1  0.19538252  0.08431200  0.17943171  1  0.08085  0  0.105418  0.131625  0  1.030485  0
H  H40  1  0.01623919  0.82035946  0.90455030  1  0.084644  0  0.105285  0.13083  0  1.031177  0
H  H41  1  0.11124819  0.09559243  0.91586245  1  0.127599  0  0.105472  0.130916  0  1.03196  0
H  H42  1  0.54435514  0.78903768  0.77060685  1  0.127948  0  0.107952  0.111616  0  1.045312  0
H  H43  1  0.77369613  0.22966851  0.01875808  1  0.152592  0  0.109998  0.113414  0  1.043149  0
H  H44  1  0.75530235  0.98104690  0.21085807  1  0.110512  0  0.109123  0.112275  0  1.044551  0
H  H45  1  0.45563935  0.21096014  0.22938862  1  0.128133  0  0.107968  0.111643  0  1.045233  0
H  H46  1  0.22630608  0.77033184  0.98123922  1  0.152558  0  0.11001  0.113427  0  1.043133  0
H  H47  1  0.24469568  0.01895155  0.78913962  1  0.110521  0  0.109106  0.112229  0  1.044574  0
H  H48  1  0.65371705  0.49028907  0.62854116  1  0.090259  0  0.112465  0.079385  0  1.052045  0
H  H49  1  0.02529687  0.37137167  0.86187200  1  0.086944  0  0.112597  0.07974  0  1.051159  0
H  H50  1  0.16401318  0.13820087  0.50955275  1  0.092784  0  0.112803  0.080126  0  1.050705  0
H  H51  1  0.34627960  0.50970875  0.37145936  1  0.090208  0  0.11248  0.07937  0  1.052111  0
H  H52  1  0.97470351  0.62862931  0.13812813  1  0.086967  0  0.11258  0.079709  0  1.05118  0
H  H53  1  0.83598518  0.86179822  0.49044688  1  0.092772  0  0.112795  0.080078  0  1.050754  0
H  H54  1  0.56885161  0.45293365  0.68886001  1  0.064913  0  0.121015  0.080696  0  0.999748  0
H  H55  1  0.88017558  0.31104698  0.76415043  1  0.087173  0  0.121113  0.081043  0  0.999579  0
H  H56  1  0.11659017  0.23588867  0.54701065  1  0.069608  0  0.120741  0.079704  0  1.000822  0
H  H57  1  0.43114846  0.54706670  0.31114412  1  0.064931  0  0.121043  0.080733  0  0.999694  0
H  H58  1  0.11982695  0.68895400  0.23584989  1  0.087175  0  0.121093  0.081035  0  0.999601  0
H  H59  1  0.88340806  0.76411232  0.45299038  1  0.069636  0  0.120727  0.079738  0  1.000683  0
H  H60  1  0.46236457  0.63811570  0.66907428  1  0.10778  0  0.103373  0.079184  0  1.044222  0
H  H61  1  0.79326281  0.33099202  0.96918893  1  0.112233  0  0.103486  0.080667  0  1.043896  0
H  H62  1  0.82448340  0.03094716  0.36185427  1  0.095536  0  0.103596  0.079849  0  1.04365  0
H  H63  1  0.53763638  0.36188212  0.33092661  1  0.107767  0  0.103366  0.079218  0  1.044156  0
H  H64  1  0.20673852  0.66901086  0.03081215  1  0.112267  0  0.103476  0.080628  0  1.04393  0
H  H65  1  0.17551356  0.96905129  0.63814333  1  0.095582  0  0.103606  0.079831  0  1.043732  0
H  H66  1  0.58949516  0.58947322  0.61484278  1  0.089387  0  0.10983  0.080614  0  1.044605  0
H  H67  1  0.97462757  0.38521903  0.97476753  1  0.09812  0  0.109638  0.080395  0  1.043602  0
H  H68  1  0.00018722  0.02536884  0.41055614  1  0.095649  0  0.110289  0.079878  0  1.043925  0
H  H69  1  0.41050300  0.41052333  0.38515676  1  0.089319  0  0.109843  0.080596  0  1.044724  0
H  H70  1  0.02537635  0.61478258  0.02523158  1  0.098177  0  0.109635  0.080376  0  1.043638  0
H  H71  1  0.99980974  0.97462961  0.58944200  1  0.095555  0  0.110262  0.079853  0  1.043913  0
H  H72  1  0.25439156  0.38827551  0.81710793  1  0.110993  0  0.109969  0.098466  0  1.061718  0
H  H73  1  0.43736608  0.18273833  0.57113543  1  0.152109  0  0.109484  0.098082  0  1.062616  0
H  H74  1  0.86525661  0.42868222  0.61128631  1  0.119462  0  0.109308  0.097708  0  1.062304  0
H  H75  1  0.74560927  0.61172421  0.18289166  1  0.110993  0  0.109983  0.098455  0  1.061711  0
H  H76  1  0.56263411  0.81726012  0.42886460  1  0.152093  0  0.109493  0.098106  0  1.062606  0
H  H77  1  0.13474915  0.57131876  0.38871590  1  0.119472  0  0.109313  0.097638  0  1.062296  0
H  H78  1  0.09885318  0.36273279  0.66251564  1  0.115045  0  0.099259  0.120831  0  1.059667  0
H  H79  1  0.43667938  0.33735023  0.70015536  1  0.10312  0  0.098859  0.119829  0  1.059586  0
H  H80  1  0.73625233  0.29974601  0.63712977  1  0.106369  0  0.099781  0.121993  0  1.060055  0
H  H81  1  0.90115194  0.63726693  0.33748324  1  0.115138  0  0.099249  0.120814  0  1.059698  0
H  H82  1  0.56332403  0.66264822  0.29984388  1  0.103067  0  0.098869  0.119849  0  1.059513  0
H  H83  1  0.26374666  0.70025434  0.36287103  1  0.106387  0  0.099779  0.12193  0  1.060092  0
H  H84  1  0.26009978  0.49421086  0.65048100  1  0.139322  0  0.105073  0.111247  0  1.06555  0
H  H85  1  0.61004097  0.34949721  0.84375714  1  0.167959  0  0.104484  0.110869  0  1.065216  0
H  H86  1  0.76705115  0.15632508  0.50596604  1  0.1637  0  0.10434  0.1115  0  1.064548  0
H  H87  1  0.73990737  0.50579076  0.34952217  1  0.139381  0  0.105054  0.111233  0  1.065569  0
H  H88  1  0.38996478  0.65050378  0.15624291  1  0.16784  0  0.104483  0.110893  0  1.065224  0
H  H89  1  0.23294430  0.84367463  0.49403255  1  0.163691  0  0.104328  0.11133  0  1.064518  0
H  H90  1  0.59907106  0.60998787  0.84806648  1  0.077079  0  0.109843  0.070139  0  1.039687  0
H  H91  1  0.75120678  0.15194188  0.76207460  1  0.108065  0  0.109527  0.07004  0  1.040124  0
H  H92  1  0.98963393  0.23800087  0.38995339  1  0.091262  0  0.109964  0.071288  0  1.039156  0
H  H93  1  0.40093331  0.39001248  0.15193695  1  0.077145  0  0.10985  0.070189  0  1.039656  0
H  H94  1  0.24879576  0.84805910  0.23792680  1  0.108045  0  0.10954  0.070055  0  1.040171  0
H  H95  1  0.01036304  0.76199758  0.61004474  1  0.091279  0  0.109979  0.071162  0  1.039059  0
H  H96  1  0.47769724  0.65338691  0.80493645  1  0.103928  0  0.11284  0.085154  0  1.009249  0
H  H97  1  0.67287497  0.19507582  0.84858872  1  0.10215  0  0.11236  0.085345  0  1.009942  0
H  H98  1  0.82477277  0.15149938  0.34651377  1  0.096118  0  0.113087  0.086557  0  1.009407  0
H  H99  1  0.52230669  0.34661471  0.19506752  1  0.104333  0  0.112824  0.085136  0  1.00931  0
H  H100  1  0.32712939  0.80492453  0.15141309  1  0.101976  0  0.112361  0.085357  0  1.009969  0
H  H101  1  0.17522268  0.84850034  0.65348589  1  0.096133  0  0.113081  0.086428  0  1.009325  0
C  C102  1  0.02871373  0.56866908  0.79920096  1  0.432254  0  0.016614  0.022211  0  3.970735  0
C  C103  1  0.22995266  0.20100773  0.76967503  1  0.431662  0  0.017419  0.025245  0  3.971967  0
C  C104  1  0.46019141  0.23033760  0.43092676  1  0.404813  0  0.015586  0.020295  0  3.972471  0
C  C105  1  0.97128848  0.43133127  0.20079850  1  0.432671  0  0.016632  0.022211  0  3.970805  0
C  C106  1  0.77004942  0.79899452  0.23032367  1  0.431661  0  0.017457  0.025219  0  3.972121  0
C  C107  1  0.53980461  0.76965895  0.56906988  1  0.404531  0  0.01559  0.020334  0  3.972314  0
C  C108  1  0.97376911  0.52452352  0.83811985  1  -0.016995  0  -0.123347  -0.207502  0  4.027123  0
C  C109  1  0.13608361  0.16201206  0.68657453  1  -0.007581  0  -0.122826  -0.207036  0  4.026257  0
C  C110  1  0.44920294  0.31336630  0.47488973  1  0.067142  0  -0.120943  -0.203909  0  4.024776  0
C  C111  1  0.02623601  0.47547620  0.16187957  1  -0.017061  0  -0.123365  -0.20749  0  4.027189  0
C  C112  1  0.86391956  0.83799019  0.31342588  1  -0.00766  0  -0.122822  -0.207005  0  4.026303  0
C  C113  1  0.55079693  0.68663152  0.52510729  1  0.067442  0  -0.121005  -0.204073  0  4.024827  0
C  C114  1  0.81974934  0.49629721  0.80270733  1  0.26985  0  0.011454  -0.055958  0  3.934303  0
C  C115  1  0.01732203  0.19728505  0.69373417  1  0.300237  0  0.011238  -0.055247  0  3.934577  0
C  C116  1  0.32355229  0.30621517  0.50323925  1  0.275199  0  0.006956  -0.060307  0  3.936324  0
C  C117  1  0.18025180  0.50370314  0.19729420  1  0.269846  0  0.011445  -0.055977  0  3.934358  0
C  C118  1  0.98268037  0.80271783  0.30626700  1  0.300434  0  0.011233  -0.05527  0  3.934629  0
C  C119  1  0.67644543  0.69378264  0.49675650  1  0.275112  0  0.006946  -0.060298  0  3.936261  0
C  C120  1  0.88864848  0.80342790  0.75488379  1  0.442806  0  0.011097  0.007205  0  3.980743  0
C  C121  1  0.13368829  0.24526726  0.04887353  1  0.393286  0  0.012917  0.008593  0  3.977481  0
C  C122  1  0.08533951  0.95127128  0.19641977  1  0.431089  0  0.011872  0.009196  0  3.979868  0
C  C123  1  0.11134514  0.19657245  0.24511493  1  0.442942  0  0.011027  0.007007  0  3.980572  0
C  C124  1  0.86631115  0.75473182  0.95112619  1  0.393331  0  0.012931  0.008596  0  3.977523  0
C  C125  1  0.91465885  0.04872780  0.80358040  1  0.431116  0  0.011869  0.009208  0  3.97986  0
C  C126  1  0.78630520  0.84779114  0.78666481  1  0.044087  0  -0.11772  -0.204781  0  4.03261  0
C  C127  1  0.99951495  0.21356364  0.06148742  1  0.032773  0  -0.117191  -0.203288  0  4.031896  0
C  C128  1  0.93850529  0.93851753  0.15204868  1  -0.016654  0  -0.118416  -0.205158  0  4.032885  0
C  C129  1  0.21368949  0.15220921  0.21333292  1  0.043993  0  -0.117658  -0.204583  0  4.032502  0
C  C130  1  0.00048157  0.78643608  0.93851180  1  0.032588  0  -0.117189  -0.203189  0  4.031974  0
C  C131  1  0.06149414  0.06148155  0.84795104  1  -0.016682  0  -0.118405  -0.205142  0  4.032848  0
C  C132  1  0.65495898  0.78567040  0.76285509  1  0.282029  0  0.015642  -0.052176  0  3.929592  0
C  C133  1  0.89206564  0.23740788  0.02317434  1  0.279553  0  0.012025  -0.056655  0  3.931061  0
C  C134  1  0.86932632  0.97675401  0.21421059  1  0.337219  0  0.014709  -0.051291  0  3.929938  0
C  C135  1  0.34503584  0.21432805  0.23714232  1  0.281918  0  0.015589  -0.052314  0  3.929685  0
C  C136  1  0.10793549  0.76259247  0.97682340  1  0.279619  0  0.011984  -0.056792  0  3.931088  0
C  C137  1  0.13067160  0.02324634  0.78578850  1  0.337198  0  0.014733  -0.051269  0  3.929895  0
C  C138  1  0.64197420  0.50800656  0.69205784  1  0.677665  0  0.045615  -0.005865  0  3.945764  0
C  C139  1  0.95006143  0.30787067  0.81607162  1  0.675913  0  0.044584  -0.006253  0  3.944179  0
C  C140  1  0.13449338  0.18397844  0.49186704  1  0.665295  0  0.045425  -0.004466  0  3.942673  0
C  C141  1  0.35802416  0.49199252  0.30794395  1  0.677877  0  0.045599  -0.005886  0  3.945653  0
C  C142  1  0.04993971  0.69212968  0.18392829  1  0.675919  0  0.044562  -0.00634  0  3.94417  0
C  C143  1  0.86550453  0.81602191  0.50813259  1  0.66527  0  0.045425  -0.004432  0  3.94264  0
C  C144  1  0.57223371  0.62577003  0.67726873  1  0.649076  0  0.037521  -0.017853  0  3.953715  0
C  C145  1  0.89499911  0.32281456  0.94869954  1  0.621177  0  0.037572  -0.019158  0  3.953751  0
C  C146  1  0.94671069  0.05142131  0.37417813  1  0.692964  0  0.037794  -0.015336  0  3.951777  0
C  C147  1  0.42776389  0.37422969  0.32273220  1  0.649135  0  0.037479  -0.017945  0  3.95386  0
C  C148  1  0.10500191  0.67718769  0.05130122  1  0.62111  0  0.037593  -0.019087  0  3.953755  0
C  C149  1  0.05328755  0.94857967  0.62582289  1  0.693045  0  0.037804  -0.015401  0  3.951972  0
C  C150  1  0.27635930  0.42480351  0.78613895  1  0.421831  0  0.006144  0.01149  0  3.975118  0
C  C151  1  0.49032294  0.21371513  0.63865978  1  0.36307  0  0.00769  0.011945  0  3.975923  0
C  C152  1  0.85109297  0.36122064  0.57486835  1  0.392802  0  0.008724  0.013152  0  3.974328  0
C  C153  1  0.72364045  0.57519621  0.21386055  1  0.421959  0  0.006177  0.011613  0  3.975105  0
C  C154  1  0.50968048  0.78628333  0.36134108  1  0.36337  0  0.007742  0.011941  0  3.97573  0
C  C155  1  0.14890925  0.63877971  0.42513327  1  0.392771  0  0.008744  0.013028  0  3.974053  0
C  C156  1  0.20013388  0.41178678  0.70719390  1  0.009417  0  -0.120784  -0.217196  0  4.038428  0
C  C157  1  0.49321769  0.29268672  0.70456762  1  0.00539  0  -0.120382  -0.216043  0  4.038755  0
C  C158  1  0.78849335  0.29536446  0.58807594  1  -0.042164  0  -0.122375  -0.21941  0  4.040562  0
C  C159  1  0.79986865  0.58821420  0.29280695  1  0.009152  0  -0.120772  -0.217258  0  4.038465  0
C  C160  1  0.50678295  0.70731047  0.29543134  1  0.005355  0  -0.120347  -0.21594  0  4.03855  0
C  C161  1  0.21150564  0.70463589  0.41192486  1  -0.0421  0  -0.122381  -0.219603  0  4.04033  0
C  C162  1  0.27821970  0.47786412  0.70011643  1  0.297883  0  0.014933  -0.052354  0  3.92945  0
C  C163  1  0.57845008  0.29983159  0.77776481  1  0.273777  0  0.015987  -0.051402  0  3.926214  0
C  C164  1  0.80113639  0.22227036  0.52219605  1  0.333509  0  0.016742  -0.052925  0  3.928164  0
C  C165  1  0.72178637  0.52213750  0.29988611  1  0.297821  0  0.014924  -0.052363  0  3.929499  0
C  C166  1  0.42155289  0.70016813  0.22223550  1  0.273829  0  0.015928  -0.051533  0  3.926383  0
C  C167  1  0.19886153  0.77772999  0.47780466  1  0.333508  0  0.016749  -0.051655  0  3.927407  0
C  C168  1  0.51816635  0.59736777  0.79028741  1  0.649753  0  0.042651  0.001372  0  3.913546  0
C  C169  1  0.72806876  0.20970790  0.80722018  1  0.623006  0  0.043015  0.000736  0  3.91499  0
C  C170  1  0.92130566  0.19285994  0.40255625  1  0.639957  0  0.042678  -0.002684  0  3.914321  0
C  C171  1  0.48183940  0.40263321  0.20971589  1  0.649325  0  0.042655  0.001312  0  3.913631  0
C  C172  1  0.27193301  0.79029371  0.19278144  1  0.623188  0  0.043055  0.000804  0  3.915094  0
C  C173  1  0.07869226  0.80714041  0.59744445  1  0.639879  0  0.042676  -0.001399  0  3.913478  0
I  I174  1  0.21649214  0.70488213  0.72128258  1  -0.49431  0  -0.234084  -0.403739  0  1.804403  0
I  I175  1  0.49535857  0.27894214  0.98383705  1  -0.492638  0  -0.233925  -0.403757  0  1.806426  0
I  I176  1  0.51193920  0.01614759  0.29504651  1  -0.493311  0  -0.23363  -0.40363  0  1.804797  0
I  I177  1  0.78350653  0.29511759  0.27871413  1  -0.494209  0  -0.234089  -0.403716  0  1.80433  0
I  I178  1  0.50464181  0.72105884  0.01616416  1  -0.492637  0  -0.233906  -0.40372  0  1.80646  0
I  I179  1  0.48806162  0.98385213  0.70495200  1  -0.493315  0  -0.233604  -0.403615  0  1.804931  0
I  I180  1  0.20934040  0.48616716  0.49145240  1  -0.455027  0  -0.167185  -0.341549  0  2.22385  0
I  I181  1  0.71785991  0.50859524  0.99472765  1  -0.452696  0  -0.167368  -0.341933  0  2.22664  0
I  I182  1  0.72316509  0.00529330  0.51384591  1  -0.454955  0  -0.167312  -0.34161  0  2.225073  0
I  I183  1  0.79065751  0.51383319  0.50854615  1  -0.454969  0  -0.167193  -0.341554  0  2.223876  0
I  I184  1  0.28213547  0.49140005  0.00527053  1  -0.452679  0  -0.167372  -0.341894  0  2.226637  0
I  I185  1  0.27683434  0.99470578  0.48615273  1  -0.454966  0  -0.167299  -0.341618  0  2.225105  0
N  N186  1  0.91628861  0.56750712  0.74298554  1  -0.735221  0  -0.281033  -0.176216  0  3.526182  0
N  N187  1  0.17358854  0.25712813  0.82472435  1  -0.746849  0  -0.283182  -0.179344  0  3.530094  0
N  N188  1  0.34916107  0.17533361  0.43227740  1  -0.739385  0  -0.28212  -0.177983  0  3.525446  0
N  N189  1  0.08371190  0.43249196  0.25701427  1  -0.735257  0  -0.280999  -0.176248  0  3.526244  0
N  N190  1  0.82641215  0.74287348  0.17527664  1  -0.746812  0  -0.283215  -0.179398  0  3.530187  0
N  N191  1  0.65083621  0.82466547  0.56772051  1  -0.739627  0  -0.282068  -0.177966  0  3.525381  0
N  N192  1  0.78896527  0.52290735  0.74595645  1  -0.789547  0  -0.15811  0.126058  0  3.734052  0
N  N193  1  0.04319606  0.25402083  0.77711146  1  -0.805499  0  -0.15774  0.125358  0  3.734831  0
N  N194  1  0.26642623  0.22291409  0.47685396  1  -0.797573  0  -0.155433  0.12848  0  3.731323  0
N  N195  1  0.21103492  0.47709110  0.25404358  1  -0.789585  0  -0.158165  0.126063  0  3.734094  0
N  N196  1  0.95680559  0.74598269  0.22289048  1  -0.805453  0  -0.157707  0.125546  0  3.734679  0
N  N197  1  0.73357276  0.77708626  0.52314630  1  -0.7975  0  -0.155421  0.128456  0  3.731393  0
N  N198  1  0.82485645  0.71926697  0.71415414  1  -0.748299  0  -0.280603  -0.177954  0  3.535425  0
N  N199  1  0.11070854  0.28597979  0.00541591  1  -0.710424  0  -0.279459  -0.176882  0  3.535495  0
N  N200  1  0.10579865  0.99476557  0.28062360  1  -0.730752  0  -0.27912  -0.175396  0  3.535192  0
N  N201  1  0.17514318  0.28073464  0.28584621  1  -0.748349  0  -0.28054  -0.177864  0  3.535124  0
N  N202  1  0.88929184  0.71402119  0.99458422  1  -0.710429  0  -0.279456  -0.176822  0  3.535582  0
N  N203  1  0.89420065  0.00523541  0.71937697  1  -0.730864  0  -0.279116  -0.175411  0  3.535357  0
N  N204  1  0.68199337  0.70954052  0.71988741  1  -0.777323  0  -0.153208  0.131845  0  3.730445  0
N  N205  1  0.96213964  0.28032414  0.98998666  1  -0.796984  0  -0.154659  0.132415  0  3.73124  0
N  N206  1  0.97259231  0.01009170  0.29036838  1  -0.80581  0  -0.155029  0.127306  0  3.733683  0
N  N207  1  0.31800423  0.29045920  0.28011082  1  -0.77742  0  -0.153246  0.131893  0  3.730408  0
N  N208  1  0.03785967  0.71967684  0.01001284  1  -0.796932  0  -0.154623  0.132459  0  3.731194  0
N  N209  1  0.02740560  0.98990865  0.70963179  1  -0.80574  0  -0.155038  0.127307  0  3.733852  0
N  N210  1  0.39429763  0.49439376  0.82555486  1  -0.739523  0  -0.285336  -0.179443  0  3.519823  0
N  N211  1  0.56881512  0.17433916  0.66888561  1  -0.741937  0  -0.285733  -0.178973  0  3.518177  0
N  N212  1  0.89970435  0.33105634  0.50535353  1  -0.716276  0  -0.286516  -0.179804  0  3.519959  0
N  N213  1  0.60570383  0.50560722  0.17444753  1  -0.739713  0  -0.285455  -0.179606  0  3.519891  0
N  N214  1  0.43118475  0.82565865  0.33111411  1  -0.742174  0  -0.285831  -0.17905  0  3.518231  0
N  N215  1  0.10029711  0.66894464  0.49464777  1  -0.716427  0  -0.286519  -0.17861  0  3.519093  0
N  N216  1  0.39397709  0.52584830  0.77177757  1  -0.797169  0  -0.154043  0.123293  0  3.728303  0
N  N217  1  0.62242012  0.22817206  0.75413214  1  -0.766489  0  -0.155053  0.122569  0  3.725131  0
N  N218  1  0.86865657  0.24589631  0.47411956  1  -0.795832  0  -0.15485  0.125775  0  3.724871  0
N  N219  1  0.60602607  0.47415395  0.22822609  1  -0.796914  0  -0.153918  0.123452  0  3.728009  0
N  N220  1  0.37758039  0.77182702  0.24586821  1  -0.766467  0  -0.155037  0.122498  0  3.72532  0
N  N221  1  0.13134134  0.75410404  0.52588061  1  -0.795691  0  -0.154859  0.123875  0  3.724802  0
N  N222  1  0.57926611  0.57791882  0.71995428  1  -1.137322  0  -0.330798  -0.144867  0  3.674979  0
N  N223  1  0.85947552  0.28001062  0.85812408  1  -1.137431  0  -0.328289  -0.143622  0  3.673065  0
N  N224  1  0.00175759  0.14196101  0.42197082  1  -1.168575  0  -0.331267  -0.146914  0  3.672475  0
N  N225  1  0.42073965  0.42208217  0.28004902  1  -1.137473  0  -0.330772  -0.144825  0  3.674865  0
N  N226  1  0.14052505  0.71999290  0.14187722  1  -1.137376  0  -0.32832  -0.143659  0  3.673144  0
N  N227  1  0.99824247  0.85803934  0.57802899  1  -1.168555  0  -0.331269  -0.147137  0  3.672294  0
