# generated using pymatgen
data_CuH3C5N2
_symmetry_space_group_name_H-M   'P 1'
_cell_length_a   8.06679040
_cell_length_b   8.06685972
_cell_length_c   8.99447429
_cell_angle_alpha   70.02344250
_cell_angle_beta   70.02299866
_cell_angle_gamma   80.52941597
_symmetry_Int_Tables_number   1
_chemical_formula_structural   CuH3C5N2
_chemical_formula_sum   'Cu4 H12 C20 N8'
_cell_volume   516.22999710
_cell_formula_units_Z   4
loop_
 _symmetry_equiv_pos_site_id
 _symmetry_equiv_pos_as_xyz
  1  'x, y, z'
loop_
 _atom_site_type_symbol
 _atom_site_label
 _atom_site_symmetry_multiplicity
 _atom_site_fract_x
 _atom_site_fract_y
 _atom_site_fract_z
 _atom_site_occupancy
 _atom_site_hle17_bader_spin_density
 _atom_site_hle17_ddec_charge
 _atom_site_hle17_ddec_spin_density
 _atom_site_hle17_ddec_sum_bond_order
 _atom_site_hle17_magmom
 _atom_site_hse06_10hf_bader_spin_density
 _atom_site_hse06_10hf_ddec_charge
 _atom_site_hse06_10hf_ddec_spin_density
 _atom_site_hse06_10hf_ddec_sum_bond_order
 _atom_site_hse06_10hf_magmom
 _atom_site_hse06_bader_spin_density
 _atom_site_hse06_ddec_charge
 _atom_site_hse06_ddec_spin_density
 _atom_site_hse06_ddec_sum_bond_order
 _atom_site_hse06_magmom
 _atom_site_pbe_bader_spin_density
 _atom_site_pbe_cm5_charge
 _atom_site_pbe_ddec_charge
 _atom_site_pbe_ddec_spin_density
 _atom_site_pbe_ddec_sum_bond_order
 _atom_site_pbe_magmom
Cu  Cu0  1  0.97421174  0.79442087  0.92859579  1  0  0.405568  0  2.203894  0  0  0.316213  0  2.680351  0  0  0.307352  0  2.642228  0  0  0.511745  0.325694  0  2.703359  0
Cu  Cu1  1  0.20558190  0.02578733  0.57140405  1  0  0.405627  0  2.203831  0  0  0.316292  0  2.680257  0  0  0.307441  0  2.642144  0  0  0.511771  0.325775  0  2.703262  0
Cu  Cu2  1  0.02578990  0.20557858  0.07140201  1  0  0.405568  0  2.203869  0  0  0.316214  0  2.680299  0  0  0.307342  0  2.642159  0  0  0.511766  0.325689  0  2.703378  0
Cu  Cu3  1  0.79442098  0.97421343  0.42859741  1  0  0.405589  0  2.204017  0  0  0.316242  0  2.680447  0  0  0.30739  0  2.642318  0  0  0.511764  0.325715  0  2.703519  0
H  H4  1  0.20716712  0.47865642  0.03627853  1  0  0.096009  0  0.944198  0  0  0.101933  0  1.015354  0  0  0.106547  0  1.009173  0  0  0.120671  0.098408  0  1.020099  0
H  H5  1  0.52134799  0.79282280  0.46372480  1  0  0.096033  0  0.944177  0  0  0.101942  0  1.015356  0  0  0.106556  0  1.009175  0  0  0.120682  0.098417  0  1.020102  0
H  H6  1  0.79283187  0.52134303  0.96372119  1  0  0.096008  0  0.944186  0  0  0.101932  0  1.015352  0  0  0.106545  0  1.009173  0  0  0.120663  0.098406  0  1.020099  0
H  H7  1  0.47865233  0.20717665  0.53627451  1  0  0.096046  0  0.944174  0  0  0.101955  0  1.015349  0  0  0.106566  0  1.009173  0  0  0.120689  0.09843  0  1.020098  0
H  H8  1  0.44219711  0.22305737  0.04148372  1  0  0.111632  0  0.9528  0  0  0.122388  0  1.010336  0  0  0.124646  0  1.010915  0  0  0.106687  0.120681  0  1.010085  0
H  H9  1  0.77694252  0.55779932  0.45851804  1  0  0.111664  0  0.952777  0  0  0.12242  0  1.010303  0  0  0.124677  0  1.010885  0  0  0.106699  0.120726  0  1.010038  0
H  H10  1  0.55780175  0.77694472  0.95851634  1  0  0.111652  0  0.95279  0  0  0.122402  0  1.010328  0  0  0.124658  0  1.010909  0  0  0.106699  0.120696  0  1.010074  0
H  H11  1  0.22305786  0.44219881  0.54148054  1  0  0.111658  0  0.952812  0  0  0.122414  0  1.01034  0  0  0.12467  0  1.010922  0  0  0.106711  0.120721  0  1.010074  0
H  H12  1  0.73367310  0.10185019  0.89406316  1  0  0.096351  0  0.962608  0  0  0.102387  0  1.030727  0  0  0.106161  0  1.028252  0  0  0.100764  0.099484  0  1.032767  0
H  H13  1  0.89815212  0.26632632  0.60593472  1  0  0.096403  0  0.962579  0  0  0.102393  0  1.03075  0  0  0.106165  0  1.028279  0  0  0.100757  0.099498  0  1.032772  0
H  H14  1  0.26632583  0.89815058  0.10593839  1  0  0.096365  0  0.962606  0  0  0.1024  0  1.030729  0  0  0.106174  0  1.028255  0  0  0.100763  0.099498  0  1.032768  0
H  H15  1  0.10184680  0.73367446  0.39406684  1  0  0.096406  0  0.962631  0  0  0.102389  0  1.030819  0  0  0.106161  0  1.028348  0  0  0.100777  0.099498  0  1.03283  0
C  C16  1  0.83095917  0.88429529  0.63333120  1  0  -0.113381  0  3.519453  0  0  -0.114926  0  3.894478  0  0  -0.098705  0  3.886745  0  0  -0.057209  -0.126153  0  3.898575  0
C  C17  1  0.11570672  0.16904239  0.86666412  1  0  -0.113305  0  3.519401  0  0  -0.114834  0  3.89442  0  0  -0.098606  0  3.886675  0  0  -0.057122  -0.126062  0  3.898525  0
C  C18  1  0.16903601  0.11570154  0.36665826  1  0  -0.113467  0  3.519984  0  0  -0.11501  0  3.894991  0  0  -0.098807  0  3.887269  0  0  -0.057115  -0.126226  0  3.899051  0
C  C19  1  0.88429583  0.83096497  0.13333876  1  0  -0.113321  0  3.51975  0  0  -0.114847  0  3.894747  0  0  -0.098635  0  3.887019  0  0  -0.057096  -0.126068  0  3.898809  0
C  C20  1  0.28429547  0.54045169  0.90748943  1  0  0.064306  0  3.675681  0  0  0.026957  0  3.935404  0  0  0.034677  0  3.945453  0  0  0.062536  0.021304  0  3.929712  0
C  C21  1  0.45954786  0.71569822  0.59251278  1  0  0.064326  0  3.675583  0  0  0.026971  0  3.935286  0  0  0.034689  0  3.945337  0  0  0.062538  0.021319  0  3.929599  0
C  C22  1  0.71570353  0.45954776  0.09251029  1  0  0.064374  0  3.675591  0  0  0.026997  0  3.93533  0  0  0.034714  0  3.945382  0  0  0.06256  0.021357  0  3.929622  0
C  C23  1  0.54045253  0.28429991  0.40748691  1  0  0.064331  0  3.675569  0  0  0.026973  0  3.935264  0  0  0.034689  0  3.945319  0  0  0.062557  0.021321  0  3.929578  0
C  C24  1  0.44641818  0.45944190  0.83297714  1  0  0.031685  0  3.802474  0  0  0.049186  0  4.025013  0  0  0.04686  0  4.049948  0  0  0.002494  0.050669  0  4.008381  0
C  C25  1  0.54055659  0.55357609  0.66702585  1  0  0.031753  0  3.802435  0  0  0.049236  0  4.02498  0  0  0.046913  0  4.049913  0  0  0.002567  0.050719  0  4.008351  0
C  C26  1  0.55358081  0.54055756  0.16702257  1  0  0.031636  0  3.802456  0  0  0.049139  0  4.025005  0  0  0.046811  0  4.049941  0  0  0.00249  0.050619  0  4.008382  0
C  C27  1  0.45944379  0.44642204  0.33297384  1  0  0.031773  0  3.802379  0  0  0.049251  0  4.024933  0  0  0.046929  0  4.049866  0  0  0.002544  0.050732  0  4.008313  0
C  C28  1  0.51656681  0.29499822  0.91503221  1  0  -0.100037  0  3.704626  0  0  -0.119559  0  3.946145  0  0  -0.123112  0  3.968624  0  0  -0.079163  -0.117222  0  3.931241  0
C  C29  1  0.70500197  0.48342766  0.58497085  1  0  -0.099979  0  3.704613  0  0  -0.119482  0  3.946103  0  0  -0.123036  0  3.968584  0  0  -0.079129  -0.117157  0  3.931194  0
C  C30  1  0.48343080  0.70500256  0.08496863  1  0  -0.099994  0  3.704598  0  0  -0.119504  0  3.946092  0  0  -0.123057  0  3.968579  0  0  -0.079145  -0.117167  0  3.93119  0
C  C31  1  0.29499710  0.51657048  0.41503036  1  0  -0.100046  0  3.704615  0  0  -0.119557  0  3.946116  0  0  -0.123109  0  3.968596  0  0  -0.079162  -0.117233  0  3.931212  0
C  C32  1  0.67745582  0.22834912  0.83236985  1  0  -0.030873  0  3.698348  0  0  -0.042775  0  3.941731  0  0  -0.044561  0  3.963341  0  0  -0.07116  -0.041811  0  3.927749  0
C  C33  1  0.77165129  0.32254199  0.66763168  1  0  -0.031059  0  3.698404  0  0  -0.042931  0  3.941813  0  0  -0.044721  0  3.963423  0  0  -0.071211  -0.041966  0  3.927838  0
C  C34  1  0.32254318  0.77165033  0.16763209  1  0  -0.030963  0  3.698396  0  0  -0.042866  0  3.941774  0  0  -0.044655  0  3.963385  0  0  -0.071185  -0.041903  0  3.927796  0
C  C35  1  0.22834639  0.67745747  0.33237066  1  0  -0.03097  0  3.698381  0  0  -0.042832  0  3.941769  0  0  -0.04462  0  3.963379  0  0  -0.071197  -0.041866  0  3.927798  0
N  N36  1  0.87097262  0.83408082  0.75659250  1  0  -0.410295  0  3.337163  0  0  -0.345906  0  3.663199  0  0  -0.35933  0  3.665256  0  0  -0.446462  -0.337316  0  3.661129  0
N  N37  1  0.16592167  0.12902831  0.74340602  1  0  -0.410352  0  3.337248  0  0  -0.345982  0  3.663292  0  0  -0.359409  0  3.665352  0  0  -0.446534  -0.337393  0  3.661227  0
N  N38  1  0.12902935  0.16591201  0.24341722  1  0  -0.410127  0  3.337744  0  0  -0.345738  0  3.663732  0  0  -0.359158  0  3.665789  0  0  -0.446493  -0.337154  0  3.661688  0
N  N39  1  0.83408254  0.87097245  0.25658837  1  0  -0.41025  0  3.3376  0  0  -0.345869  0  3.6636  0  0  -0.359293  0  3.665662  0  0  -0.446473  -0.337285  0  3.661554  0
N  N40  1  0.21712967  0.69359533  0.83065927  1  0  -0.15104  0  3.273946  0  0  -0.095986  0  3.570423  0  0  -0.100616  0  3.575749  0  0  -0.251003  -0.093831  0  3.567654  0
N  N41  1  0.30640289  0.78286902  0.66934224  1  0  -0.151096  0  3.273873  0  0  -0.095998  0  3.570328  0  0  -0.100627  0  3.575654  0  0  -0.250997  -0.093845  0  3.567561  0
N  N42  1  0.78287065  0.30640412  0.16934115  1  0  -0.151093  0  3.273989  0  0  -0.096024  0  3.570452  0  0  -0.100649  0  3.575769  0  0  -0.251019  -0.093871  0  3.567704  0
N  N43  1  0.69359743  0.21713043  0.33065707  1  0  -0.151117  0  3.273985  0  0  -0.096001  0  3.570404  0  0  -0.10063  0  3.575728  0  0  -0.25102  -0.093846  0  3.567652  0
