# generated using pymatgen
data_CuH8C13SN3O
_symmetry_space_group_name_H-M   'P 1'
_cell_length_a   5.76760125
_cell_length_b   7.02075864
_cell_length_c   14.46617988
_cell_angle_alpha   89.99982509
_cell_angle_beta   96.68036905
_cell_angle_gamma   90.00071742
_symmetry_Int_Tables_number   1
_chemical_formula_structural   CuH8C13SN3O
_chemical_formula_sum   'Cu2 H16 C26 S2 N6 O2'
_cell_volume   581.80099836
_cell_formula_units_Z   2
loop_
 _symmetry_equiv_pos_site_id
 _symmetry_equiv_pos_as_xyz
  1  'x, y, z'
loop_
 _atom_site_type_symbol
 _atom_site_label
 _atom_site_symmetry_multiplicity
 _atom_site_fract_x
 _atom_site_fract_y
 _atom_site_fract_z
 _atom_site_occupancy
 _atom_site_hle17_bader_spin_density
 _atom_site_hle17_ddec_charge
 _atom_site_hle17_ddec_spin_density
 _atom_site_hle17_ddec_sum_bond_order
 _atom_site_hle17_magmom
 _atom_site_hse06_10hf_bader_spin_density
 _atom_site_hse06_10hf_ddec_charge
 _atom_site_hse06_10hf_ddec_spin_density
 _atom_site_hse06_10hf_ddec_sum_bond_order
 _atom_site_hse06_10hf_magmom
 _atom_site_hse06_bader_spin_density
 _atom_site_hse06_ddec_charge
 _atom_site_hse06_ddec_spin_density
 _atom_site_hse06_ddec_sum_bond_order
 _atom_site_hse06_magmom
 _atom_site_pbe_bader_spin_density
 _atom_site_pbe_cm5_charge
 _atom_site_pbe_ddec_charge
 _atom_site_pbe_ddec_spin_density
 _atom_site_pbe_ddec_sum_bond_order
 _atom_site_pbe_magmom
Cu  Cu0  1  0.15518584  0.91462153  0.92921098  1  0  0.441838  0  2.196466  0  0  0.361171  0  2.698845  0  0  0.346747  0  2.664862  0  0  0.493573  0.375357  0  2.717667  0
Cu  Cu1  1  0.84483555  0.41462563  0.07078771  1  0  0.441783  0  2.19639  0  0  0.361109  0  2.698741  0  0  0.346669  0  2.664748  0  0  0.493549  0.375287  0  2.717659  0
H  H2  1  0.60590838  0.94074167  0.13155225  1  0  0.093656  0  0.989685  0  0  0.104002  0  1.051608  0  0  0.105947  0  1.051726  0  0  0.096093  0.102282  0  1.051938  0
H  H3  1  0.39408174  0.44070640  0.86845124  1  0  0.093673  0  0.989752  0  0  0.104029  0  1.051675  0  0  0.105935  0  1.051839  0  0  0.096125  0.102338  0  1.051965  0
H  H4  1  0.18637552  0.95385281  0.58028618  1  0  0.121731  0  0.948963  0  0  0.126751  0  1.01648  0  0  0.130151  0  1.015111  0  0  0.110674  0.124308  0  1.017681  0
H  H5  1  0.81362153  0.45384883  0.41971342  1  0  0.121725  0  0.948955  0  0  0.126725  0  1.016514  0  0  0.130126  0  1.015143  0  0  0.110667  0.124277  0  1.017722  0
H  H6  1  0.32371585  0.99547062  0.74941963  1  0  0.078629  0  0.958169  0  0  0.086378  0  1.0247  0  0  0.088575  0  1.023863  0  0  0.112506  0.084667  0  1.02556  0
H  H7  1  0.67628650  0.49547131  0.25058078  1  0  0.078611  0  0.958213  0  0  0.086382  0  1.024737  0  0  0.088582  0  1.023897  0  0  0.112503  0.084677  0  1.025599  0
H  H8  1  0.54620551  0.72019200  0.66111172  1  0  0.10981  0  0.96952  0  0  0.116596  0  1.035879  0  0  0.119025  0  1.036766  0  0  0.108291  0.11479  0  1.035527  0
H  H9  1  0.45378953  0.22019831  0.33889188  1  0  0.109827  0  0.969502  0  0  0.116593  0  1.03587  0  0  0.119019  0  1.036761  0  0  0.108276  0.114794  0  1.035516  0
H  H10  1  0.93045224  0.00428465  0.25790301  1  0  0.114872  0  0.975377  0  0  0.123986  0  1.038013  0  0  0.126224  0  1.038858  0  0  0.10339  0.122355  0  1.037513  0
H  H11  1  0.06954766  0.50425775  0.74209725  1  0  0.114757  0  0.975515  0  0  0.123909  0  1.038102  0  0  0.12614  0  1.038964  0  0  0.10338  0.122278  0  1.037577  0
H  H12  1  0.17290273  0.70755607  0.32797646  1  0  0.099519  0  0.985271  0  0  0.108493  0  1.048203  0  0  0.110443  0  1.048916  0  0  0.098079  0.107076  0  1.047846  0
H  H13  1  0.82709222  0.20754781  0.67202302  1  0  0.099482  0  0.98528  0  0  0.108505  0  1.048154  0  0  0.110439  0  1.048887  0  0  0.098101  0.107085  0  1.047804  0
H  H14  1  0.23573647  0.79662121  0.16520754  1  0  0.092135  0  0.970712  0  0  0.099123  0  1.040019  0  0  0.102125  0  1.03929  0  0  0.093695  0.096709  0  1.040867  0
H  H15  1  0.76425861  0.29660017  0.83479240  1  0  0.092099  0  0.970752  0  0  0.099134  0  1.040002  0  0  0.102115  0  1.039294  0  0  0.0937  0.096727  0  1.040837  0
H  H16  1  0.71262466  0.76490805  0.82663864  1  0  0.085931  0  0.941608  0  0  0.096621  0  1.001846  0  0  0.098977  0  1.000278  0  0  0.114668  0.094631  0  1.003339  0
H  H17  1  0.28737744  0.26491562  0.17336584  1  0  0.08596  0  0.94157  0  0  0.09662  0  1.001831  0  0  0.098982  0  1.000263  0  0  0.11467  0.094638  0  1.003329  0
C  C18  1  0.58369678  0.90501308  0.20310418  1  0  -0.049853  0  3.735048  0  0  -0.063929  0  3.98406  0  0  -0.0645  0  4.004956  0  0  -0.089102  -0.063886  0  3.970716  0
C  C19  1  0.41630546  0.40499398  0.79689716  1  0  -0.049799  0  3.735167  0  0  -0.063883  0  3.984176  0  0  -0.064423  0  4.005082  0  0  -0.089058  -0.063863  0  3.970806  0
C  C20  1  0.07492456  0.91246588  0.63271409  1  0  -0.133005  0  3.674916  0  0  -0.158995  0  3.930998  0  0  -0.162883  0  3.947714  0  0  -0.081111  -0.156561  0  3.920081  0
C  C21  1  0.92507419  0.41246265  0.36728639  1  0  -0.133011  0  3.674906  0  0  -0.158993  0  3.930967  0  0  -0.162879  0  3.947682  0  0  -0.081082  -0.156545  0  3.920063  0
C  C22  1  0.33150021  0.52794610  0.02378929  1  0  0.287124  0  3.950783  0  0  0.281322  0  4.242884  0  0  0.296836  0  4.25576  0  0  0.146024  0.271171  0  4.233548  0
C  C23  1  0.66852397  0.02794303  0.97620158  1  0  0.287207  0  3.950571  0  0  0.28141  0  4.242687  0  0  0.29692  0  4.255571  0  0  0.146014  0.271257  0  4.233318  0
C  C24  1  0.72676622  0.88924115  0.36226986  1  0  0.175324  0  3.77823  0  0  0.164587  0  4.035659  0  0  0.17113  0  4.053599  0  0  0.079195  0.160141  0  4.023524  0
C  C25  1  0.27322726  0.38922090  0.63773046  1  0  0.175291  0  3.778036  0  0  0.164586  0  4.035451  0  0  0.171126  0  4.053389  0  0  0.079254  0.160136  0  4.023309  0
C  C26  1  0.15287899  0.93407820  0.72666605  1  0  0.11581  0  3.694181  0  0  0.089963  0  3.948297  0  0  0.096262  0  3.962007  0  0  0.042042  0.085709  0  3.939574  0
C  C27  1  0.84712330  0.43407928  0.27333591  1  0  0.115806  0  3.694271  0  0  0.089929  0  3.948368  0  0  0.096229  0  3.962076  0  0  0.042046  0.085672  0  3.939658  0
C  C28  1  0.71939340  0.78104178  0.67815156  1  0  -0.125176  0  3.69725  0  0  -0.14436  0  3.940602  0  0  -0.150166  0  3.961793  0  0  -0.073944  -0.14059  0  3.926783  0
C  C29  1  0.28060169  0.28104337  0.32184980  1  0  -0.125353  0  3.69735  0  0  -0.144535  0  3.940709  0  0  -0.150333  0  3.9619  0  0  -0.07405  -0.140759  0  3.92691  0
C  C30  1  0.76670698  0.94146812  0.27301765  1  0  -0.17302  0  3.761267  0  0  -0.192894  0  4.013361  0  0  -0.197242  0  4.034274  0  0  -0.100398  -0.189883  0  3.99945  0
C  C31  1  0.23328839  0.44143705  0.72698675  1  0  -0.17292  0  3.761247  0  0  -0.192837  0  4.013329  0  0  -0.197182  0  4.034228  0  0  -0.100456  -0.189821  0  3.99941  0
C  C32  1  0.85012830  0.83854255  0.60704841  1  0  0.033757  0  3.785367  0  0  0.046226  0  4.019331  0  0  0.048467  0  4.03681  0  0  0.009435  0.044457  0  4.007704  0
C  C33  1  0.14986685  0.33854299  0.39295211  1  0  0.033927  0  3.785232  0  0  0.046431  0  4.019181  0  0  0.048666  0  4.036659  0  0  0.009467  0.044641  0  4.007586  0
C  C34  1  0.33632920  0.77061635  0.31284524  1  0  -0.126981  0  3.731399  0  0  -0.146309  0  3.978305  0  0  -0.148192  0  4.000055  0  0  -0.093119  -0.144883  0  3.963559  0
C  C35  1  0.66366585  0.27059925  0.68715546  1  0  -0.126882  0  3.731249  0  0  -0.146246  0  3.978152  0  0  -0.148116  0  3.999904  0  0  -0.093153  -0.144828  0  3.963414  0
C  C36  1  0.51793511  0.80482091  0.38385152  1  0  0.117359  0  3.856697  0  0  0.119433  0  4.108911  0  0  0.11969  0  4.132019  0  0  0.076737  0.11935  0  4.093198  0
C  C37  1  0.48205653  0.30481180  0.61615032  1  0  0.117411  0  3.856637  0  0  0.119483  0  4.108838  0  0  0.119742  0  4.131944  0  0  0.076772  0.1194  0  4.093123  0
C  C38  1  0.74602325  0.83068348  0.51107234  1  0  0.373929  0  3.705553  0  0  0.340042  0  3.993624  0  0  0.359809  0  3.995925  0  0  0.218735  0.32693  0  3.991834  0
C  C39  1  0.25397188  0.33067869  0.48892751  1  0  0.37381  0  3.705684  0  0  0.339853  0  3.993858  0  0  0.359616  0  3.996159  0  0  0.21866  0.326742  0  3.992075  0
C  C40  1  0.37276876  0.82151723  0.22254792  1  0  -0.081744  0  3.764879  0  0  -0.096635  0  4.018801  0  0  -0.100331  0  4.041342  0  0  -0.097144  -0.094329  0  4.004282  0
C  C41  1  0.62722288  0.32148937  0.77745249  1  0  -0.081836  0  3.765  0  0  -0.09679  0  4.018979  0  0  -0.100463  0  4.041514  0  0  -0.097228  -0.094492  0  4.004456  0
C  C42  1  0.81167887  0.80610828  0.77011942  1  0  0.109866  0  3.706022  0  0  0.083638  0  3.95596  0  0  0.089741  0  3.970544  0  0  0.040239  0.07937  0  3.946943  0
C  C43  1  0.18831802  0.30610393  0.22988334  1  0  0.109872  0  3.706005  0  0  0.083686  0  3.955898  0  0  0.089781  0  3.970487  0  0  0.040284  0.079415  0  3.946905  0
S  S44  1  0.06796874  0.60385368  0.98634737  1  0  -0.332815  0  2.713898  0  0  -0.3114  0  3.167554  0  0  -0.311927  0  3.142308  0  0  -0.17835  -0.311497  0  3.182801  0
S  S45  1  0.93205040  0.10385523  0.01364791  1  0  -0.332833  0  2.713918  0  0  -0.311415  0  3.167537  0  0  -0.311938  0  3.142296  0  0  -0.178342  -0.311506  0  3.182757  0
N  N46  1  0.02416396  0.88417777  0.79519748  1  0  -0.288772  0  3.359514  0  0  -0.222874  0  3.653975  0  0  -0.228436  0  3.658602  0  0  -0.358614  -0.22029  0  3.651145  0
N  N47  1  0.97583650  0.38418138  0.20480384  1  0  -0.288739  0  3.359414  0  0  -0.222834  0  3.653844  0  0  -0.228397  0  3.65847  0  0  -0.358589  -0.220253  0  3.651061  0
N  N48  1  0.53744450  0.76946304  0.47914825  1  0  -0.398185  0  2.917074  0  0  -0.381601  0  3.189829  0  0  -0.391692  0  3.199084  0  0  -0.323228  -0.374853  0  3.183463  0
N  N49  1  0.46254882  0.26945224  0.52085307  1  0  -0.398202  0  2.917134  0  0  -0.381597  0  3.189904  0  0  -0.391688  0  3.199161  0  0  -0.323194  -0.374835  0  3.183525  0
N  N50  1  0.52306361  0.47467732  0.04868148  1  0  -0.487919  0  3.115787  0  0  -0.443153  0  3.441172  0  0  -0.451803  0  3.441697  0  0  -0.432006  -0.437775  0  3.439485  0
N  N51  1  0.47695078  0.97467936  0.95131121  1  0  -0.487995  0  3.115593  0  0  -0.443236  0  3.441023  0  0  -0.451892  0  3.441563  0  0  -0.432029  -0.437851  0  3.439272  0
O  O52  1  0.87424044  0.90551996  0.44397304  1  0  -0.253781  0  2.273347  0  0  -0.18614  0  2.495092  0  0  -0.20292  0  2.496831  0  0  -0.116338  -0.174722  0  2.493598  0
O  O53  1  0.12575482  0.40550980  0.55602800  1  0  -0.253712  0  2.273339  0  0  -0.18606  0  2.495097  0  0  -0.202833  0  2.496831  0  0  -0.116307  -0.174644  0  2.4936  0
