# generated using pymatgen
data_MgH6C5(NO3)2
_symmetry_space_group_name_H-M   'P 1'
_cell_length_a   6.03387755
_cell_length_b   6.27877756
_cell_length_c   19.76621401
_cell_angle_alpha   92.26225788
_cell_angle_beta   90.00005747
_cell_angle_gamma   89.99983703
_symmetry_Int_Tables_number   1
_chemical_formula_structural   MgH6C5(NO3)2
_chemical_formula_sum   'Mg4 H24 C20 N8 O24'
_cell_volume   748.26678584
_cell_formula_units_Z   4
loop_
 _symmetry_equiv_pos_site_id
 _symmetry_equiv_pos_as_xyz
  1  'x, y, z'
loop_
 _atom_site_type_symbol
 _atom_site_label
 _atom_site_symmetry_multiplicity
 _atom_site_fract_x
 _atom_site_fract_y
 _atom_site_fract_z
 _atom_site_occupancy
 _atom_site_hle17_bader_spin_density
 _atom_site_hle17_ddec_charge
 _atom_site_hle17_ddec_spin_density
 _atom_site_hle17_ddec_sum_bond_order
 _atom_site_hle17_magmom
 _atom_site_hse06_10hf_bader_spin_density
 _atom_site_hse06_10hf_ddec_charge
 _atom_site_hse06_10hf_ddec_spin_density
 _atom_site_hse06_10hf_ddec_sum_bond_order
 _atom_site_hse06_10hf_magmom
 _atom_site_hse06_bader_spin_density
 _atom_site_hse06_ddec_charge
 _atom_site_hse06_ddec_spin_density
 _atom_site_hse06_ddec_sum_bond_order
 _atom_site_hse06_magmom
 _atom_site_pbe_bader_spin_density
 _atom_site_pbe_cm5_charge
 _atom_site_pbe_ddec_charge
 _atom_site_pbe_ddec_spin_density
 _atom_site_pbe_ddec_sum_bond_order
 _atom_site_pbe_magmom
Mg  Mg0  1  0.15803318  0.57592082  0.79929305  1  0  1.484361  0  1.127389  0  0  1.366434  0  1.392937  0  0  1.391027  0  1.355597  0  0  0.835866  1.349301  0  1.41861  0
Mg  Mg1  1  0.65802349  0.42408136  0.70070703  1  0  1.48431  0  1.127506  0  0  1.366471  0  1.39292  0  0  1.391048  0  1.35561  0  0  0.835861  1.349344  0  1.418582  0
Mg  Mg2  1  0.84196741  0.42407814  0.20070737  1  0  1.484407  0  1.127336  0  0  1.366473  0  1.392889  0  0  1.39107  0  1.355543  0  0  0.835898  1.349329  0  1.418579  0
Mg  Mg3  1  0.34197046  0.57592078  0.29929343  1  0  1.484447  0  1.127279  0  0  1.366487  0  1.392891  0  0  1.391079  0  1.355562  0  0  0.835896  1.349359  0  1.418552  0
H  H4  1  0.71988927  0.69750352  0.99812518  1  0  0.146229  0  0.928411  0  0  0.153699  0  0.988656  0  0  0.157909  0  0.986275  0  0  0.118406  0.150679  0  0.990543  0
H  H5  1  0.21988552  0.30250168  0.50187750  1  0  0.146203  0  0.928489  0  0  0.15368  0  0.988714  0  0  0.157889  0  0.986336  0  0  0.118404  0.150662  0  0.9906  0
H  H6  1  0.28011131  0.30249703  0.00187476  1  0  0.146241  0  0.928394  0  0  0.153711  0  0.988643  0  0  0.15792  0  0.986261  0  0  0.118413  0.15069  0  0.990531  0
H  H7  1  0.78010678  0.69750046  0.49812347  1  0  0.146197  0  0.928491  0  0  0.153651  0  0.988757  0  0  0.157861  0  0.986376  0  0  0.118389  0.150633  0  0.990645  0
H  H8  1  0.14530113  0.87615987  0.70444832  1  0  0.441599  0  0.851849  0  0  0.406997  0  0.919122  0  0  0.418708  0  0.901946  0  0  0.299791  0.39872  0  0.931259  0
H  H9  1  0.64530424  0.12384075  0.79555124  1  0  0.441606  0  0.85184  0  0  0.406984  0  0.919144  0  0  0.418697  0  0.901964  0  0  0.29982  0.398707  0  0.931281  0
H  H10  1  0.85470277  0.12383909  0.29555160  1  0  0.44159  0  0.851857  0  0  0.406989  0  0.919132  0  0  0.418701  0  0.901953  0  0  0.299788  0.398711  0  0.931268  0
H  H11  1  0.35469635  0.87615821  0.20444817  1  0  0.441596  0  0.851854  0  0  0.406978  0  0.919154  0  0  0.41869  0  0.901974  0  0  0.299809  0.3987  0  0.93129  0
H  H12  1  0.17167859  0.00981779  0.77565202  1  0  0.445422  0  0.84004  0  0  0.415202  0  0.900718  0  0  0.425695  0  0.885171  0  0  0.304119  0.407729  0  0.911814  0
H  H13  1  0.67167065  0.99017798  0.72434698  1  0  0.445399  0  0.840057  0  0  0.415184  0  0.90073  0  0  0.425676  0  0.885183  0  0  0.304102  0.407709  0  0.911829  0
H  H14  1  0.82832531  0.99018117  0.22434739  1  0  0.445422  0  0.840034  0  0  0.415202  0  0.900714  0  0  0.425695  0  0.885167  0  0  0.304117  0.407727  0  0.911811  0
H  H15  1  0.32832994  0.00982098  0.27565243  1  0  0.445415  0  0.840037  0  0  0.415198  0  0.900712  0  0  0.42569  0  0.885165  0  0  0.304117  0.407722  0  0.911811  0
H  H16  1  0.06413069  0.20472772  0.86342873  1  0  0.433869  0  0.868055  0  0  0.400196  0  0.935422  0  0  0.41143  0  0.919087  0  0  0.295923  0.392274  0  0.946942  0
H  H17  1  0.56412137  0.79527472  0.63657032  1  0  0.433869  0  0.868059  0  0  0.400208  0  0.935411  0  0  0.411442  0  0.919076  0  0  0.29596  0.392283  0  0.946937  0
H  H18  1  0.93587155  0.79527442  0.13657021  1  0  0.433831  0  0.868091  0  0  0.400157  0  0.935464  0  0  0.411392  0  0.919128  0  0  0.295934  0.392235  0  0.946983  0
H  H19  1  0.43588087  0.20472583  0.36342911  1  0  0.433834  0  0.868076  0  0  0.40016  0  0.935441  0  0  0.411394  0  0.919108  0  0  0.295947  0.392239  0  0.946961  0
H  H20  1  0.32468449  0.22908147  0.85610468  1  0  0.432691  0  0.872154  0  0  0.396258  0  0.944829  0  0  0.407314  0  0.928787  0  0  0.298658  0.38847  0  0.956107  0
H  H21  1  0.82467527  0.77091866  0.64389442  1  0  0.43266  0  0.872215  0  0  0.396289  0  0.9448  0  0  0.407345  0  0.928758  0  0  0.298673  0.388497  0  0.956086  0
H  H22  1  0.67532107  0.77091589  0.14389471  1  0  0.432724  0  0.872121  0  0  0.396298  0  0.944781  0  0  0.407354  0  0.928738  0  0  0.298679  0.38851  0  0.956059  0
H  H23  1  0.17532863  0.22908349  0.35610503  1  0  0.432663  0  0.872209  0  0  0.396288  0  0.944798  0  0  0.407345  0  0.928756  0  0  0.29868  0.388497  0  0.956083  0
H  H24  1  0.05779400  0.85075832  0.95065889  1  0  0.30725  0  0.894519  0  0  0.280109  0  0.97028  0  0  0.28913  0  0.962122  0  0  0.331418  0.273696  0  0.976195  0
H  H25  1  0.55779291  0.14923776  0.54933806  1  0  0.307202  0  0.894561  0  0  0.280057  0  0.970357  0  0  0.289079  0  0.962198  0  0  0.331379  0.273644  0  0.976273  0
H  H26  1  0.94220659  0.14924223  0.04934004  1  0  0.307248  0  0.894505  0  0  0.280129  0  0.970238  0  0  0.289151  0  0.962078  0  0  0.331415  0.273716  0  0.976154  0
H  H27  1  0.44219773  0.85075961  0.45066285  1  0  0.30723  0  0.894515  0  0  0.280115  0  0.970256  0  0  0.289136  0  0.962096  0  0  0.331441  0.273703  0  0.976173  0
C  C28  1  0.51479549  0.67559681  0.90325434  1  0  0.038233  0  3.764237  0  0  0.034444  0  4.02991  0  0  0.033358  0  4.046796  0  0  0.09231  0.035163  0  4.018659  0
C  C29  1  0.01479033  0.32440417  0.59674670  1  0  0.038179  0  3.764188  0  0  0.034345  0  4.029905  0  0  0.033256  0  4.046805  0  0  0.092266  0.035065  0  4.018656  0
C  C30  1  0.48520675  0.32440215  0.09674507  1  0  0.038182  0  3.764228  0  0  0.034389  0  4.029935  0  0  0.033304  0  4.046818  0  0  0.092283  0.035109  0  4.018683  0
C  C31  1  0.98520363  0.67559638  0.40325375  1  0  0.038164  0  3.764336  0  0  0.034391  0  4.029959  0  0  0.033313  0  4.046845  0  0  0.092275  0.035113  0  4.018708  0
C  C32  1  0.56338619  0.71636503  0.97216343  1  0  -0.178855  0  3.671339  0  0  -0.217321  0  3.941478  0  0  -0.221595  0  3.9597  0  0  -0.090866  -0.214522  0  3.929628  0
C  C33  1  0.06338424  0.28363422  0.52783811  1  0  -0.178866  0  3.671467  0  0  -0.21731  0  3.941589  0  0  -0.221589  0  3.959819  0  0  -0.090853  -0.214513  0  3.929745  0
C  C34  1  0.43661439  0.28363392  0.02783750  1  0  -0.178844  0  3.671363  0  0  -0.217302  0  3.941506  0  0  -0.221576  0  3.959729  0  0  -0.090854  -0.214505  0  3.929659  0
C  C35  1  0.93660475  0.71635996  0.47216276  1  0  -0.178782  0  3.671263  0  0  -0.217223  0  3.941405  0  0  -0.221498  0  3.959625  0  0  -0.090844  -0.214428  0  3.92956  0
C  C36  1  0.36270592  0.78339479  0.00104635  1  0  0.037522  0  3.714436  0  0  0.025842  0  3.979332  0  0  0.026275  0  3.996999  0  0  0.09169  0.025533  0  3.967666  0
C  C37  1  0.86270777  0.21660726  0.49895399  1  0  0.037575  0  3.714212  0  0  0.02593  0  3.979109  0  0  0.026364  0  3.996774  0  0  0.091705  0.025618  0  3.967447  0
C  C38  1  0.63729300  0.21660417  0.99895357  1  0  0.037562  0  3.714355  0  0  0.025891  0  3.979279  0  0  0.026323  0  3.996947  0  0  0.09171  0.025579  0  3.967615  0
C  C39  1  0.13729282  0.78339010  0.50104591  1  0  0.037489  0  3.714361  0  0  0.025769  0  3.979356  0  0  0.0262  0  3.997025  0  0  0.091727  0.025461  0  3.967692  0
C  C40  1  0.64699905  0.60363097  0.84346491  1  0  0.712365  0  3.868219  0  0  0.654383  0  4.167722  0  0  0.6901  0  4.154233  0  0  0.241111  0.630128  0  4.176461  0
C  C41  1  0.14697895  0.39636965  0.65653819  1  0  0.712478  0  3.867897  0  0  0.654551  0  4.167365  0  0  0.690255  0  4.153897  0  0  0.2412  0.630295  0  4.176107  0
C  C42  1  0.35300485  0.39636161  0.15653645  1  0  0.712474  0  3.86802  0  0  0.65446  0  4.167588  0  0  0.69018  0  4.1541  0  0  0.241165  0.630205  0  4.176325  0
C  C43  1  0.85302329  0.60363728  0.34346233  1  0  0.712353  0  3.867807  0  0  0.654432  0  4.167228  0  0  0.69013  0  4.153765  0  0  0.241167  0.630175  0  4.175965  0
C  C44  1  0.28783038  0.84363473  0.07087141  1  0  0.645437  0  3.957398  0  0  0.588795  0  4.265059  0  0  0.621906  0  4.256875  0  0  0.217025  0.566375  0  4.269978  0
C  C45  1  0.78783549  0.15636275  0.42912733  1  0  0.645422  0  3.95724  0  0  0.588763  0  4.264949  0  0  0.621874  0  4.256762  0  0  0.216995  0.566344  0  4.26987  0
C  C46  1  0.71216689  0.15636582  0.92912752  1  0  0.645422  0  3.957382  0  0  0.588739  0  4.265111  0  0  0.621848  0  4.256929  0  0  0.217026  0.566319  0  4.270029  0
C  C47  1  0.21215847  0.84363302  0.57087355  1  0  0.645487  0  3.956891  0  0  0.588889  0  4.264546  0  0  0.621998  0  4.256363  0  0  0.217058  0.566468  0  4.269469  0
N  N48  1  0.29852819  0.71433047  0.89119431  1  0  -0.296716  0  3.123712  0  0  -0.268729  0  3.389574  0  0  -0.273605  0  3.402894  0  0  -0.267091  -0.265223  0  3.380615  0
N  N49  1  0.79851695  0.28567133  0.60880683  1  0  -0.296737  0  3.123484  0  0  -0.268714  0  3.389348  0  0  -0.273593  0  3.402675  0  0  -0.267047  -0.265204  0  3.380387  0
N  N50  1  0.70147571  0.28567008  0.10880512  1  0  -0.296726  0  3.123684  0  0  -0.268727  0  3.389551  0  0  -0.273603  0  3.402869  0  0  -0.26706  -0.265217  0  3.380589  0
N  N51  1  0.20147866  0.71433560  0.39119723  1  0  -0.29676  0  3.123722  0  0  -0.268737  0  3.38958  0  0  -0.273615  0  3.4029  0  0  -0.266986  -0.265225  0  3.380616  0
N  N52  1  0.21100901  0.77859086  0.95006442  1  0  -0.113709  0  3.48483  0  0  -0.060707  0  3.72185  0  0  -0.070232  0  3.737372  0  0  -0.254037  -0.054329  0  3.711531  0
N  N53  1  0.71100274  0.22141118  0.54993467  1  0  -0.113654  0  3.484519  0  0  -0.060724  0  3.72163  0  0  -0.070251  0  3.737153  0  0  -0.254052  -0.054346  0  3.711312  0
N  N54  1  0.78898992  0.22141288  0.04993505  1  0  -0.113716  0  3.48477  0  0  -0.060746  0  3.721807  0  0  -0.070271  0  3.737327  0  0  -0.254064  -0.054369  0  3.711488  0
N  N55  1  0.28899121  0.77858937  0.45006678  1  0  -0.113589  0  3.484998  0  0  -0.060661  0  3.722116  0  0  -0.070182  0  3.737636  0  0  -0.25413  -0.054287  0  3.711799  0
O  O56  1  0.53149785  0.55057585  0.79042823  1  0  -0.77189  0  2.054199  0  0  -0.699046  0  2.294588  0  0  -0.722627  0  2.279201  0  0  -0.354631  -0.682907  0  2.304915  0
O  O57  1  0.03147778  0.44942349  0.70957330  1  0  -0.771841  0  2.054028  0  0  -0.699028  0  2.294426  0  0  -0.722577  0  2.279021  0  0  -0.354644  -0.682888  0  2.304749  0
O  O58  1  0.46850605  0.44942152  0.20957268  1  0  -0.771943  0  2.054212  0  0  -0.699032  0  2.294579  0  0  -0.722628  0  2.279207  0  0  -0.354611  -0.682896  0  2.304915  0
O  O59  1  0.96851949  0.55058024  0.29042718  1  0  -0.771805  0  2.054099  0  0  -0.698973  0  2.29449  0  0  -0.722524  0  2.279092  0  0  -0.3546  -0.682836  0  2.304823  0
O  O60  1  0.85487202  0.60104567  0.84705551  1  0  -0.678111  0  1.998421  0  0  -0.626489  0  2.245569  0  0  -0.648053  0  2.231287  0  0  -0.332643  -0.611707  0  2.255086  0
O  O61  1  0.35486019  0.39895597  0.65294868  1  0  -0.678189  0  1.998234  0  0  -0.62663  0  2.245408  0  0  -0.648156  0  2.231062  0  0  -0.332729  -0.611845  0  2.254925  0
O  O62  1  0.14512857  0.39893416  0.15294720  1  0  -0.678194  0  1.998325  0  0  -0.626573  0  2.245487  0  0  -0.648134  0  2.231199  0  0  -0.332753  -0.611786  0  2.255003  0
O  O63  1  0.64513211  0.60105733  0.34704939  1  0  -0.678225  0  1.997966  0  0  -0.626642  0  2.245109  0  0  -0.648203  0  2.230837  0  0  -0.332815  -0.611856  0  2.254626  0
O  O64  1  0.16338247  0.86533155  0.75422000  1  0  -0.916233  0  1.838578  0  0  -0.861301  0  2.02906  0  0  -0.878178  0  1.993536  0  0  -0.618386  -0.849458  0  2.053922  0
O  O65  1  0.66337710  0.13466583  0.74577952  1  0  -0.916192  0  1.83859  0  0  -0.861277  0  2.029078  0  0  -0.878155  0  1.993559  0  0  -0.618389  -0.849447  0  2.053963  0
O  O66  1  0.83661811  0.13466740  0.24578042  1  0  -0.916213  0  1.838576  0  0  -0.861288  0  2.029058  0  0  -0.878164  0  1.99353  0  0  -0.618375  -0.849446  0  2.053926  0
O  O67  1  0.33662183  0.86533472  0.25421991  1  0  -0.916204  0  1.83856  0  0  -0.86127  0  2.029063  0  0  -0.878147  0  1.993542  0  0  -0.618382  -0.849439  0  2.053947  0
O  O68  1  0.18211273  0.25884327  0.83247217  1  0  -0.904992  0  1.873224  0  0  -0.843812  0  2.060477  0  0  -0.863906  0  2.027206  0  0  -0.5935  -0.829625  0  2.083645  0
O  O69  1  0.68210368  0.74115565  0.66752636  1  0  -0.904967  0  1.873349  0  0  -0.843854  0  2.060489  0  0  -0.863946  0  2.027214  0  0  -0.593544  -0.829663  0  2.083665  0
O  O70  1  0.81789282  0.74115409  0.16752772  1  0  -0.904999  0  1.873253  0  0  -0.84382  0  2.060496  0  0  -0.863911  0  2.027221  0  0  -0.593533  -0.829629  0  2.083663  0
O  O71  1  0.31789856  0.25884808  0.33247311  1  0  -0.904921  0  1.873295  0  0  -0.843781  0  2.060491  0  0  -0.86387  0  2.027216  0  0  -0.593543  -0.829591  0  2.08366  0
O  O72  1  0.42379777  0.83417003  0.11949551  1  0  -0.624054  0  2.049481  0  0  -0.555931  0  2.268585  0  0  -0.582724  0  2.260888  0  0  -0.295682  -0.537316  0  2.273563  0
O  O73  1  0.92381263  0.16582548  0.38050324  1  0  -0.623997  0  2.049265  0  0  -0.555966  0  2.268448  0  0  -0.582762  0  2.260751  0  0  -0.295639  -0.537348  0  2.273426  0
O  O74  1  0.57620613  0.16582734  0.88050286  1  0  -0.624067  0  2.049579  0  0  -0.555906  0  2.268691  0  0  -0.5827  0  2.260997  0  0  -0.295701  -0.537293  0  2.27367  0
O  O75  1  0.07619293  0.83417666  0.61949924  1  0  -0.624075  0  2.049252  0  0  -0.556036  0  2.268395  0  0  -0.582833  0  2.2607  0  0  -0.295714  -0.537418  0  2.273375  0
O  O76  1  0.08509335  0.89779857  0.07638015  1  0  -0.640444  0  1.992273  0  0  -0.589045  0  2.227627  0  0  -0.611966  0  2.216077  0  0  -0.319504  -0.572998  0  2.235204  0
O  O77  1  0.58510688  0.10220105  0.42361704  1  0  -0.640499  0  1.992514  0  0  -0.589016  0  2.227808  0  0  -0.611935  0  2.216258  0  0  -0.319479  -0.572969  0  2.235384  0
O  O78  1  0.91491055  0.10220516  0.92361882  1  0  -0.640429  0  1.992215  0  0  -0.589019  0  2.227598  0  0  -0.611935  0  2.216047  0  0  -0.319474  -0.572971  0  2.235173  0
O  O79  1  0.41489868  0.89779631  0.57638033  1  0  -0.640423  0  1.992172  0  0  -0.588984  0  2.227471  0  0  -0.611909  0  2.215926  0  0  -0.319463  -0.572934  0  2.235049  0
