# generated using pymatgen
data_TbAgH14C18(N2O5)2
_symmetry_space_group_name_H-M   'P 1'
_cell_length_a   9.63345864
_cell_length_b   10.78715159
_cell_length_c   12.49905651
_cell_angle_alpha   65.33909098
_cell_angle_beta   76.68563891
_cell_angle_gamma   65.09516658
_symmetry_Int_Tables_number   1
_chemical_formula_structural   TbAgH14C18(N2O5)2
_chemical_formula_sum   'Tb2 Ag2 H28 C36 N8 O20'
_cell_volume   1068.28773869
_cell_formula_units_Z   2
loop_
 _symmetry_equiv_pos_site_id
 _symmetry_equiv_pos_as_xyz
  1  'x, y, z'
loop_
 _atom_site_type_symbol
 _atom_site_label
 _atom_site_symmetry_multiplicity
 _atom_site_fract_x
 _atom_site_fract_y
 _atom_site_fract_z
 _atom_site_occupancy
 _atom_site_pbe_bader_spin_density
 _atom_site_pbe_cm5_charge
 _atom_site_pbe_ddec_charge
 _atom_site_pbe_ddec_spin_density
 _atom_site_pbe_ddec_sum_bond_order
 _atom_site_pbe_magmom
Tb  Tb0  1  0.34410597  0.81754783  0.47159543  1  0  1.473494  1.988753  0  2.155116  0
Tb  Tb1  1  0.65588296  0.18246527  0.52840556  1  0  1.473552  1.988629  0  2.155246  0
Ag  Ag2  1  0.97810238  0.33087949  0.84403652  1  0  0.473682  0.329084  0  1.8672  0
Ag  Ag3  1  0.02190658  0.66911142  0.15597835  1  0  0.473664  0.329115  0  1.867174  0
H  H4  1  0.40552844  0.61820316  0.15683813  1  0  0.108334  0.119174  0  0.997005  0
H  H5  1  0.59447429  0.38178149  0.84316246  1  0  0.108252  0.11908  0  0.997039  0
H  H6  1  0.38449520  0.64124076  0.95280696  1  0  0.110025  0.129953  0  0.990079  0
H  H7  1  0.61550746  0.35875262  0.04719055  1  0  0.110005  0.129879  0  0.990129  0
H  H8  1  0.08077302  0.13519177  0.66898507  1  0  0.143711  0.112649  0  1.000992  0
H  H9  1  0.91924005  0.86481668  0.33101326  1  0  0.143697  0.112641  0  1.000949  0
H  H10  1  0.14038011  0.07932940  0.07818516  1  0  0.106569  0.112445  0  1.026242  0
H  H11  1  0.85962912  0.92065506  0.92182394  1  0  0.106577  0.112451  0  1.026149  0
H  H12  1  0.63464720  0.67972724  0.24079397  1  0  0.11212  0.119686  0  1.027781  0
H  H13  1  0.36534681  0.32028366  0.75920369  1  0  0.112138  0.119663  0  1.027816  0
H  H14  1  0.62794392  0.86528034  0.03838780  1  0  0.108037  0.127387  0  0.996994  0
H  H15  1  0.37205077  0.13472297  0.96160763  1  0  0.108058  0.127404  0  0.997049  0
H  H16  1  0.84562145  0.69364477  0.69509884  1  0  0.151654  0.123123  0  0.956875  0
H  H17  1  0.15440088  0.30634173  0.30490560  1  0  0.151648  0.123116  0  0.956882  0
H  H18  1  0.86612581  0.32470047  0.11030449  1  0  0.10551  0.111869  0  1.034303  0
H  H19  1  0.13387516  0.67530040  0.88970508  1  0  0.105493  0.111821  0  1.034286  0
H  H20  1  0.23348235  0.86003768  0.73916645  1  0  0.321558  0.310954  0  0.977114  0
H  H21  1  0.76652071  0.13996326  0.26083472  1  0  0.321558  0.310926  0  0.977137  0
H  H22  1  0.72315395  0.88149798  0.79553914  1  0  0.321364  0.314693  0  0.973569  0
H  H23  1  0.27686077  0.11849743  0.20445711  1  0  0.321422  0.314783  0  0.973593  0
H  H24  1  0.61366046  0.57772326  0.42152139  1  0  0.300224  0.407016  0  0.928733  0
H  H25  1  0.38631802  0.42229776  0.57846667  1  0  0.300212  0.406964  0  0.928846  0
H  H26  1  0.67958932  0.61449994  0.50310249  1  0  0.300284  0.406451  0  0.911932  0
H  H27  1  0.32040734  0.38552094  0.49687676  1  0  0.300235  0.406369  0  0.912058  0
H  H28  1  0.90020680  0.41264007  0.54911948  1  0  0.3124  0.393004  0  0.895902  0
H  H29  1  0.09978221  0.58734403  0.45085416  1  0  0.312346  0.392898  0  0.896025  0
H  H30  1  0.76047979  0.40428011  0.63662255  1  0  0.289649  0.383837  0  0.955525  0
H  H31  1  0.23951883  0.59572980  0.36336183  1  0  0.289673  0.383838  0  0.955548  0
C  C32  1  0.30124352  0.83019254  0.24652768  1  0  0.201799  0.579472  0  4.204175  0
C  C33  1  0.69876633  0.16979307  0.75347530  1  0  0.201846  0.579666  0  4.203988  0
C  C34  1  0.27658239  0.84714248  0.12746480  1  0  -0.029439  -0.061259  0  4.024705  0
C  C35  1  0.72342227  0.15283989  0.87254186  1  0  -0.029414  -0.061436  0  4.024315  0
C  C36  1  0.34202605  0.72359438  0.09305659  1  0  -0.090192  -0.10575  0  4.02699  0
C  C37  1  0.65797414  0.27639137  0.90694647  1  0  -0.09004  -0.105546  0  4.026784  0
C  C38  1  0.33137028  0.73572137  0.97990726  1  0  -0.095317  -0.169818  0  4.001401  0
C  C39  1  0.66863389  0.26427087  0.02009359  1  0  -0.095322  -0.169763  0  4.001373  0
C  C40  1  0.24858149  0.87482764  0.90261084  1  0  0.104631  0.155551  0  4.00332  0
C  C41  1  0.75142082  0.12516677  0.09739278  1  0  0.104646  0.155593  0  4.003279  0
C  C42  1  0.12631709  0.07020205  0.75552267  1  0  0.174325  0.206688  0  3.864067  0
C  C43  1  0.87369110  0.92979661  0.24448159  1  0  0.174296  0.206704  0  3.863928  0
C  C44  1  0.18038312  0.99897036  0.93670237  1  0  0.081046  0.120659  0  4.057917  0
C  C45  1  0.81961894  0.00102183  0.06330447  1  0  0.081086  0.120638  0  4.057979  0
C  C46  1  0.19393244  0.98576809  0.04985279  1  0  -0.08521  -0.164552  0  3.973786  0
C  C47  1  0.80607208  0.01421752  0.95015594  1  0  -0.085239  -0.164421  0  3.973394  0
C  C48  1  0.72985781  0.38450865  0.30656204  1  0  0.205164  0.588419  0  4.183532  0
C  C49  1  0.27014538  0.61549769  0.69344200  1  0  0.205155  0.588183  0  4.183639  0
C  C50  1  0.74665273  0.49233047  0.18667959  1  0  -0.026662  -0.054526  0  4.003022  0
C  C51  1  0.25334509  0.50767598  0.81332217  1  0  -0.026696  -0.054525  0  4.00312  0
C  C52  1  0.68409843  0.64417650  0.16630438  1  0  -0.090019  -0.106291  0  4.008755  0
C  C53  1  0.31589639  0.35583222  0.83369311  1  0  -0.089973  -0.106242  0  4.008766  0
C  C54  1  0.68019315  0.74873194  0.05334700  1  0  -0.093792  -0.17103  0  4.016558  0
C  C55  1  0.31979982  0.25127029  0.94664992  1  0  -0.093824  -0.171012  0  4.016621  0
C  C56  1  0.74246882  0.69766251  0.96020480  1  0  0.099157  0.146807  0  4.022632  0
C  C57  1  0.25752901  0.30233526  0.03979523  1  0  0.099157  0.146752  0  4.022599  0
C  C58  1  0.82407082  0.66572475  0.78988643  1  0  0.179093  0.211819  0  3.867658  0
C  C59  1  0.17594277  0.33426514  0.21011757  1  0  0.179115  0.211808  0  3.867705  0
C  C60  1  0.80995832  0.54569483  0.97958283  1  0  0.081259  0.121359  0  4.060812  0
C  C61  1  0.19003888  0.45430180  0.02042171  1  0  0.081249  0.121347  0  4.060606  0
C  C62  1  0.81408089  0.44180648  0.09346489  1  0  -0.086129  -0.169018  0  3.972543  0
C  C63  1  0.18591940  0.55819336  0.90654117  1  0  -0.086187  -0.169037  0  3.972518  0
C  C64  1  0.02209954  0.05822754  0.50646300  1  0  0.207519  0.501488  0  4.229076  0
C  C65  1  0.97787354  0.94178798  0.49353597  1  0  0.207638  0.501684  0  4.228904  0
C  C66  1  0.49646491  0.04652209  0.43291929  1  0  0.210913  0.507977  0  4.232443  0
C  C67  1  0.50352360  0.95350076  0.56708472  1  0  0.210936  0.507858  0  4.232496  0
N  N68  1  0.10554158  0.11982644  0.84174251  1  0  -0.379364  -0.304461  0  3.621593  0
N  N69  1  0.89446716  0.88016786  0.15826240  1  0  -0.379381  -0.304564  0  3.621613  0
N  N70  1  0.21071105  0.92477122  0.78839438  1  0  -0.363651  -0.245251  0  3.579313  0
N  N71  1  0.78929349  0.07522862  0.21160691  1  0  -0.363691  -0.245261  0  3.579322  0
N  N72  1  0.85980500  0.52997850  0.87041378  1  0  -0.38187  -0.308742  0  3.619661  0
N  N73  1  0.14019896  0.47001149  0.12959350  1  0  -0.381834  -0.308669  0  3.619552  0
N  N74  1  0.75442531  0.76874344  0.83981294  1  0  -0.364288  -0.251556  0  3.581109  0
N  N75  1  0.24557911  0.23125099  0.16018629  1  0  -0.364348  -0.251631  0  3.581141  0
O  O76  1  0.28233783  0.94351939  0.26683550  1  0  -0.373244  -0.619247  0  2.299585  0
O  O77  1  0.71768683  0.05646937  0.73315972  1  0  -0.373258  -0.619297  0  2.299489  0
O  O78  1  0.34453537  0.70364306  0.32826312  1  0  -0.342315  -0.600374  0  2.245755  0
O  O79  1  0.65545573  0.29634709  0.67174561  1  0  -0.342352  -0.600469  0  2.24586  0
O  O80  1  0.77971392  0.24818070  0.32300222  1  0  -0.361319  -0.622432  0  2.304072  0
O  O81  1  0.22029789  0.75182548  0.67700594  1  0  -0.361229  -0.622264  0  2.303818  0
O  O82  1  0.66006843  0.42654954  0.39297192  1  0  -0.354602  -0.611446  0  2.264365  0
O  O83  1  0.33992913  0.57345473  0.60703066  1  0  -0.354608  -0.611356  0  2.264577  0
O  O84  1  0.16286590  0.04095088  0.48999621  1  0  -0.384478  -0.606962  0  2.292187  0
O  O85  1  0.83712250  0.95905791  0.51000240  1  0  -0.384445  -0.606923  0  2.292551  0
O  O86  1  0.91503016  0.16149818  0.53324571  1  0  -0.372541  -0.614697  0  2.325186  0
O  O87  1  0.08496175  0.83850403  0.46675380  1  0  -0.372704  -0.61497  0  2.324653  0
O  O88  1  0.45798367  0.00163185  0.36994096  1  0  -0.377016  -0.597936  0  2.279256  0
O  O89  1  0.54199211  0.99838790  0.63006403  1  0  -0.377  -0.597811  0  2.279647  0
O  O90  1  0.53041975  0.15975944  0.39794522  1  0  -0.393155  -0.616037  0  2.26056  0
O  O91  1  0.46957955  0.84024588  0.60205747  1  0  -0.3932  -0.616056  0  2.260097  0
O  O92  1  0.60029477  0.65992299  0.44564878  1  0  -0.657646  -0.871443  0  2.051955  0
O  O93  1  0.39969121  0.34009794  0.55433797  1  0  -0.657591  -0.871291  0  2.052072  0
O  O94  1  0.82918153  0.46179589  0.60134001  1  0  -0.581314  -0.757439  0  1.917533  0
O  O95  1  0.17082346  0.53820542  0.39862948  1  0  -0.581279  -0.757318  0  1.917693  0
