# generated using pymatgen
data_Cu2H12C10N4O7
_symmetry_space_group_name_H-M   'P 1'
_cell_length_a   6.89560487
_cell_length_b   10.19031264
_cell_length_c   10.64735853
_cell_angle_alpha   107.44290734
_cell_angle_beta   93.14639960
_cell_angle_gamma   104.65576875
_symmetry_Int_Tables_number   1
_chemical_formula_structural   Cu2H12C10N4O7
_chemical_formula_sum   'Cu4 H24 C20 N8 O14'
_cell_volume   683.58324871
_cell_formula_units_Z   2
loop_
 _symmetry_equiv_pos_site_id
 _symmetry_equiv_pos_as_xyz
  1  'x, y, z'
loop_
 _atom_site_type_symbol
 _atom_site_label
 _atom_site_symmetry_multiplicity
 _atom_site_fract_x
 _atom_site_fract_y
 _atom_site_fract_z
 _atom_site_occupancy
 _atom_site_pbe_cm5_charge
 _atom_site_pbe_ddec_charge
 _atom_site_pbe_ddec_spin_density
 _atom_site_pbe_ddec_sum_bond_order
 _atom_site_pbe_magmom
Cu  Cu0  1  0.08912577  0.32049906  0.69021006  1  0.703399  0.903491  -0.611044  2.291439  -0.486
Cu  Cu1  1  0.91102233  0.67946077  0.30979079  1  0.703496  0.904041  -0.611287  2.291311  -0.487
Cu  Cu2  1  0.99998819  0.99996586  0.49992457  1  0.679922  0.926671  -0.729486  2.228372  -0.583
Cu  Cu3  1  0.00012666  0.49996009  0.00002516  1  0.722722  0.794406  0.458422  2.357387  0.356
H  H4  1  0.05123291  0.10220074  0.73695033  1  0.274402  0.360715  -0.000879  0.999939  0.0
H  H5  1  0.94871987  0.89767709  0.26287652  1  0.274534  0.360874  -0.000882  0.999718  0.0
H  H6  1  0.96158554  0.23711314  0.87235381  1  0.272833  0.355388  -0.000147  0.999198  0.0
H  H7  1  0.03888991  0.76282711  0.12769510  1  0.272937  0.355786  -0.000144  0.998501  0.0
H  H8  1  0.74581575  0.17545028  0.45460334  1  0.273366  0.331848  0.000176  1.033521  0.0
H  H9  1  0.25411275  0.82459370  0.54553627  1  0.273626  0.332226  0.000175  1.032936  0.0
H  H10  1  0.63845756  0.17010163  0.58110989  1  0.316499  0.413169  3e-05  0.867797  0.0
H  H11  1  0.36164799  0.82993241  0.41908182  1  0.3164  0.412681  3e-05  0.868416  0.0
H  H12  1  0.20378263  0.59803368  0.58105113  1  0.154357  0.143847  0.00013  0.985606  0.0
H  H13  1  0.79623638  0.40196473  0.41897615  1  0.154361  0.143821  0.00013  0.985459  0.0
H  H14  1  0.09652325  0.82432985  0.96327532  1  0.148932  0.133925  -0.000295  1.038802  0.0
H  H15  1  0.90333407  0.17554961  0.03675206  1  0.148887  0.133828  -0.000295  1.038969  0.0
H  H16  1  0.34802565  0.51124535  0.41095565  1  0.101155  0.108651  -0.000103  1.021451  0.0
H  H17  1  0.65201464  0.48879525  0.58905948  1  0.101068  0.108476  -0.000103  1.021343  0.0
H  H18  1  0.37350131  0.93853114  0.77244622  1  0.289031  0.282516  -4.3e-05  1.024046  0.0
H  H19  1  0.62633417  0.06144956  0.22759473  1  0.288772  0.282205  -4.3e-05  1.024381  0.0
H  H20  1  0.12662322  0.93762491  0.76796465  1  0.298487  0.274489  -0.00034  1.006656  0.0
H  H21  1  0.87318748  0.06231113  0.23211202  1  0.298409  0.274371  -0.000342  1.00676  0.0
H  H22  1  0.39039021  0.14394340  0.99264444  1  0.105059  0.120887  -0.000118  1.004152  0.0
H  H23  1  0.60953174  0.85614447  0.00730894  1  0.105065  0.120642  -0.000118  1.004455  0.0
H  H24  1  0.45116289  0.58478340  0.21813337  1  0.105434  0.105986  -6.5e-05  1.002998  0.0
H  H25  1  0.54902976  0.41531015  0.78192747  1  0.10547  0.10609  -6.4e-05  1.002855  0.0
H  H26  1  0.47342443  0.39753933  0.00683108  1  0.103097  0.098776  -8.2e-05  1.01782  0.0
H  H27  1  0.52672212  0.60257956  0.99320588  1  0.103089  0.098985  -8.3e-05  1.017736  0.0
C  C28  1  0.22855133  0.24206739  0.42641032  1  0.214914  0.589328  -0.004391  4.162375  -0.001
C  C29  1  0.77138698  0.75793206  0.57352563  1  0.214923  0.589107  -0.004392  4.162698  -0.001
C  C30  1  0.16709899  0.62117845  0.68142523  1  0.180239  0.087182  0.00127  3.832507  0.001
C  C31  1  0.83290619  0.37878658  0.31860108  1  0.180067  0.087503  0.001272  3.8327  0.001
C  C32  1  0.30281029  0.28539103  0.31106725  1  -0.027097  -0.090772  -0.009213  3.967896  -0.01
C  C33  1  0.69712822  0.71465530  0.68888738  1  -0.027235  -0.091233  -0.009206  3.967687  -0.01
C  C34  1  0.11415093  0.73808767  0.87896598  1  0.177129  0.074093  -0.001178  3.829084  -0.001
C  C35  1  0.88576358  0.26181294  0.12106001  1  0.176788  0.074115  -0.00118  3.830042  -0.001
C  C36  1  0.31285749  0.18078616  0.19166766  1  -0.012862  -0.045456  -0.001043  3.943808  -0.001
C  C37  1  0.68702699  0.81927571  0.80826745  1  -0.012778  -0.045232  -0.001043  3.942612  -0.001
C  C38  1  0.35504543  0.43036544  0.31899515  1  -0.08893  -0.080125  -0.001141  3.964881  -0.001
C  C39  1  0.64496998  0.56968669  0.68101141  1  -0.088942  -0.079987  -0.00114  3.964665  -0.001
C  C40  1  0.37789123  0.22383527  0.08412041  1  -0.091633  -0.109365  -0.000248  3.953243  0.0
C  C41  1  0.62202998  0.77625036  0.91583979  1  -0.091562  -0.108881  -0.000247  3.952963  0.0
C  C42  1  0.25030073  0.02138104  0.16908197  1  0.206876  0.584132  -0.000372  4.226234  0.0
C  C43  1  0.74954221  0.97866777  0.83082264  1  0.207276  0.584979  -0.000372  4.225047  0.0
C  C44  1  0.41428010  0.47173796  0.21036347  1  -0.096293  -0.116421  -0.000381  4.049434  -0.001
C  C45  1  0.58581872  0.52835039  0.78966484  1  -0.095967  -0.11622  -0.00038  4.050124  -0.001
C  C46  1  0.42623205  0.36788150  0.09290362  1  -0.086525  -0.068061  -0.000648  4.010893  -0.001
C  C47  1  0.57383336  0.63222689  0.90711182  1  -0.086707  -0.068451  -0.000648  4.011238  -0.001
N  N48  1  0.11085387  0.52854074  0.74559203  1  -0.258921  -0.179841  -0.030421  3.591121  -0.04
N  N49  1  0.88923701  0.47140531  0.25441991  1  -0.258574  -0.180011  -0.030423  3.591677  -0.04
N  N50  1  0.07709257  0.60118846  0.86868691  1  -0.256074  -0.165987  0.029177  3.583911  0.039
N  N51  1  0.92295357  0.39871521  0.13132514  1  -0.25596  -0.165891  0.029158  3.584756  0.039
N  N52  1  0.17217669  0.75372694  0.76281731  1  -0.138519  0.19876  -0.000439  3.767566  -0.001
N  N53  1  0.82771805  0.24621395  0.23722010  1  -0.138347  0.198633  -0.000438  3.768153  -0.001
N  N54  1  0.22378258  0.87892746  0.72787190  1  -0.483548  -0.516675  -0.00022  3.140188  0.0
N  N55  1  0.77604874  0.12102934  0.27219373  1  -0.48318  -0.516257  -0.000218  3.140307  0.0
O  O56  1  0.18912799  0.33793264  0.52174166  1  -0.321725  -0.556607  -0.040608  2.404368  -0.059
O  O57  1  0.81084516  0.66204238  0.47821810  1  -0.321818  -0.556583  -0.040621  2.404119  -0.059
O  O58  1  0.12390011  0.13511028  0.66925473  1  -0.606637  -0.82079  -0.118453  2.233844  -0.163
O  O59  1  0.87611685  0.86479047  0.33060999  1  -0.606939  -0.821158  -0.118475  2.233541  -0.163
O  O60  1  0.00296304  0.33235592  0.86063075  1  -0.605588  -0.840388  -0.019049  2.336036  -0.027
O  O61  1  0.99740860  0.66760225  0.13941008  1  -0.605644  -0.841092  -0.019108  2.336589  -0.027
O  O62  1  0.74212478  0.23092993  0.54853825  1  -0.589193  -0.787692  0.00145  2.041009  0.001
O  O63  1  0.25786229  0.76913087  0.45160625  1  -0.589335  -0.787525  0.00145  2.0417  0.001
O  O64  1  0.20489338  0.11101790  0.41743769  1  -0.318901  -0.542585  -0.053719  2.398727  -0.077
O  O65  1  0.79502730  0.88897128  0.58244020  1  -0.318849  -0.542522  -0.053705  2.398716  -0.077
O  O66  1  0.05897636  0.95715186  0.14084880  1  -0.325262  -0.571855  -0.000759  2.215549  -0.001
O  O67  1  0.94087944  0.04291213  0.85905416  1  -0.325268  -0.572016  -0.000758  2.215472  -0.001
O  O68  1  0.38542349  0.95771997  0.16525354  1  -0.318902  -0.535144  -0.001135  2.145544  -0.002
O  O69  1  0.61440607  0.04231273  0.83464024  1  -0.319304  -0.535796  -0.001134  2.145056  -0.002
