# generated using pymatgen
data_Ag2Mo4H12C15N8O13
_symmetry_space_group_name_H-M   'P 1'
_cell_length_a   9.99900531
_cell_length_b   10.79855445
_cell_length_c   12.12100000
_cell_angle_alpha   77.29825522
_cell_angle_beta   84.77551497
_cell_angle_gamma   84.29248550
_symmetry_Int_Tables_number   1
_chemical_formula_structural   Ag2Mo4H12C15N8O13
_chemical_formula_sum   'Ag4 Mo8 H24 C30 N16 O26'
_cell_volume   1267.17346731
_cell_formula_units_Z   2
loop_
 _symmetry_equiv_pos_site_id
 _symmetry_equiv_pos_as_xyz
  1  'x, y, z'
loop_
 _atom_site_type_symbol
 _atom_site_label
 _atom_site_symmetry_multiplicity
 _atom_site_fract_x
 _atom_site_fract_y
 _atom_site_fract_z
 _atom_site_occupancy
 _atom_site_hle17_bader_spin_density
 _atom_site_hle17_ddec_charge
 _atom_site_hle17_ddec_spin_density
 _atom_site_hle17_ddec_sum_bond_order
 _atom_site_hle17_magmom
 _atom_site_hse06_10hf_bader_spin_density
 _atom_site_hse06_10hf_ddec_charge
 _atom_site_hse06_10hf_ddec_spin_density
 _atom_site_hse06_10hf_ddec_sum_bond_order
 _atom_site_hse06_10hf_magmom
 _atom_site_hse06_bader_spin_density
 _atom_site_hse06_ddec_charge
 _atom_site_hse06_ddec_spin_density
 _atom_site_hse06_ddec_sum_bond_order
 _atom_site_hse06_magmom
 _atom_site_pbe_bader_charge
 _atom_site_pbe_bader_spin_density
 _atom_site_pbe_cm5_charge
 _atom_site_pbe_ddec_charge
 _atom_site_pbe_ddec_spin_density
 _atom_site_pbe_ddec_sum_bond_order
 _atom_site_pbe_magmom
Ag  Ag0  1  0.37228054  0.09007316  0.69365790  1  0  0.712711  0  1.29995  0  0  0.59798  0  1.735071  0  0  0.624151  0  1.685017  0  0.697704  0  0.483927  0.581378  0  1.768702  0
Ag  Ag1  1  0.62772156  0.90992671  0.30634254  1  0  0.71273  0  1.299891  0  0  0.598021  0  1.735013  0  0  0.624193  0  1.684963  0  0.697732  0  0.483943  0.581419  0  1.768647  0
Ag  Ag2  1  0.36972240  0.60641556  0.31354947  1  0  0.620485  0  1.416547  0  0  0.503626  0  1.855246  0  0  0.528804  0  1.808896  0  0.653082  0  0.503196  0.487196  0  1.886942  0
Ag  Ag3  1  0.63027862  0.39358525  0.68645005  1  0  0.620436  0  1.41658  0  0  0.503585  0  1.855273  0  0  0.528765  0  1.808923  0  0.653118  0  0.503163  0.487147  0  1.886981  0
Mo  Mo4  1  0.00819924  0.80457594  0.36863759  1  0  2.189762  0  4.062098  0  0  2.184553  0  4.599136  0  0  2.285245  0  4.563082  0  2.587217  0  1.496625  2.112077  0  4.62872  0
Mo  Mo5  1  0.99180186  0.19542393  0.63136211  1  0  2.189848  0  4.062002  0  0  2.184653  0  4.599022  0  0  2.285346  0  4.562974  0  2.587125  0  1.496647  2.112179  0  4.628608  0
Mo  Mo6  1  0.23017812  0.24831171  0.42456051  1  0  2.204424  0  4.061482  0  0  2.20612  0  4.585969  0  0  2.304349  0  4.55633  0  2.601561  0  1.52092  2.131882  0  4.616848  0
Mo  Mo7  1  0.76982306  0.75168720  0.57544019  1  0  2.204413  0  4.061443  0  0  2.206134  0  4.585927  0  0  2.304355  0  4.556292  0  2.601536  0  1.52093  2.131902  0  4.616793  0
Mo  Mo8  1  0.04105513  0.89642450  0.63559453  1  0  2.225961  0  4.048681  0  0  2.224297  0  4.572862  0  0  2.327143  0  4.534569  0  2.600291  0  1.497066  2.148439  0  4.606724  0
Mo  Mo9  1  0.95894497  0.10357537  0.36440524  1  0  2.225929  0  4.048642  0  0  2.224244  0  4.572846  0  0  2.327092  0  4.534554  0  2.600278  0  1.497053  2.148389  0  4.606704  0
Mo  Mo10  1  0.28379008  0.94032954  0.44513883  1  0  2.18404  0  4.046017  0  0  2.179672  0  4.578037  0  0  2.280895  0  4.541825  0  2.574448  0  1.482928  2.106651  0  4.607379  0
Mo  Mo11  1  0.71621102  0.05967032  0.55486004  1  0  2.184032  0  4.046025  0  0  2.179648  0  4.578066  0  0  2.28087  0  4.541846  0  2.574435  0  1.482907  2.106627  0  4.607408  0
H  H12  1  0.21028887  0.12685087  0.90715506  1  0  0.082867  0  0.959132  0  0  0.094703  0  1.019904  0  0  0.097181  0  1.01684  0  0.121409  0  0.115321  0.092848  0  1.022153  0
H  H13  1  0.78971114  0.87314995  0.09284453  1  0  0.082885  0  0.959115  0  0  0.094725  0  1.019887  0  0  0.097203  0  1.016824  0  0.121417  0  0.115331  0.092869  0  1.022136  0
H  H14  1  0.17388217  0.01949896  0.11311646  1  0  0.124617  0  0.932896  0  0  0.137836  0  0.982484  0  0  0.140972  0  0.981914  0  0.098131  0  0.115724  0.135654  0  0.982891  0
H  H15  1  0.82611784  0.98050186  0.88688313  1  0  0.124689  0  0.932779  0  0  0.137852  0  0.982437  0  0  0.140987  0  0.98187  0  0.098136  0  0.115736  0.135671  0  0.982843  0
H  H16  1  0.30986775  0.81830674  0.18611815  1  0  0.101006  0  0.993466  0  0  0.112489  0  1.059657  0  0  0.1161  0  1.054836  0  0.147608  0  0.100146  0.109727  0  1.063374  0
H  H17  1  0.69013218  0.18169503  0.81388208  1  0  0.100985  0  0.993466  0  0  0.112447  0  1.059672  0  0  0.116056  0  1.054853  0  0.147741  0  0.100139  0.109685  0  1.063389  0
H  H18  1  0.51645265  0.85416913  0.85257445  1  0  0.098528  0  0.927768  0  0  0.108255  0  0.989676  0  0  0.111144  0  0.986657  0  0.139857  0  0.124206  0.106106  0  0.991946  0
H  H19  1  0.48354736  0.14583169  0.14742597  1  0  0.098559  0  0.927837  0  0  0.108286  0  0.989725  0  0  0.111176  0  0.986706  0  0.139847  0  0.124214  0.106137  0  0.991995  0
H  H20  1  0.49715390  0.35733140  0.24429658  1  0  0.11282  0  0.921036  0  0  0.12493  0  0.983561  0  0  0.126056  0  0.982024  0  0.137693  0  0.138058  0.124182  0  0.984561  0
H  H21  1  0.50284294  0.64267132  0.75570287  1  0  0.112788  0  0.921092  0  0  0.124919  0  0.983591  0  0  0.126047  0  0.982052  0  0.137721  0  0.138062  0.124163  0  0.984584  0
H  H22  1  0.66927922  0.33049747  0.18474410  1  0  0.115701  0  0.96418  0  0  0.118875  0  1.034401  0  0  0.121506  0  1.031887  0  0.217837  0  0.138541  0.116874  0  1.036456  0
H  H23  1  0.33071787  0.66950240  0.81525589  1  0  0.115752  0  0.96424  0  0  0.118963  0  1.034403  0  0  0.121595  0  1.031886  0  0.217864  0  0.138566  0.11695  0  1.036453  0
H  H24  1  0.49426492  0.34019075  0.45761876  1  0  0.119407  0  0.979322  0  0  0.125241  0  1.048748  0  0  0.128142  0  1.04532  0  0.231339  0  0.137875  0.123072  0  1.051332  0
H  H25  1  0.50573517  0.65980911  0.54238183  1  0  0.119388  0  0.979321  0  0  0.125225  0  1.048758  0  0  0.128125  0  1.045329  0  0.231342  0  0.137876  0.123057  0  1.05134  0
H  H26  1  0.85523653  0.50941033  0.46145537  1  0  0.111318  0  0.938069  0  0  0.123084  0  0.993307  0  0  0.125535  0  0.990702  0  0.170424  0  0.138836  0.121334  0  0.995232  0
H  H27  1  0.14476357  0.49058953  0.53854193  1  0  0.111247  0  0.938154  0  0  0.123028  0  0.993375  0  0  0.12548  0  0.990768  0  0.170413  0  0.138817  0.121277  0  0.995303  0
H  H28  1  0.82156228  0.63906432  0.85845373  1  0  0.122094  0  0.951026  0  0  0.129705  0  1.012807  0  0  0.133565  0  1.010074  0  0.161939  0  0.109298  0.12705  0  1.014502  0
H  H29  1  0.17843690  0.36093459  0.14154547  1  0  0.122074  0  0.951079  0  0  0.12968  0  1.012873  0  0  0.133539  0  1.01014  0  0.161932  0  0.109304  0.127026  0  1.014568  0
H  H30  1  0.02202087  0.51827592  0.77981073  1  0  0.105609  0  0.957446  0  0  0.111122  0  1.023526  0  0  0.114488  0  1.020964  0  0.148012  0  0.107141  0.108664  0  1.025527  0
H  H31  1  0.97797830  0.48172299  0.22019094  1  0  0.105594  0  0.957428  0  0  0.111111  0  1.023505  0  0  0.114479  0  1.02094  0  0.147984  0  0.107133  0.108652  0  1.025507  0
H  H32  1  0.07628037  0.29077281  0.87325990  1  0  0.102632  0  0.970083  0  0  0.11454  0  1.028709  0  0  0.11763  0  1.027059  0  0.099352  0  0.10261  0.112114  0  1.030413  0
H  H33  1  0.92371973  0.70922705  0.12674069  1  0  0.102639  0  0.970084  0  0  0.114548  0  1.028713  0  0  0.117639  0  1.027063  0  0.099372  0  0.102612  0.112121  0  1.030419  0
H  H34  1  0.93206612  0.19346946  0.04684346  1  0  0.073202  0  0.936968  0  0  0.083007  0  0.996762  0  0  0.085068  0  0.995887  0  0.083548  0  0.110064  0.081595  0  0.997197  0
H  H35  1  0.06793406  0.80652945  0.95315732  1  0  0.073133  0  0.936866  0  0  0.082961  0  0.996663  0  0  0.085019  0  0.995789  0  0.083337  0  0.110038  0.081545  0  0.997105  0
C  C36  1  0.27020200  0.04045425  0.94390903  1  0  0.127766  0  3.692828  0  0  0.092741  0  3.943077  0  0  0.100449  0  3.962364  0  0.441845  0  0.047439  0.088141  0  3.929134  0
C  C37  1  0.72979709  0.95954562  0.05609000  1  0  0.127779  0  3.692778  0  0  0.092738  0  3.943032  0  0  0.100448  0  3.962316  0  0.4416  0  0.047434  0.088139  0  3.929088  0
C  C38  1  0.24912124  0.97956558  0.05692217  1  0  -0.105898  0  3.704751  0  0  -0.114128  0  3.951367  0  0  -0.122832  0  3.974134  0  0.055318  0  -0.075161  -0.108585  0  3.935336  0
C  C39  1  0.75087693  0.02043333  0.94307711  1  0  -0.105957  0  3.70467  0  0  -0.114139  0  3.951265  0  0  -0.122843  0  3.974031  0  0.055312  0  -0.075154  -0.108596  0  3.935233  0
C  C40  1  0.32561485  0.86659315  0.09764641  1  0  -0.012768  0  3.659741  0  0  -0.042913  0  3.905553  0  0  -0.038662  0  3.92344  0  -0.06547  0  -0.056658  -0.045258  0  3.893517  0
C  C41  1  0.67438324  0.13340672  0.90235269  1  0  -0.012761  0  3.659666  0  0  -0.042829  0  3.905474  0  0  -0.038577  0  3.923358  0  -0.065613  0  -0.056648  -0.045176  0  3.893438  0
C  C42  1  0.42273573  0.81835436  0.02398728  1  0  -0.044957  0  3.768672  0  0  -0.024681  0  4.007691  0  0  -0.032146  0  4.030677  0  -6e-05  0  0.001448  -0.020281  0  3.992144  0
C  C43  1  0.57726428  0.18164645  0.97601231  1  0  -0.044857  0  3.768391  0  0  -0.024718  0  4.007571  0  0  -0.03218  0  4.030554  0  4.9e-05  0  0.001438  -0.020318  0  3.992024  0
C  C44  1  0.44004487  0.88760463  0.91175366  1  0  0.115512  0  3.639229  0  0  0.074363  0  3.887988  0  0  0.082052  0  3.906312  0  0.481173  0  0.059907  0.069465  0  3.875332  0
C  C45  1  0.55995514  0.11239619  0.08824675  1  0  0.11546  0  3.639151  0  0  0.074367  0  3.887919  0  0  0.082056  0  3.906241  0  0.481185  0  0.059949  0.069469  0  3.875263  0
C  C46  1  0.50563572  0.69832127  0.05594173  1  0  0.322342  0  3.798469  0  0  0.291711  0  4.078811  0  0  0.306785  0  4.094214  0  0.99294  0  0.225751  0.2821  0  4.067521  0
C  C47  1  0.49436421  0.30168050  0.94405686  1  0  0.322291  0  3.798444  0  0  0.291699  0  4.078816  0  0  0.306772  0  4.094219  0  0.992851  0  0.225753  0.282089  0  4.067524  0
C  C48  1  0.59642357  0.39483966  0.22327756  1  0  0.054599  0  3.590361  0  0  -0.029643  0  3.84318  0  0  -0.020733  0  3.850138  0  0.600976  0  0.062503  -0.035679  0  3.838773  0
C  C49  1  0.40357343  0.60516116  0.77672226  1  0  0.054518  0  3.590499  0  0  -0.029745  0  3.843295  0  0  -0.020835  0  3.850249  0  0.600932  0  0.062465  -0.035729  0  3.838824  0
C  C50  1  0.58675913  0.38743611  0.43274196  1  0  0.152234  0  3.664803  0  0  0.086211  0  3.939825  0  0  0.10118  0  3.950518  0  0.952709  0  0.15633  0.076499  0  3.93229  0
C  C51  1  0.41323988  0.61256471  0.56725771  1  0  0.152367  0  3.664746  0  0  0.086324  0  3.939792  0  0  0.101292  0  3.950484  0  0.952719  0  0.156348  0.076612  0  3.932258  0
C  C52  1  0.77157730  0.47182016  0.43221132  1  0  0.226232  0  3.652077  0  0  0.17349  0  3.938646  0  0  0.185828  0  3.949569  0  0.990969  0  0.153402  0.165487  0  3.930832  0
C  C53  1  0.22842271  0.52818065  0.56778580  1  0  0.226316  0  3.652106  0  0  0.173587  0  3.938627  0  0  0.185926  0  3.949549  0  0.990941  0  0.153422  0.165579  0  3.930819  0
C  C54  1  0.65770273  0.54867209  0.03805894  1  0  0.278913  0  3.706496  0  0  0.239645  0  3.981905  0  0  0.25625  0  3.993338  0  0.971949  0  0.244624  0.228996  0  3.973782  0
C  C55  1  0.34229628  0.45132873  0.96194073  1  0  0.278844  0  3.706469  0  0  0.239628  0  3.981831  0  0  0.25623  0  3.993265  0  0.971947  0  0.244626  0.228966  0  3.973727  0
C  C56  1  0.77408478  0.47718638  0.99208391  1  0  0.12855  0  3.824754  0  0  0.13043  0  4.079027  0  0  0.1325  0  4.099393  0  0.547256  0  0.112865  0.129122  0  4.064602  0
C  C57  1  0.22591440  0.52281253  0.00791694  1  0  0.128633  0  3.82465  0  0  0.130505  0  4.078908  0  0  0.132577  0  4.099274  0  0.547241  0  0.112887  0.129199  0  4.064484  0
C  C58  1  0.84956567  0.54018653  0.89681879  1  0  -0.107734  0  3.677554  0  0  -0.129689  0  3.923813  0  0  -0.133696  0  3.943598  0  -0.030131  0  -0.073738  -0.126437  0  3.909505  0
C  C59  1  0.15043451  0.45981238  0.10318116  1  0  -0.107651  0  3.677501  0  0  -0.129612  0  3.923786  0  0  -0.133618  0  3.943571  0  -0.030142  0  -0.073684  -0.12636  0  3.909477  0
C  C60  1  0.95999890  0.47272406  0.85324734  1  0  0.004753  0  3.689946  0  0  -0.011225  0  3.939103  0  0  -0.009871  0  3.957919  0  -0.052495  0  -0.065013  -0.012074  0  3.926527  0
C  C61  1  0.04000028  0.52727485  0.14675351  1  0  0.004749  0  3.689963  0  0  -0.011224  0  3.939104  0  0  -0.009874  0  3.95792  0  -0.052501  0  -0.065003  -0.012074  0  3.92653  0
C  C62  1  0.99145461  0.34629894  0.90659082  1  0  -0.104792  0  3.714478  0  0  -0.120446  0  3.964089  0  0  -0.125529  0  3.986135  0  -0.010396  0  -0.079654  -0.117527  0  3.949773  0
C  C63  1  0.00854464  0.65369902  0.09341186  1  0  -0.104835  0  3.714562  0  0  -0.120473  0  3.964182  0  0  -0.125555  0  3.986228  0  -0.010444  0  -0.079629  -0.117554  0  3.949866  0
C  C64  1  0.91087598  0.29182148  0.00167739  1  0  0.120253  0  3.735063  0  0  0.097088  0  3.993398  0  0  0.10044  0  4.013408  0  0.481448  0  0.044547  0.094964  0  3.979821  0
C  C65  1  0.08912428  0.70817648  0.99832522  1  0  0.120406  0  3.734871  0  0  0.097181  0  3.993281  0  0  0.100534  0  4.013295  0  0.481659  0  0.044552  0.095057  0  3.979702  0
N  N66  1  0.36472813  0.99558612  0.87234192  1  0  -0.313143  0  3.347454  0  0  -0.229822  0  3.63694  0  0  -0.250364  0  3.654101  0  -1.183445  0  -0.337714  -0.215969  0  3.624569  0
N  N67  1  0.63527188  0.00441470  0.12765850  1  0  -0.313215  0  3.347444  0  0  -0.229898  0  3.63694  0  0  -0.250439  0  3.654099  0  -1.183179  0  -0.337757  -0.216045  0  3.624567  0
N  N68  1  0.60874479  0.66382091  0.98494229  1  0  -0.442578  0  2.940714  0  0  -0.412213  0  3.212225  0  0  -0.429499  0  3.223647  0  -1.170633  0  -0.321575  -0.400437  0  3.203839  0
N  N69  1  0.39125531  0.33617895  0.01505666  1  0  -0.442555  0  2.940744  0  0  -0.412206  0  3.212236  0  0  -0.42949  0  3.223657  0  -1.170602  0  -0.321573  -0.400425  0  3.203854  0
N  N70  1  0.48720065  0.60920725  0.15176898  1  0  -0.32594  0  3.088978  0  0  -0.280108  0  3.398806  0  0  -0.295971  0  3.410235  0  -0.684928  0  -0.244288  -0.269574  0  3.390594  0
N  N71  1  0.51279937  0.39079356  0.84823061  1  0  -0.325846  0  3.08907  0  0  -0.280026  0  3.398907  0  0  -0.295889  0  3.410337  0  -0.68499  0  -0.244249  -0.269492  0  3.390697  0
N  N72  1  0.58426530  0.51351643  0.13888855  1  0  0.002477  0  3.472895  0  0  0.082174  0  3.698878  0  0  0.069288  0  3.724898  0  -0.764867  0  -0.125629  0.090266  0  3.681484  0
N  N73  1  0.41573480  0.48648343  0.86111040  1  0  0.002433  0  3.473005  0  0  0.082094  0  3.699021  0  0  0.06921  0  3.72504  0  -0.764852  0  -0.125693  0.090174  0  3.68162  0
N  N74  1  0.64488083  0.41494724  0.32647266  1  0  0.019276  0  3.582429  0  0  0.105036  0  3.816095  0  0  0.092474  0  3.840958  0  -0.816302  0  -0.138097  0.113451  0  3.799031  0
N  N75  1  0.35511818  0.58505357  0.67352618  1  0  0.019214  0  3.582434  0  0  0.104958  0  3.816127  0  0  0.092397  0  3.84099  0  -0.816292  0  -0.138147  0.11336  0  3.799055  0
N  N76  1  0.76277229  0.46908657  0.32443121  1  0  -0.251705  0  2.820861  0  0  -0.242512  0  3.095536  0  0  -0.250767  0  3.108057  0  -0.697642  0  -0.213496  -0.236796  0  3.086826  0
N  N77  1  0.23722563  0.53091519  0.67556670  1  0  -0.251726  0  2.820841  0  0  -0.242545  0  3.095518  0  0  -0.2508  0  3.108034  0  -0.697589  0  -0.213517  -0.23683  0  3.086814  0
N  N78  1  0.66511639  0.42282512  0.50175448  1  0  -0.383815  0  3.276783  0  0  -0.306806  0  3.578624  0  0  -0.329487  0  3.591579  0  -1.177436  0  -0.361629  -0.290995  0  3.569019  0
N  N79  1  0.33488371  0.57717474  0.49824364  1  0  -0.383881  0  3.276685  0  0  -0.306869  0  3.578527  0  0  -0.32955  0  3.591481  0  -1.177486  0  -0.361608  -0.291058  0  3.568922  0
N  N80  1  0.80364311  0.35517691  0.04391294  1  0  -0.323989  0  3.113846  0  0  -0.290622  0  3.376889  0  0  -0.301587  0  3.394887  0  -1.213661  0  -0.311699  -0.283157  0  3.364715  0
N  N81  1  0.19635699  0.64482295  0.95608766  1  0  -0.324121  0  3.113779  0  0  -0.290757  0  3.376886  0  0  -0.301727  0  3.394887  0  -1.213576  0  -0.311766  -0.283291  0  3.364712  0
O  O82  1  0.13448255  0.70592008  0.31928217  1  0  -0.694977  0  1.539149  0  0  -0.680383  0  1.817486  0  0  -0.708571  0  1.805418  0  -0.837892  0  -0.51965  -0.660931  0  1.826609  0
O  O83  1  0.86551863  0.29407884  0.68071771  1  0  -0.694983  0  1.539152  0  0  -0.680388  0  1.817476  0  0  -0.708577  0  1.805412  0  -0.837873  0  -0.519629  -0.660937  0  1.826602  0
O  O84  1  0.14771949  0.82253952  0.51882870  1  0  -0.937601  0  1.813646  0  0  -0.932671  0  2.108793  0  0  -0.975995  0  2.106512  0  -1.064594  0  -0.592624  -0.900762  0  2.109931  0
O  O85  1  0.85228061  0.17746035  0.48117108  1  0  -0.937599  0  1.813661  0  0  -0.932668  0  2.108812  0  0  -0.975991  0  2.106531  0  -1.064626  0  -0.59262  -0.900759  0  2.10995  0
O  O86  1  0.88829647  0.82892583  0.27125408  1  0  -0.716158  0  1.530226  0  0  -0.712963  0  1.809702  0  0  -0.740295  0  1.796926  0  -0.839073  0  -0.51331  -0.693873  0  1.818925  0
O  O87  1  0.11170447  0.17107594  0.72874691  1  0  -0.716177  0  1.530132  0  0  -0.712997  0  1.809606  0  0  -0.740326  0  1.796825  0  -0.838979  0  -0.51333  -0.693909  0  1.818833  0
O  O88  1  0.07426476  0.31111471  0.50760332  1  0  -0.8621  0  1.721814  0  0  -0.856942  0  2.00371  0  0  -0.898083  0  1.998155  0  -0.999121  0  -0.582606  -0.826654  0  2.008255  0
O  O89  1  0.92573634  0.68888515  0.49239637  1  0  -0.862095  0  1.721797  0  0  -0.856944  0  2.003701  0  0  -0.898086  0  1.998146  0  -0.999126  0  -0.582615  -0.826655  0  2.008244  0
O  O90  1  0.28558703  0.37949537  0.33020162  1  0  -0.703335  0  1.522425  0  0  -0.692495  0  1.800783  0  0  -0.717811  0  1.786903  0  -0.840595  0  -0.514317  -0.674427  0  1.811926  0
O  O91  1  0.71441415  0.62050354  0.66980074  1  0  -0.703333  0  1.522462  0  0  -0.692496  0  1.800813  0  0  -0.717814  0  1.786938  0  -0.840632  0  -0.514289  -0.674428  0  1.811954  0
O  O92  1  0.33945744  0.22470189  0.53433940  1  0  -0.764341  0  1.704119  0  0  -0.740615  0  2.016013  0  0  -0.772881  0  2.002144  0  -0.875869  0  -0.537223  -0.717518  0  2.026293  0
O  O93  1  0.66054282  0.77529607  0.46566320  1  0  -0.764303  0  1.70403  0  0  -0.740621  0  2.015967  0  0  -0.772887  0  2.002097  0  -0.875839  0  -0.537264  -0.717531  0  2.026249  0
O  O94  1  0.30731814  0.10854631  0.36019087  1  0  -0.845035  0  1.690244  0  0  -0.837942  0  1.968055  0  0  -0.877994  0  1.96009  0  -0.983068  0  -0.585256  -0.808387  0  1.973847  0
O  O95  1  0.69268304  0.89145260  0.63980901  1  0  -0.84503  0  1.690222  0  0  -0.837929  0  1.968027  0  0  -0.877979  0  1.960059  0  -0.983098  0  -0.585252  -0.808373  0  1.973817  0
O  O96  1  0.10963214  0.05969128  0.52346617  1  0  -1.241314  0  1.92227  0  0  -1.217833  0  2.196411  0  0  -1.265642  0  2.195332  0  -1.244741  0  -0.623567  -1.180634  0  2.195277  0
O  O97  1  0.89036896  0.94030859  0.47653435  1  0  -1.241287  0  1.922268  0  0  -1.217836  0  2.196499  0  0  -1.265602  0  2.195308  0  -1.244731  0  -0.623553  -1.180639  0  2.195364  0
O  O98  1  0.14994800  0.87467009  0.73939178  1  0  -0.636821  0  1.438575  0  0  -0.63459  0  1.68906  0  0  -0.655197  0  1.677348  0  -0.776266  0  -0.49165  -0.620172  0  1.698498  0
O  O99  1  0.85005210  0.12532978  0.26060717  1  0  -0.636816  0  1.438527  0  0  -0.634559  0  1.689013  0  0  -0.655169  0  1.677301  0  -0.776279  0  -0.491646  -0.620153  0  1.69846  0
O  O100  1  0.06881579  0.22777266  0.32084017  1  0  -0.766674  0  1.620276  0  0  -0.76208  0  1.890568  0  0  -0.794424  0  1.880654  0  -0.923413  0  -0.542691  -0.738404  0  1.898344  0
O  O101  1  0.93118640  0.77222626  0.67915881  1  0  -0.766679  0  1.620262  0  0  -0.762078  0  1.890541  0  0  -0.794422  0  1.880628  0  -0.923395  0  -0.542696  -0.738407  0  1.898326  0
O  O102  1  0.08892333  0.96909889  0.32457255  1  0  -0.9488  0  1.775608  0  0  -0.939314  0  2.060615  0  0  -0.982652  0  2.056157  0  -1.06809  0  -0.593038  -0.907058  0  2.063017  0
O  O103  1  0.91107777  0.03090098  0.67542714  1  0  -0.94884  0  1.775638  0  0  -0.939336  0  2.060602  0  0  -0.982681  0  2.056165  0  -1.068104  0  -0.593058  -0.907084  0  2.063009  0
O  O104  1  0.38166298  0.92645968  0.55717409  1  0  -0.685345  0  1.509261  0  0  -0.680801  0  1.79157  0  0  -0.707918  0  1.779873  0  -0.809871  0  -0.507934  -0.662398  0  1.800201  0
O  O105  1  0.61833820  0.07353923  0.44282579  1  0  -0.685337  0  1.509273  0  0  -0.680803  0  1.791593  0  0  -0.707918  0  1.779896  0  -0.809832  0  -0.507937  -0.662396  0  1.80022  0
O  O106  1  0.37419728  0.85413770  0.35442387  1  0  -0.740266  0  1.575108  0  0  -0.729472  0  1.881665  0  0  -0.756617  0  1.863891  0  -0.858007  0  -0.523074  -0.711315  0  1.894988  0
O  O107  1  0.62580483  0.14586217  0.64557575  1  0  -0.74025  0  1.57507  0  0  -0.729431  0  1.88161  0  0  -0.756577  0  1.863835  0  -0.857955  0  -0.523035  -0.711272  0  1.894933  0
