# generated using pymatgen
data_BaH14C12(NO5)2
_symmetry_space_group_name_H-M   'P 1'
_cell_length_a   8.44458839
_cell_length_b   10.50746811
_cell_length_c   10.69949084
_cell_angle_alpha   79.62505223
_cell_angle_beta   67.70579048
_cell_angle_gamma   86.46996196
_symmetry_Int_Tables_number   1
_chemical_formula_structural   BaH14C12(NO5)2
_chemical_formula_sum   'Ba2 H28 C24 N4 O20'
_cell_volume   864.02569730
_cell_formula_units_Z   2
loop_
 _symmetry_equiv_pos_site_id
 _symmetry_equiv_pos_as_xyz
  1  'x, y, z'
loop_
 _atom_site_type_symbol
 _atom_site_label
 _atom_site_symmetry_multiplicity
 _atom_site_fract_x
 _atom_site_fract_y
 _atom_site_fract_z
 _atom_site_occupancy
 _atom_site_hle17_bader_spin_density
 _atom_site_hle17_ddec_charge
 _atom_site_hle17_ddec_spin_density
 _atom_site_hle17_ddec_sum_bond_order
 _atom_site_hle17_magmom
 _atom_site_hse06_10hf_bader_spin_density
 _atom_site_hse06_10hf_ddec_charge
 _atom_site_hse06_10hf_ddec_spin_density
 _atom_site_hse06_10hf_ddec_sum_bond_order
 _atom_site_hse06_10hf_magmom
 _atom_site_hse06_bader_spin_density
 _atom_site_hse06_ddec_charge
 _atom_site_hse06_ddec_spin_density
 _atom_site_hse06_ddec_sum_bond_order
 _atom_site_hse06_magmom
 _atom_site_pbe_bader_spin_density
 _atom_site_pbe_cm5_charge
 _atom_site_pbe_ddec_charge
 _atom_site_pbe_ddec_spin_density
 _atom_site_pbe_ddec_sum_bond_order
 _atom_site_pbe_magmom
Ba  Ba0  1  0.17446496  0.43068058  0.82893771  1  0  1.622325  0  1.154016  0  0  1.46808  0  1.558558  0  0  1.507062  0  1.51373  0  0  0.925581  1.439805  0  1.590268  0
Ba  Ba1  1  0.82553423  0.56931886  0.17106281  1  0  1.622337  0  1.154006  0  0  1.4681  0  1.558544  0  0  1.50708  0  1.513716  0  0  0.925583  1.439826  0  1.590252  0
H  H2  1  0.17674965  0.97421194  0.70854628  1  0  0.39462  0  0.912972  0  0  0.358999  0  0.997054  0  0  0.371966  0  0.981885  0  0  0.294959  0.34993  0  1.005468  0
H  H3  1  0.82324950  0.02578557  0.29145366  1  0  0.394625  0  0.912966  0  0  0.359015  0  0.99704  0  0  0.371976  0  0.981873  0  0  0.294945  0.349944  0  1.005459  0
H  H4  1  0.43031970  0.32842312  0.48034913  1  0  0.431907  0  0.865533  0  0  0.4027  0  0.924412  0  0  0.413326  0  0.908948  0  0  0.290923  0.395149  0  0.935409  0
H  H5  1  0.56968075  0.67157633  0.51964913  1  0  0.431887  0  0.865563  0  0  0.402683  0  0.924438  0  0  0.413308  0  0.908975  0  0  0.290933  0.395131  0  0.935435  0
H  H6  1  0.28752028  0.23453494  0.59618068  1  0  0.417843  0  0.880009  0  0  0.38456  0  0.947627  0  0  0.395009  0  0.932055  0  0  0.296676  0.377011  0  0.958865  0
H  H7  1  0.71247888  0.76546354  0.40381908  1  0  0.41784  0  0.880014  0  0  0.384563  0  0.947623  0  0  0.395009  0  0.932055  0  0  0.296676  0.377014  0  0.958859  0
H  H8  1  0.28002177  0.59726265  0.04431479  1  0  0.429292  0  0.873814  0  0  0.39445  0  0.943921  0  0  0.406198  0  0.926574  0  0  0.296231  0.386119  0  0.956203  0
H  H9  1  0.71997487  0.40273680  0.95568744  1  0  0.429275  0  0.873845  0  0  0.39443  0  0.943956  0  0  0.406177  0  0.926612  0  0  0.29623  0.386101  0  0.956236  0
H  H10  1  0.24193270  0.45124122  0.10847632  1  0  0.426453  0  0.819991  0  0  0.411553  0  0.870264  0  0  0.419782  0  0.860979  0  0  0.333442  0.405634  0  0.877048  0
H  H11  1  0.75806775  0.54875726  0.89152305  1  0  0.426431  0  0.820031  0  0  0.411556  0  0.870267  0  0  0.419786  0  0.86098  0  0  0.333449  0.405635  0  0.877052  0
H  H12  1  0.69813148  0.13764035  0.98194613  1  0  0.31865  0  0.927554  0  0  0.291193  0  1.000682  0  0  0.301919  0  0.992024  0  0  0.303013  0.283702  0  1.006657  0
H  H13  1  0.30186900  0.86236006  0.01805382  1  0  0.318659  0  0.927561  0  0  0.291196  0  1.000692  0  0  0.301924  0  0.992033  0  0  0.303013  0.283704  0  1.006666  0
H  H14  1  0.54668258  0.11207485  0.21804711  1  0  0.094828  0  0.969476  0  0  0.103258  0  1.035718  0  0  0.10698  0  1.032904  0  0  0.102638  0.100482  0  1.03799  0
H  H15  1  0.45332304  0.88792554  0.78195222  1  0  0.094762  0  0.969545  0  0  0.10319  0  1.035803  0  0  0.106906  0  1.033001  0  0  0.102593  0.100415  0  1.03806  0
H  H16  1  0.27783566  0.10101722  0.42320137  1  0  0.090595  0  0.959871  0  0  0.10182  0  1.018107  0  0  0.105529  0  1.015537  0  0  0.099615  0.099186  0  1.019999  0
H  H17  1  0.72216871  0.89898413  0.57680004  1  0  0.090631  0  0.959813  0  0  0.101855  0  1.018047  0  0  0.105565  0  1.015479  0  0  0.09962  0.099214  0  1.019944  0
H  H18  1  0.09532395  0.90175483  0.50331366  1  0  0.089865  0  0.949084  0  0  0.10129  0  1.009272  0  0  0.104052  0  1.008063  0  0  0.101384  0.099275  0  1.010199  0
H  H19  1  0.90467913  0.09824750  0.49668517  1  0  0.089855  0  0.949138  0  0  0.101301  0  1.009298  0  0  0.104062  0  1.008094  0  0  0.1014  0.099283  0  1.01023  0
H  H20  1  0.17542799  0.72203121  0.36899599  1  0  0.104522  0  0.950953  0  0  0.117496  0  1.005301  0  0  0.121015  0  1.003044  0  0  0.112166  0.114846  0  1.007243  0
H  H21  1  0.82457125  0.27797307  0.63100181  1  0  0.104495  0  0.950982  0  0  0.117489  0  1.005314  0  0  0.120994  0  1.003075  0  0  0.112151  0.114831  0  1.007262  0
H  H22  1  0.21580287  0.61303517  0.52873031  1  0  0.411588  0  0.857567  0  0  0.391611  0  0.917506  0  0  0.399334  0  0.906289  0  0  0.310455  0.386113  0  0.925545  0
H  H23  1  0.78419636  0.38696523  0.47127190  1  0  0.411618  0  0.857518  0  0  0.391645  0  0.917455  0  0  0.399369  0  0.906236  0  0  0.310461  0.38615  0  0.925487  0
H  H24  1  0.19560355  0.46414638  0.54643000  1  0  0.420881  0  0.873968  0  0  0.395448  0  0.927933  0  0  0.406038  0  0.912152  0  0  0.296615  0.387851  0  0.93927  0
H  H25  1  0.80439438  0.53585403  0.45357074  1  0  0.420856  0  0.874002  0  0  0.395422  0  0.927968  0  0  0.406013  0  0.912188  0  0  0.296603  0.387826  0  0.939302  0
H  H26  1  0.47163270  0.62748998  0.74929106  1  0  0.434684  0  0.815753  0  0  0.413582  0  0.874423  0  0  0.422741  0  0.863507  0  0  0.327534  0.406917  0  0.882451  0
H  H27  1  0.52836649  0.37251043  0.25070836  1  0  0.43471  0  0.815716  0  0  0.413612  0  0.874374  0  0  0.42277  0  0.863458  0  0  0.327556  0.406945  0  0.882411  0
H  H28  1  0.33932145  0.72499425  0.70657694  1  0  0.424509  0  0.879601  0  0  0.388319  0  0.95121  0  0  0.399936  0  0.93425  0  0  0.296641  0.380026  0  0.963307  0
H  H29  1  0.66067771  0.27500520  0.29342172  1  0  0.424517  0  0.879583  0  0  0.388326  0  0.951193  0  0  0.399943  0  0.934235  0  0  0.296646  0.380035  0  0.963287  0
C  C30  1  0.67629942  0.93104719  0.06085730  1  0  0.352706  0  3.734262  0  0  0.316909  0  4.011449  0  0  0.331365  0  4.025039  0  0  0.229976  0.307382  0  4.001941  0
C  C31  1  0.32370232  0.06895127  0.93914354  1  0  0.352748  0  3.734134  0  0  0.316754  0  4.011614  0  0  0.331212  0  4.025207  0  0  0.229902  0.307222  0  4.002107  0
C  C32  1  0.51401574  0.92363779  0.17772706  1  0  -0.031773  0  3.770842  0  0  -0.02202  0  4.011437  0  0  -0.024425  0  4.032729  0  0  -0.006203  -0.020602  0  3.997107  0
C  C33  1  0.48598473  0.07636262  0.82227197  1  0  -0.031789  0  3.7708  0  0  -0.022033  0  4.011502  0  0  -0.024442  0  4.032798  0  0  -0.006209  -0.020611  0  3.997158  0
C  C34  1  0.46404558  0.02713202  0.25109022  1  0  -0.070101  0  3.710577  0  0  -0.096331  0  3.965084  0  0  -0.09575  0  3.98262  0  0  -0.085962  -0.096405  0  3.953113  0
C  C35  1  0.53595619  0.97286741  0.74891138  1  0  -0.069944  0  3.710581  0  0  -0.096145  0  3.965081  0  0  -0.095564  0  3.982618  0  0  -0.085908  -0.096218  0  3.953115  0
C  C36  1  0.31408245  0.02030874  0.36693380  1  0  -0.074603  0  3.771753  0  0  -0.088067  0  4.024813  0  0  -0.090467  0  4.044754  0  0  -0.096569  -0.086653  0  4.011327  0
C  C37  1  0.68591934  0.97969166  0.63306763  1  0  -0.07469  0  3.771753  0  0  -0.088153  0  4.024822  0  0  -0.090555  0  4.044764  0  0  -0.096585  -0.086738  0  4.011335  0
C  C38  1  0.21220227  0.90872717  0.41185041  1  0  -0.050427  0  3.763229  0  0  -0.071421  0  4.024407  0  0  -0.07125  0  4.044276  0  0  -0.090333  -0.071375  0  4.010847  0
C  C39  1  0.78779949  0.09127324  0.58814915  1  0  -0.050424  0  3.763286  0  0  -0.071436  0  4.024481  0  0  -0.071265  0  4.044347  0  0  -0.090343  -0.071392  0  4.010924  0
C  C40  1  0.25952668  0.80609315  0.33883909  1  0  -0.10914  0  3.758667  0  0  -0.129453  0  4.007784  0  0  -0.132134  0  4.027625  0  0  -0.091333  -0.12766  0  3.994585  0
C  C41  1  0.74047128  0.19391017  0.66116020  1  0  -0.109139  0  3.758765  0  0  -0.129474  0  4.007888  0  0  -0.132145  0  4.02773  0  0  -0.091372  -0.12768  0  3.994682  0
C  C42  1  0.40897566  0.81235932  0.22094667  1  0  -0.06679  0  3.698948  0  0  -0.052241  0  3.934915  0  0  -0.055383  0  3.953784  0  0  -0.000925  -0.05026  0  3.922318  0
C  C43  1  0.59102485  0.18764108  0.77905514  1  0  -0.06684  0  3.698984  0  0  -0.052215  0  3.934984  0  0  -0.055355  0  3.953849  0  0  -0.000845  -0.050229  0  3.922365  0
C  C44  1  0.43998982  0.70261936  0.13999694  1  0  0.675059  0  3.909638  0  0  0.619067  0  4.221159  0  0  0.653444  0  4.210672  0  0  0.220655  0.595735  0  4.227406  0
C  C45  1  0.56000940  0.29738202  0.86000324  1  0  0.675191  0  3.909242  0  0  0.619035  0  4.221033  0  0  0.653412  0  4.210547  0  0  0.220627  0.5957  0  4.227282  0
C  C46  1  0.91513304  0.87806478  0.91017878  1  0  0.002439  0  3.781285  0  0  -0.004265  0  4.047886  0  0  -0.005006  0  4.065957  0  0  0.085053  -0.003883  0  4.035816  0
C  C47  1  0.08486746  0.12193562  0.08982211  1  0  0.002381  0  3.781246  0  0  -0.004306  0  4.047813  0  0  -0.005041  0  4.065878  0  0  0.085012  -0.003927  0  4.035753  0
C  C48  1  0.90582865  0.01329677  0.88582178  1  0  -0.012686  0  3.736441  0  0  -0.027883  0  3.999343  0  0  -0.031145  0  4.020967  0  0  0.083681  -0.025715  0  3.984838  0
C  C49  1  0.09417051  0.98670268  0.11417688  1  0  -0.012645  0  3.736478  0  0  -0.027859  0  3.999383  0  0  -0.031125  0  4.021014  0  0  0.08368  -0.025691  0  3.984879  0
C  C50  1  0.02381931  0.11523517  0.79045598  1  0  0.63899  0  3.887046  0  0  0.586398  0  4.191677  0  0  0.620319  0  4.182471  0  0  0.233028  0.563474  0  4.197086  0
C  C51  1  0.97618374  0.88476523  0.20954320  1  0  0.63898  0  3.88701  0  0  0.586392  0  4.191672  0  0  0.620301  0  4.182473  0  0  0.233026  0.56347  0  4.19708  0
C  C52  1  0.05352830  0.79075859  0.84339369  1  0  0.659384  0  3.895503  0  0  0.606762  0  4.192377  0  0  0.641656  0  4.181415  0  0  0.234334  0.583149  0  4.199103  0
C  C53  1  0.94646962  0.20924183  0.15660612  1  0  0.659353  0  3.895537  0  0  0.606747  0  4.192386  0  0  0.641637  0  4.181427  0  0  0.234295  0.583126  0  4.199125  0
N  N54  1  0.77263355  0.82879026  0.01957042  1  0  -0.457469  0  3.061136  0  0  -0.419398  0  3.330751  0  0  -0.434579  0  3.346228  0  0  -0.355374  -0.409104  0  3.320263  0
N  N55  1  0.22736565  0.17121112  0.98042882  1  0  -0.457456  0  3.061032  0  0  -0.419312  0  3.330682  0  0  -0.434495  0  3.346158  0  0  -0.355312  -0.409015  0  3.320198  0
N  N56  1  0.75435595  0.04390002  0.98314355  1  0  -0.336443  0  3.386249  0  0  -0.276542  0  3.62071  0  0  -0.294291  0  3.637613  0  0  -0.357094  -0.264572  0  3.609019  0
N  N57  1  0.24564583  0.95610038  0.01685695  1  0  -0.336451  0  3.386331  0  0  -0.276486  0  3.620866  0  0  -0.294221  0  3.637736  0  0  -0.357058  -0.264511  0  3.609167  0
O  O58  1  0.99497668  0.23072273  0.80119099  1  0  -0.590856  0  1.971321  0  0  -0.540434  0  2.204247  0  0  -0.562675  0  2.196753  0  0  -0.323781  -0.525107  0  2.2089  0
O  O59  1  0.00502503  0.76927671  0.19880595  1  0  -0.59091  0  1.971217  0  0  -0.540481  0  2.204153  0  0  -0.562725  0  2.196668  0  0  -0.32382  -0.525154  0  2.208806  0
O  O60  1  0.16279616  0.07888577  0.69363652  1  0  -0.573337  0  2.115003  0  0  -0.510425  0  2.334056  0  0  -0.534947  0  2.319323  0  0  -0.312895  -0.493213  0  2.342378  0
O  O61  1  0.83720298  0.92111175  0.30636248  1  0  -0.57331  0  2.115009  0  0  -0.510417  0  2.334051  0  0  -0.534911  0  2.319306  0  0  -0.312848  -0.493202  0  2.342372  0
O  O62  1  0.18646781  0.84150816  0.74021387  1  0  -0.619231  0  2.038166  0  0  -0.556477  0  2.257108  0  0  -0.583064  0  2.245524  0  0  -0.303478  -0.537804  0  2.263954  0
O  O63  1  0.81353131  0.15848936  0.25978327  1  0  -0.619203  0  2.038182  0  0  -0.556454  0  2.257103  0  0  -0.58304  0  2.245524  0  0  -0.303428  -0.537774  0  2.26395  0
O  O64  1  0.03729766  0.67178511  0.89010465  1  0  -0.663704  0  2.029918  0  0  -0.600597  0  2.270907  0  0  -0.626251  0  2.262094  0  0  -0.359349  -0.582886  0  2.276543  0
O  O65  1  0.96270282  0.32821530  0.10989531  1  0  -0.663676  0  2.029956  0  0  -0.60058  0  2.270934  0  0  -0.626232  0  2.262121  0  0  -0.359337  -0.582864  0  2.276574  0
O  O66  1  0.40084325  0.72495528  0.03323427  1  0  -0.63194  0  1.962067  0  0  -0.576721  0  2.184698  0  0  -0.6025  0  2.173226  0  0  -0.311286  -0.558412  0  2.191958  0
O  O67  1  0.59915336  0.27504321  0.96676721  1  0  -0.632025  0  1.961967  0  0  -0.576761  0  2.184678  0  0  -0.602537  0  2.173208  0  0  -0.311322  -0.558456  0  2.191944  0
O  O68  1  0.49085742  0.59587781  0.18607220  1  0  -0.692488  0  1.944141  0  0  -0.642256  0  2.183524  0  0  -0.667443  0  2.171708  0  0  -0.370785  -0.624315  0  2.191065  0
O  O69  1  0.50914183  0.40412356  0.81392984  1  0  -0.69248  0  1.943935  0  0  -0.642178  0  2.183391  0  0  -0.667364  0  2.171578  0  0  -0.370736  -0.624237  0  2.190927  0
O  O70  1  0.33098833  0.32389019  0.56905331  1  0  -0.884941  0  1.806801  0  0  -0.825267  0  1.963721  0  0  -0.845302  0  1.93183  0  0  -0.599509  -0.810939  0  1.986381  0
O  O71  1  0.66900959  0.67611023  0.43094743  1  0  -0.88492  0  1.806845  0  0  -0.82524  0  1.963742  0  0  -0.845273  0  1.931848  0  0  -0.599523  -0.810911  0  1.986396  0
O  O72  1  0.20042125  0.52411832  0.05946988  1  0  -0.8856  0  1.846243  0  0  -0.83255  0  2.033293  0  0  -0.852332  0  2.00593  0  0  -0.611678  -0.818336  0  2.052425  0
O  O73  1  0.79957665  0.47588015  0.94053120  1  0  -0.885557  0  1.846295  0  0  -0.832535  0  2.033313  0  0  -0.85232  0  2.005958  0  0  -0.611688  -0.818323  0  2.052443  0
O  O74  1  0.13597018  0.54218119  0.58120824  1  0  -0.839352  0  1.756292  0  0  -0.792454  0  1.902056  0  0  -0.809998  0  1.873988  0  0  -0.619897  -0.78004  0  1.922113  0
O  O75  1  0.86403033  0.45781921  0.41879358  1  0  -0.839359  0  1.756273  0  0  -0.792471  0  1.902046  0  0  -0.810014  0  1.873977  0  0  -0.619893  -0.780062  0  1.9221  0
O  O76  1  0.41617755  0.64915458  0.68312111  1  0  -0.85028  0  1.836308  0  0  -0.788717  0  2.004806  0  0  -0.808758  0  1.975735  0  0  -0.578153  -0.774526  0  2.025546  0
O  O77  1  0.58382163  0.35084486  0.31687848  1  0  -0.85031  0  1.836279  0  0  -0.788749  0  2.004784  0  0  -0.80879  0  1.97571  0  0  -0.578172  -0.774556  0  2.025529  0
