# generated using pymatgen
data_CoH22C24(N2O3)2
_symmetry_space_group_name_H-M   'P 1'
_cell_length_a   5.51368268
_cell_length_b   9.68503810
_cell_length_c   13.24370585
_cell_angle_alpha   87.79400684
_cell_angle_beta   94.41964225
_cell_angle_gamma   102.23337866
_symmetry_Int_Tables_number   1
_chemical_formula_structural   CoH22C24(N2O3)2
_chemical_formula_sum   'Co1 H22 C24 N4 O6'
_cell_volume   688.92432922
_cell_formula_units_Z   1
loop_
 _symmetry_equiv_pos_site_id
 _symmetry_equiv_pos_as_xyz
  1  'x, y, z'
loop_
 _atom_site_type_symbol
 _atom_site_label
 _atom_site_symmetry_multiplicity
 _atom_site_fract_x
 _atom_site_fract_y
 _atom_site_fract_z
 _atom_site_occupancy
 _atom_site_hle17_ddec_charge
 _atom_site_hle17_ddec_spin_density
 _atom_site_hle17_ddec_sum_bond_order
 _atom_site_hle17_magmom
 _atom_site_hse06_10hf_ddec_charge
 _atom_site_hse06_10hf_ddec_spin_density
 _atom_site_hse06_10hf_ddec_sum_bond_order
 _atom_site_hse06_10hf_magmom
 _atom_site_hse06_ddec_charge
 _atom_site_hse06_ddec_spin_density
 _atom_site_hse06_ddec_sum_bond_order
 _atom_site_hse06_magmom
 _atom_site_pbe_cm5_charge
 _atom_site_pbe_ddec_charge
 _atom_site_pbe_ddec_spin_density
 _atom_site_pbe_ddec_sum_bond_order
 _atom_site_pbe_magmom
Co  Co0  1  0.99999397  0.00000246  0.00000286  1  0.75399  1.102872  2.257069  1.016  0.73689  1.036848  2.685581  0.971  0.811334  1.03424  2.605585  0.978  0.636959  0.694206  1.033093  2.735849  0.959
H  H1  1  0.99771138  0.11232619  0.30040392  1  0.094918  -0.000105  0.949202  0.0  0.108847  -8.1e-05  1.002315  0.0  0.112816  -6.4e-05  0.99944  0.0  0.105654  0.105874  -9.7e-05  1.00433  0.0
H  H2  1  0.00230044  0.88767127  0.69959836  1  0.094912  -0.000105  0.949162  0.0  0.108831  -8.1e-05  1.002291  0.0  0.112808  -6.4e-05  0.999405  0.0  0.105636  0.105858  -9.7e-05  1.004303  0.0
H  H3  1  0.85735587  0.25674113  0.42714606  1  0.109505  -1e-06  0.946627  0.0  0.114098  -1e-05  1.011429  0.0  0.11825  -6e-06  1.008736  0.0  0.107296  0.111059  -1.3e-05  1.013471  0.0
H  H4  1  0.14266645  0.74325797  0.57284581  1  0.109523  -1e-06  0.946623  0.0  0.114166  -1e-05  1.011379  0.0  0.118289  -6e-06  1.00872  0.0  0.107289  0.111121  -1.3e-05  1.013426  0.0
H  H5  1  0.50211309  0.58645540  0.38803163  1  0.106006  2.2e-05  0.929459  0.0  0.116364  1.8e-05  0.986527  0.0  0.120043  1.3e-05  0.984596  0.0  0.108492  0.113714  2.5e-05  0.988  0.0
H  H6  1  0.49790734  0.41353447  0.61197529  1  0.106044  2.3e-05  0.929447  0.0  0.116417  1.8e-05  0.986485  0.0  0.120099  1.3e-05  0.984551  0.0  0.108431  0.113763  2.5e-05  0.98796  0.0
H  H7  1  0.64849286  0.43897048  0.26240452  1  0.094737  -9.1e-05  0.973003  0.0  0.102531  -5.4e-05  1.04083  0.0  0.105186  -3e-05  1.040243  0.0  0.101355  0.100743  -7.4e-05  1.041143  0.0
H  H8  1  0.35154246  0.56103652  0.73759894  1  0.094707  -8.9e-05  0.973149  0.0  0.10249  -5.4e-05  1.040947  0.0  0.105152  -3e-05  1.040359  0.0  0.101372  0.100701  -7.3e-05  1.041256  0.0
H  H9  1  0.38084388  0.87629763  0.10726204  1  0.103599  -0.000196  0.963487  0.0  0.107689  -0.00026  1.031186  0.0  0.111187  -0.000219  1.026613  0.0  0.119855  0.104737  -0.000278  1.035179  0.0
H  H10  1  0.61913778  0.12371383  0.89275194  1  0.103528  -0.000196  0.963675  0.0  0.107681  -0.00026  1.031284  0.0  0.111178  -0.00022  1.026718  0.0  0.119873  0.10473  -0.000278  1.035277  0.0
H  H11  1  0.40284253  0.64186877  0.18620699  1  0.098383  -0.000396  0.969802  0.0  0.108972  -0.000108  1.02751  0.0  0.111026  -8.1e-05  1.028677  0.0  0.104707  0.107498  -9.6e-05  1.026703  0.0
H  H12  1  0.59714773  0.35814839  0.81379959  1  0.098383  -0.000395  0.969844  0.0  0.108935  -0.000108  1.027563  0.0  0.110981  -8.1e-05  1.028742  0.0  0.104771  0.107458  -9.6e-05  1.026758  0.0
H  H13  1  0.02356857  0.44221981  0.16924939  1  0.101673  6.1e-05  0.951444  0.0  0.109233  -5.8e-05  1.016921  0.0  0.111534  -2.6e-05  1.015705  0.0  0.106063  0.106845  -0.000178  1.019598  0.0
H  H14  1  0.97644528  0.55778548  0.83074465  1  0.101722  6.1e-05  0.951517  0.0  0.109222  -5.8e-05  1.017057  0.0  0.111521  -2.5e-05  1.015841  0.0  0.106096  0.106846  -0.000178  1.019706  0.0
H  H15  1  0.64203996  0.49035225  0.07407082  1  0.105711  -0.000348  0.961739  0.0  0.113668  -6.7e-05  1.025876  0.0  0.116131  -6.5e-05  1.02635  0.0  0.106848  0.112044  -8e-05  1.025325  0.0
H  H16  1  0.35797209  0.50964900  0.92591938  1  0.105755  -0.000347  0.961689  0.0  0.113712  -6.7e-05  1.025809  0.0  0.116175  -6.5e-05  1.026281  0.0  0.106834  0.112084  -8e-05  1.025267  0.0
H  H17  1  0.64404299  0.73450263  0.00168153  1  0.085354  -0.0002  0.974493  0.0  0.087021  -0.000182  1.050105  0.0  0.089491  -0.000127  1.04717  0.0  0.117698  0.085043  -0.000238  1.05269  0.0
H  H18  1  0.35596877  0.26550815  0.99830796  1  0.085255  -0.0002  0.974405  0.0  0.086926  -0.000182  1.050061  0.0  0.089397  -0.000126  1.047124  0.0  0.117636  0.084942  -0.000238  1.052655  0.0
H  H19  1  0.29722324  0.89740072  0.89184386  1  0.41741  4e-05  0.876055  0.0  0.38786  -9.4e-05  0.951756  0.0  0.400378  -0.000113  0.934336  0.0  0.29094  0.379011  -5.1e-05  0.962916  0.0
H  H20  1  0.70273343  0.10258222  0.10814843  1  0.417485  4e-05  0.875954  0.0  0.387952  -9.4e-05  0.951625  0.0  0.400464  -0.000113  0.93421  0.0  0.290953  0.379104  -5.1e-05  0.962784  0.0
H  H21  1  0.07228474  0.96269527  0.84384707  1  0.407825  -0.000407  0.882064  0.0  0.378324  -0.000191  0.961748  0.0  0.390183  -0.000119  0.947849  0.0  0.293441  0.370039  -0.000261  0.970288  0.0
H  H22  1  0.92768457  0.03729982  0.15615606  1  0.407776  -0.000408  0.882242  0.0  0.378294  -0.000191  0.961878  0.0  0.390151  -0.00012  0.947906  0.0  0.29346  0.370011  -0.000261  0.970405  0.0
C  C23  1  0.39753220  0.18782470  0.18608283  1  0.638546  0.001542  3.912365  0.003  0.590613  0.002729  4.208753  0.004  0.624905  0.00185  4.202103  0.003  0.206795  0.5679  0.003498  4.211218  0.005
C  C24  1  0.60245594  0.81217399  0.81391380  1  0.638524  0.001541  3.912639  0.003  0.590674  0.002727  4.208924  0.004  0.62496  0.001847  4.202281  0.003  0.206836  0.567969  0.003496  4.211377  0.005
C  C25  1  0.32789145  0.26886171  0.27022472  1  -0.063264  0.000582  3.734587  0.001  -0.039111  0.0004  3.964663  0.001  -0.046985  0.000271  3.988374  0.001  -0.014865  -0.034506  0.000901  3.948875  0.001
C  C26  1  0.67212199  0.73113458  0.72977986  1  -0.063257  0.000582  3.734581  0.001  -0.039172  0.000403  3.964684  0.001  -0.047046  0.000271  3.988395  0.001  -0.014917  -0.034571  0.000902  3.948898  0.001
C  C27  1  0.10804093  0.21646755  0.31922944  1  -0.059227  -3.2e-05  3.748805  0.0  -0.082238  7.4e-05  3.992771  0.0  -0.082431  4.6e-05  4.013103  0.0  -0.081919  -0.082018  0.0002  3.979227  0.0
C  C28  1  0.89195101  0.78352841  0.68077933  1  -0.059166  -3.1e-05  3.748412  0.0  -0.082151  7.4e-05  3.992392  0.0  -0.082346  4.7e-05  4.012712  0.0  -0.081893  -0.081937  0.0002  3.978855  0.0
C  C29  1  0.02891648  0.29569972  0.39003863  1  -0.122769  -0.000442  3.71594  0.0  -0.140816  -0.000128  3.961941  0.0  -0.144674  -0.000131  3.983623  0.0  -0.081486  -0.138148  -0.000263  3.947326  0.0
C  C30  1  0.97111547  0.70429243  0.60996622  1  -0.122725  -0.000444  3.715374  0.0  -0.140829  -0.00013  3.961359  0.0  -0.144661  -0.000128  3.983066  0.0  -0.081389  -0.138154  -0.000262  3.946742  0.0
C  C31  1  0.16945127  0.43153222  0.41264957  1  0.157287  3.4e-05  3.811042  0.0  0.162856  0.000133  4.061769  0.0  0.163176  0.000101  4.086807  0.0  0.086463  0.162768  0.000299  4.044533  0.0
C  C32  1  0.83056929  0.56846020  0.58734904  1  0.157055  3.5e-05  3.810575  0.0  0.162624  0.000135  4.061329  0.0  0.162941  9.9e-05  4.086367  0.0  0.086428  0.162535  0.000299  4.044091  0.0
C  C33  1  0.39454904  0.48213329  0.36747289  1  -0.118049  -0.000152  3.712969  0.0  -0.141963  -0.000139  3.970613  0.0  -0.146259  -0.000146  3.991866  0.0  -0.077723  -0.139029  2.8e-05  3.955853  0.0
C  C34  1  0.60545422  0.51785311  0.63253829  1  -0.118124  -0.000153  3.713032  0.0  -0.142041  -0.000141  3.970637  0.0  -0.146338  -0.000141  3.991897  0.0  -0.077696  -0.139105  2.9e-05  3.955875  0.0
C  C35  1  0.47426049  0.40066475  0.29771524  1  -0.069877  0.000316  3.744503  0.0  -0.093716  0.000422  3.99671  0.001  -0.09408  0.000293  4.018403  0.0  -0.084006  -0.092838  0.000554  3.98143  0.001
C  C36  1  0.52575740  0.59933094  0.70228108  1  -0.069877  0.000313  3.744843  0.0  -0.09367  0.00042  3.997058  0.001  -0.094045  0.000291  4.01875  0.0  -0.084071  -0.092789  0.000553  3.981773  0.001
C  C37  1  0.22134944  0.78821910  0.10136262  1  0.124467  -0.012947  3.641297  -0.009  0.096246  -0.004516  3.890629  -0.003  0.106951  -0.002954  3.905511  -0.002  0.047347  0.087242  -0.006359  3.88309  -0.004
C  C38  1  0.77863940  0.21179107  0.89863634  1  0.124523  -0.012944  3.641365  -0.009  0.096259  -0.004515  3.890689  -0.003  0.106972  -0.002953  3.905571  -0.002  0.047296  0.087244  -0.006356  3.883162  -0.004
C  C39  1  0.23123456  0.65670983  0.14526416  1  -0.122852  0.003435  3.747154  0.005  -0.131531  0.000356  3.990473  0.001  -0.140562  0.000238  4.01234  0.001  -0.083844  -0.125263  0.000159  3.977014  0.001
C  C40  1  0.76875335  0.34329835  0.85473251  1  -0.122954  0.003432  3.747142  0.005  -0.131589  0.000356  3.990483  0.001  -0.140615  0.000237  4.012341  0.001  -0.083919  -0.125325  0.000159  3.977034  0.001
C  C41  1  0.02222347  0.54699421  0.13624926  1  -0.006361  -0.013538  3.718663  -0.009  -0.025946  -0.004736  3.965632  -0.003  -0.01919  -0.002684  3.98241  -0.002  -0.069357  -0.032769  -0.00747  3.957246  -0.004
C  C42  1  0.97777318  0.45300893  0.86374374  1  -0.006268  -0.013533  3.718915  -0.009  -0.025809  -0.004735  3.965879  -0.003  -0.01905  -0.002682  3.98265  -0.002  -0.069329  -0.032638  -0.007468  3.957502  -0.004
C  C43  1  0.80811420  0.57395529  0.08310578  1  -0.127165  0.003489  3.752932  0.005  -0.137775  0.00034  4.002633  0.001  -0.146088  0.000216  4.023153  0.001  -0.086503  -0.131906  0.000236  3.9896  0.001
C  C44  1  0.19188069  0.42605714  0.91689102  1  -0.127435  0.003487  3.753097  0.005  -0.138019  0.000339  4.002785  0.001  -0.14633  0.000215  4.023299  0.001  -0.086622  -0.13216  0.000236  3.989769  0.001
C  C45  1  0.80832404  0.70845048  0.04248387  1  0.108866  -0.015023  3.660757  -0.01  0.081522  -0.00561  3.912554  -0.004  0.091438  -0.003612  3.929809  -0.002  0.04392  0.074566  -0.006344  3.903215  -0.004
C  C46  1  0.19167047  0.29156089  0.95751291  1  0.109147  -0.015023  3.66046  -0.01  0.081773  -0.00561  3.912314  -0.004  0.091693  -0.003612  3.929572  -0.002  0.04408  0.074865  -0.006344  3.902888  -0.004
N  N47  1  0.09913269  0.52521406  0.47830742  1  -0.155814  -0.000229  3.001111  0.0  -0.134727  0.00015  3.285244  0.0  -0.132772  8e-05  3.29078  0.0  -0.149479  -0.135936  0.000123  3.281276  0.0
N  N48  1  0.90090187  0.47477216  0.52168987  1  -0.155602  -0.00023  3.000822  0.0  -0.134503  0.000152  3.284939  0.0  -0.132546  8e-05  3.290481  0.0  -0.149475  -0.135713  0.000124  3.280972  0.0
N  N49  1  0.01198290  0.81437992  0.05139740  1  -0.251586  -0.015792  3.366027  -0.01  -0.20241  -0.011924  3.648326  -0.008  -0.230163  -0.011658  3.665082  -0.009  -0.3476  -0.185771  -0.011861  3.638396  -0.008
N  N50  1  0.98800115  0.18563109  0.94860527  1  -0.251589  -0.015787  3.365792  -0.01  -0.20241  -0.011921  3.648124  -0.008  -0.230185  -0.011656  3.66491  -0.009  -0.347558  -0.185776  -0.011859  3.638203  -0.008
O  O51  1  0.24044744  0.07760335  0.15606576  1  -0.657331  0.012776  2.059557  0.02  -0.606867  0.012432  2.305584  0.018  -0.636614  0.009908  2.292679  0.015  -0.314808  -0.585591  0.016051  2.312796  0.024
O  O52  1  0.75952224  0.92238084  0.84394413  1  -0.657161  0.012771  2.05975  0.02  -0.606764  0.01243  2.305769  0.018  -0.636505  0.009908  2.29288  0.015  -0.314724  -0.585485  0.016048  2.312975  0.024
O  O53  1  0.60447670  0.23395355  0.14733910  1  -0.625266  0.001031  1.948552  0.002  -0.573741  0.001953  2.173806  0.004  -0.599191  0.00132  2.165829  0.003  -0.320719  -0.555059  0.002419  2.178046  0.005
O  O54  1  0.39552081  0.76604632  0.85265616  1  -0.625336  0.00103  1.948675  0.002  -0.573784  0.001952  2.17382  0.004  -0.599231  0.001321  2.165845  0.003  -0.320812  -0.555103  0.002417  2.178056  0.005
O  O55  1  0.22201573  0.98546541  0.89324037  1  -0.751757  -0.014865  1.991179  -0.012  -0.723531  -0.009276  2.224537  -0.008  -0.759433  -0.009426  2.192854  -0.008  -0.553021  -0.697445  -0.007381  2.243324  -0.006
O  O56  1  0.77797174  0.01452578  0.10675848  1  -0.751808  -0.014864  1.991371  -0.012  -0.723578  -0.009273  2.224662  -0.008  -0.75947  -0.009425  2.192929  -0.008  -0.55309  -0.697488  -0.007378  2.243442  -0.006
