# generated using pymatgen
data_ZnH10C11(N3O)2
_symmetry_space_group_name_H-M   'P 1'
_cell_length_a   9.23533688
_cell_length_b   9.92898831
_cell_length_c   13.97948644
_cell_angle_alpha   89.99999753
_cell_angle_beta   90.00013656
_cell_angle_gamma   89.99988102
_symmetry_Int_Tables_number   1
_chemical_formula_structural   ZnH10C11(N3O)2
_chemical_formula_sum   'Zn4 H40 C44 N24 O8'
_cell_volume   1281.88468371
_cell_formula_units_Z   4
loop_
 _symmetry_equiv_pos_site_id
 _symmetry_equiv_pos_as_xyz
  1  'x, y, z'
loop_
 _atom_site_type_symbol
 _atom_site_label
 _atom_site_symmetry_multiplicity
 _atom_site_fract_x
 _atom_site_fract_y
 _atom_site_fract_z
 _atom_site_occupancy
 _atom_site_hle17_bader_spin_density
 _atom_site_hle17_ddec_charge
 _atom_site_hle17_ddec_spin_density
 _atom_site_hle17_ddec_sum_bond_order
 _atom_site_hle17_magmom
 _atom_site_hse06_10hf_bader_spin_density
 _atom_site_hse06_10hf_ddec_charge
 _atom_site_hse06_10hf_ddec_spin_density
 _atom_site_hse06_10hf_ddec_sum_bond_order
 _atom_site_hse06_10hf_magmom
 _atom_site_hse06_bader_spin_density
 _atom_site_hse06_ddec_charge
 _atom_site_hse06_ddec_spin_density
 _atom_site_hse06_ddec_sum_bond_order
 _atom_site_hse06_magmom
 _atom_site_pbe_bader_spin_density
 _atom_site_pbe_cm5_charge
 _atom_site_pbe_ddec_charge
 _atom_site_pbe_ddec_spin_density
 _atom_site_pbe_ddec_sum_bond_order
 _atom_site_pbe_magmom
Zn  Zn0  1  0.12764107  0.57794998  0.85136040  1  0  0.956768  0  1.934461  0  0  0.753951  0  2.42514  0  0  0.796719  0  2.374972  0  0  0.733862  0.723441  0  2.460943  0
Zn  Zn1  1  0.37235583  0.42204968  0.35135725  1  0  0.956854  0  1.934395  0  0  0.754091  0  2.425048  0  0  0.79686  0  2.374879  0  0  0.733897  0.723587  0  2.460849  0
Zn  Zn2  1  0.87236017  0.07795170  0.64864039  1  0  0.956827  0  1.934371  0  0  0.754041  0  2.42503  0  0  0.796806  0  2.374863  0  0  0.733875  0.723532  0  2.460836  0
Zn  Zn3  1  0.62764500  0.92205003  0.14864184  1  0  0.956841  0  1.934429  0  0  0.754073  0  2.425092  0  0  0.796835  0  2.374931  0  0  0.733894  0.723569  0  2.460904  0
H  H4  1  0.31698203  0.48778049  0.65004915  1  0  0.112398  0  0.990227  0  0  0.11192  0  1.070289  0  0  0.116166  0  1.066119  0  0  0.102453  0.108778  0  1.073739  0
H  H5  1  0.18300764  0.51222824  0.15004642  1  0  0.112361  0  0.990336  0  0  0.111907  0  1.070363  0  0  0.116149  0  1.066192  0  0  0.102458  0.108765  0  1.073812  0
H  H6  1  0.68301721  0.98777871  0.84995306  1  0  0.112441  0  0.990281  0  0  0.111974  0  1.070315  0  0  0.116221  0  1.066146  0  0  0.102473  0.10883  0  1.073769  0
H  H7  1  0.81699085  0.01222703  0.34995127  1  0  0.112349  0  0.990376  0  0  0.111931  0  1.070373  0  0  0.116173  0  1.066205  0  0  0.102442  0.108786  0  1.073825  0
H  H8  1  0.81556174  0.56175129  0.78826778  1  0  0.107722  0  0.987536  0  0  0.111314  0  1.060491  0  0  0.114413  0  1.059305  0  0  0.100708  0.108295  0  1.062462  0
H  H9  1  0.68443419  0.43824438  0.28827078  1  0  0.107787  0  0.987448  0  0  0.111336  0  1.060454  0  0  0.114462  0  1.05924  0  0  0.100734  0.108318  0  1.062426  0
H  H10  1  0.18443845  0.06174930  0.71173158  1  0  0.107716  0  0.987535  0  0  0.111308  0  1.060486  0  0  0.114407  0  1.059301  0  0  0.100714  0.108288  0  1.062458  0
H  H11  1  0.31556661  0.93824634  0.21172761  1  0  0.107779  0  0.987441  0  0  0.111323  0  1.060464  0  0  0.11445  0  1.059246  0  0  0.100726  0.108301  0  1.062436  0
H  H12  1  0.78057200  0.47978124  0.61860273  1  0  0.086309  0  0.992501  0  0  0.091349  0  1.06577  0  0  0.094565  0  1.063443  0  0  0.096572  0.088725  0  1.068037  0
H  H13  1  0.71941573  0.52021544  0.11860434  1  0  0.086359  0  0.992453  0  0  0.091432  0  1.06567  0  0  0.094649  0  1.06334  0  0  0.096633  0.08881  0  1.067935  0
H  H14  1  0.21942509  0.97978539  0.88139805  1  0  0.086311  0  0.992491  0  0  0.091342  0  1.065773  0  0  0.094561  0  1.063442  0  0  0.096568  0.088719  0  1.068035  0
H  H15  1  0.28058274  0.02021326  0.38139406  1  0  0.08633  0  0.99248  0  0  0.091399  0  1.065717  0  0  0.094619  0  1.063384  0  0  0.096593  0.088779  0  1.067974  0
H  H16  1  0.37909066  0.64386481  0.99223488  1  0  0.098057  0  0.970869  0  0  0.100851  0  1.044043  0  0  0.104045  0  1.039523  0  0  0.140342  0.09856  0  1.047263  0
H  H17  1  0.12091000  0.35614492  0.49223348  1  0  0.09804  0  0.97089  0  0  0.100831  0  1.044062  0  0  0.104023  0  1.039542  0  0  0.140326  0.098545  0  1.047272  0
H  H18  1  0.62091151  0.14386198  0.50776664  1  0  0.098106  0  0.970809  0  0  0.10086  0  1.044028  0  0  0.104055  0  1.039507  0  0  0.140348  0.098572  0  1.047246  0
H  H19  1  0.87909206  0.85613672  0.00776491  1  0  0.098152  0  0.970894  0  0  0.100933  0  1.044057  0  0  0.104126  0  1.039539  0  0  0.14038  0.098644  0  1.047275  0
H  H20  1  0.84599964  0.34278736  0.91160782  1  0  0.105516  0  0.929676  0  0  0.122166  0  0.983635  0  0  0.123573  0  0.983879  0  0  0.103817  0.121089  0  0.983526  0
H  H21  1  0.65399998  0.65721133  0.41160718  1  0  0.10552  0  0.929639  0  0  0.12216  0  0.983617  0  0  0.123558  0  0.983857  0  0  0.103824  0.121096  0  0.98349  0
H  H22  1  0.15399992  0.84278863  0.58839439  1  0  0.105531  0  0.929622  0  0  0.122173  0  0.983598  0  0  0.123577  0  0.983845  0  0  0.103824  0.121123  0  0.983459  0
H  H23  1  0.34600036  0.15721306  0.08839193  1  0  0.105528  0  0.929645  0  0  0.122188  0  0.983605  0  0  0.123594  0  0.983848  0  0  0.103831  0.121112  0  0.983492  0
H  H24  1  0.84574313  0.17405617  0.86944176  1  0  0.09039  0  0.951606  0  0  0.100581  0  1.020748  0  0  0.102374  0  1.019394  0  0  0.099754  0.099177  0  1.021928  0
H  H25  1  0.65425526  0.82594353  0.36944111  1  0  0.090376  0  0.951563  0  0  0.100569  0  1.020712  0  0  0.102354  0  1.019352  0  0  0.099754  0.099162  0  1.021895  0
H  H26  1  0.15425681  0.67405744  0.63056047  1  0  0.090365  0  0.951628  0  0  0.100556  0  1.020769  0  0  0.102346  0  1.019416  0  0  0.099753  0.099152  0  1.021958  0
H  H27  1  0.34574471  0.32594526  0.13055799  1  0  0.090378  0  0.951552  0  0  0.10058  0  1.020697  0  0  0.102372  0  1.01934  0  0  0.099759  0.099175  0  1.021877  0
H  H28  1  0.10089865  0.31187254  0.97356445  1  0  0.10053  0  0.966085  0  0  0.120871  0  1.02782  0  0  0.12245  0  1.027928  0  0  0.08585  0.119678  0  1.027881  0
H  H29  1  0.39910194  0.68812711  0.47356491  1  0  0.100518  0  0.966071  0  0  0.120824  0  1.027849  0  0  0.122402  0  1.027959  0  0  0.085831  0.119632  0  1.027905  0
H  H30  1  0.89910098  0.81187337  0.52643705  1  0  0.100437  0  0.966055  0  0  0.120795  0  1.027781  0  0  0.122373  0  1.027891  0  0  0.085811  0.119604  0  1.027842  0
H  H31  1  0.60089941  0.18812835  0.02643492  1  0  0.100544  0  0.96608  0  0  0.120851  0  1.027844  0  0  0.122428  0  1.027955  0  0  0.085845  0.119661  0  1.027904  0
H  H32  1  0.10037360  0.14327430  0.93062439  1  0  0.094362  0  0.979717  0  0  0.111499  0  1.049763  0  0  0.11262  0  1.050392  0  0  0.082161  0.1108  0  1.049166  0
H  H33  1  0.39962899  0.85672637  0.43062556  1  0  0.094345  0  0.979771  0  0  0.111479  0  1.049813  0  0  0.112597  0  1.050444  0  0  0.082178  0.110779  0  1.049216  0
H  H34  1  0.89962857  0.64327412  0.56937712  1  0  0.094375  0  0.979741  0  0  0.111516  0  1.049781  0  0  0.112639  0  1.050408  0  0  0.082168  0.110817  0  1.049186  0
H  H35  1  0.60037306  0.35672660  0.06937426  1  0  0.094325  0  0.979761  0  0  0.111444  0  1.049816  0  0  0.112563  0  1.050444  0  0  0.082158  0.110745  0  1.049221  0
H  H36  1  0.98003879  0.19220493  0.02352738  1  0  0.104031  0  0.937142  0  0  0.127862  0  0.990429  0  0  0.129186  0  0.991217  0  0  0.089316  0.126759  0  0.990118  0
H  H37  1  0.51996267  0.80779377  0.52352821  1  0  0.104061  0  0.937068  0  0  0.127889  0  0.990364  0  0  0.129215  0  0.991151  0  0  0.089318  0.126786  0  0.990052  0
H  H38  1  0.01996255  0.69220544  0.47647459  1  0  0.104063  0  0.937088  0  0  0.127909  0  0.990363  0  0  0.129236  0  0.99115  0  0  0.089336  0.126807  0  0.990052  0
H  H39  1  0.48003913  0.30779623  0.97647115  1  0  0.104051  0  0.937071  0  0  0.127869  0  0.99037  0  0  0.129196  0  0.991156  0  0  0.089303  0.126769  0  0.990059  0
H  H40  1  0.65012891  0.62124492  0.95307986  1  0  0.334238  0  0.87455  0  0  0.312957  0  0.939542  0  0  0.3217  0  0.931855  0  0  0.325229  0.306575  0  0.945425  0
H  H41  1  0.84986977  0.37875276  0.45307668  1  0  0.334263  0  0.874533  0  0  0.312986  0  0.939529  0  0  0.321729  0  0.931838  0  0  0.325243  0.306605  0  0.945408  0
H  H42  1  0.34987223  0.12124564  0.54692165  1  0  0.334291  0  0.874514  0  0  0.313008  0  0.939508  0  0  0.32175  0  0.931821  0  0  0.325255  0.306625  0  0.945388  0
H  H43  1  0.15013115  0.87875202  0.04692171  1  0  0.334275  0  0.874653  0  0  0.313003  0  0.939624  0  0  0.321744  0  0.931938  0  0  0.325262  0.30662  0  0.945507  0
C  C44  1  0.54852201  0.48001110  0.62579952  1  0  -0.077264  0  3.775442  0  0  -0.054892  0  4.009639  0  0  -0.065007  0  4.036218  0  0  -0.029382  -0.048199  0  3.991521  0
C  C45  1  0.95147008  0.51999264  0.12579864  1  0  -0.077241  0  3.775561  0  0  -0.05481  0  4.009675  0  0  -0.064926  0  4.036254  0  0  -0.029321  -0.048122  0  3.991561  0
C  C46  1  0.45147833  0.98001581  0.87420269  1  0  -0.077253  0  3.775389  0  0  -0.054816  0  4.009501  0  0  -0.064927  0  4.03608  0  0  -0.029313  -0.048116  0  3.991379  0
C  C47  1  0.04852731  0.01998587  0.37420048  1  0  -0.077355  0  3.775459  0  0  -0.054901  0  4.009567  0  0  -0.06501  0  4.036143  0  0  -0.0294  -0.048205  0  3.991451  0
C  C48  1  0.53613249  0.44073219  0.52248813  1  0  0.642414  0  3.917158  0  0  0.593365  0  4.211631  0  0  0.627092  0  4.20504  0  0  0.20432  0.570425  0  4.215228  0
C  C49  1  0.96385381  0.55927155  0.02248727  1  0  0.642411  0  3.917559  0  0  0.593312  0  4.212049  0  0  0.627041  0  4.205462  0  0  0.204301  0.570375  0  4.215643  0
C  C50  1  0.46386685  0.94073183  0.97751408  1  0  0.642382  0  3.917437  0  0  0.593312  0  4.211902  0  0  0.62704  0  4.205317  0  0  0.204288  0.570376  0  4.215497  0
C  C51  1  0.03614349  0.05926883  0.47751256  1  0  0.642551  0  3.917326  0  0  0.593458  0  4.211805  0  0  0.627185  0  4.205217  0  0  0.204367  0.570518  0  4.215404  0
C  C52  1  0.42413571  0.50324622  0.68064478  1  0  -0.135204  0  3.699317  0  0  -0.162776  0  3.945706  0  0  -0.161964  0  3.963669  0  0  -0.087226  -0.163203  0  3.934059  0
C  C53  1  0.07585299  0.49675748  0.18064116  1  0  -0.135088  0  3.699369  0  0  -0.162692  0  3.945729  0  0  -0.161875  0  3.963689  0  0  -0.087148  -0.163118  0  3.934079  0
C  C54  1  0.57586352  0.00324548  0.81935673  1  0  -0.135161  0  3.699526  0  0  -0.162793  0  3.94586  0  0  -0.161987  0  3.963828  0  0  -0.087242  -0.163227  0  3.934221  0
C  C55  1  0.92414551  0.99675221  0.31935579  1  0  -0.135261  0  3.699399  0  0  -0.162949  0  3.945763  0  0  -0.162137  0  3.963726  0  0  -0.087261  -0.163379  0  3.934121  0
C  C56  1  0.44364351  0.54622943  0.77494011  1  0  0.135821  0  3.809887  0  0  0.136929  0  4.047336  0  0  0.138348  0  4.071613  0  0  0.083929  0.135879  0  4.031066  0
C  C57  1  0.05635419  0.45377225  0.27493717  1  0  0.135922  0  3.809756  0  0  0.136944  0  4.047139  0  0  0.138358  0  4.071411  0  0  0.083861  0.135897  0  4.030873  0
C  C58  1  0.55635562  0.04622671  0.72506069  1  0  0.135741  0  3.809986  0  0  0.136902  0  4.047304  0  0  0.138316  0  4.071581  0  0  0.08392  0.135865  0  4.031038  0
C  C59  1  0.94364549  0.95376594  0.22506049  1  0  0.135965  0  3.809656  0  0  0.137062  0  4.04698  0  0  0.138473  0  4.071256  0  0  0.083933  0.136013  0  4.030714  0
C  C60  1  0.58474182  0.56558675  0.81230783  1  0  0.170769  0  3.774882  0  0  0.163493  0  4.0114  0  0  0.168881  0  4.033361  0  0  0.101663  0.16  0  3.996614  0
C  C61  1  0.91525094  0.43440590  0.31230331  1  0  0.170477  0  3.775401  0  0  0.163471  0  4.011557  0  0  0.168872  0  4.033498  0  0  0.101617  0.159969  0  3.996782  0
C  C62  1  0.41525727  0.06558331  0.68769297  1  0  0.170672  0  3.775096  0  0  0.163493  0  4.011427  0  0  0.168887  0  4.033378  0  0  0.101603  0.159981  0  3.996646  0
C  C63  1  0.08474986  0.93440126  0.18769435  1  0  0.170505  0  3.775263  0  0  0.163447  0  4.011462  0  0  0.16885  0  4.033402  0  0  0.101628  0.159943  0  3.996684  0
C  C64  1  0.70906098  0.54397013  0.75784956  1  0  -0.149324  0  3.749826  0  0  -0.165996  0  4.000622  0  0  -0.170333  0  4.021085  0  0  -0.099019  -0.162253  0  3.986385  0
C  C65  1  0.79093591  0.45602555  0.25784986  1  0  -0.149247  0  3.750082  0  0  -0.165967  0  4.000827  0  0  -0.170332  0  4.021271  0  0  -0.098991  -0.162218  0  3.986594  0
C  C66  1  0.29093816  0.04397095  0.74215124  1  0  -0.149238  0  3.749909  0  0  -0.165949  0  4.000681  0  0  -0.170291  0  4.021147  0  0  -0.099009  -0.162203  0  3.98644  0
C  C67  1  0.20906267  0.95602167  0.24214781  1  0  -0.149232  0  3.750083  0  0  -0.165945  0  4.000838  0  0  -0.170311  0  4.021281  0  0  -0.09899  -0.162197  0  3.986601  0
C  C68  1  0.68819644  0.49982567  0.66468446  1  0  -0.074244  0  3.766592  0  0  -0.102044  0  4.020883  0  0  -0.102044  0  4.043311  0  0  -0.094904  -0.101502  0  4.00503  0
C  C69  1  0.81179363  0.50017101  0.16468336  1  0  -0.074295  0  3.766463  0  0  -0.102146  0  4.020739  0  0  -0.102149  0  4.043176  0  0  -0.09496  -0.101601  0  4.004886  0
C  C70  1  0.31180061  0.99983065  0.83531703  1  0  -0.074285  0  3.766384  0  0  -0.102099  0  4.020672  0  0  -0.102101  0  4.043102  0  0  -0.094926  -0.101574  0  4.00482  0
C  C71  1  0.18820489  0.00016599  0.33531433  1  0  -0.074223  0  3.766344  0  0  -0.102069  0  4.020587  0  0  -0.102079  0  4.043028  0  0  -0.094912  -0.101531  0  4.004732  0
C  C72  1  0.42249451  0.61323426  0.92354140  1  0  0.277822  0  3.641132  0  0  0.209881  0  3.919415  0  0  0.228075  0  3.928381  0  0  0.168587  0.197981  0  3.913011  0
C  C73  1  0.07750373  0.38676943  0.42353922  1  0  0.277962  0  3.641151  0  0  0.210021  0  3.919448  0  0  0.228215  0  3.928416  0  0  0.168687  0.198121  0  3.913044  0
C  C74  1  0.57750665  0.11323252  0.57646011  1  0  0.277885  0  3.640932  0  0  0.209973  0  3.919234  0  0  0.228166  0  3.928199  0  0  0.168707  0.198079  0  3.912838  0
C  C75  1  0.92249717  0.88676417  0.07645702  1  0  0.277863  0  3.6411  0  0  0.209923  0  3.9194  0  0  0.228115  0  3.928367  0  0  0.168653  0.198021  0  3.913002  0
C  C76  1  0.97342740  0.30896103  0.78961203  1  0  0.371468  0  3.687426  0  0  0.344244  0  3.953474  0  0  0.358412  0  3.969502  0  0  0.238975  0.334889  0  3.941937  0
C  C77  1  0.52656853  0.69104068  0.28961261  1  0  0.371435  0  3.687343  0  0  0.34425  0  3.953376  0  0  0.35841  0  3.969389  0  0  0.238946  0.334891  0  3.941842  0
C  C78  1  0.02657007  0.80896053  0.71038876  1  0  0.371618  0  3.687288  0  0  0.344209  0  3.95357  0  0  0.358376  0  3.969598  0  0  0.238925  0.33486  0  3.942035  0
C  C79  1  0.47343065  0.19104015  0.21038649  1  0  0.371534  0  3.687322  0  0  0.344258  0  3.953464  0  0  0.358429  0  3.969483  0  0  0.238935  0.334902  0  3.941928  0
C  C80  1  0.91500853  0.26170753  0.88310683  1  0  -0.167825  0  3.718101  0  0  -0.200534  0  3.968683  0  0  -0.203038  0  3.979733  0  0  -0.153692  -0.198539  0  3.960667  0
C  C81  1  0.58498990  0.73829317  0.38310751  1  0  -0.167757  0  3.717953  0  0  -0.200474  0  3.968547  0  0  -0.202932  0  3.979533  0  0  -0.153684  -0.198486  0  3.960526  0
C  C82  1  0.08499013  0.76170692  0.61689467  1  0  -0.16785  0  3.717978  0  0  -0.200507  0  3.96864  0  0  -0.203003  0  3.979683  0  0  -0.153693  -0.198541  0  3.960631  0
C  C83  1  0.41501134  0.23829376  0.11689231  1  0  -0.167831  0  3.717993  0  0  -0.200558  0  3.96862  0  0  -0.203053  0  3.979655  0  0  -0.153715  -0.198561  0  3.960598  0
C  C84  1  0.03166681  0.22527366  0.95682129  1  0  -0.269205  0  3.685087  0  0  -0.342715  0  3.925486  0  0  -0.345485  0  3.936007  0  0  -0.24591  -0.340433  0  3.918037  0
C  C85  1  0.46833480  0.77472600  0.45682257  1  0  -0.269197  0  3.685077  0  0  -0.342667  0  3.925485  0  0  -0.345452  0  3.935995  0  0  -0.245902  -0.340391  0  3.918037  0
C  C86  1  0.96833410  0.72527234  0.54318021  1  0  -0.269146  0  3.685007  0  0  -0.342671  0  3.925381  0  0  -0.345448  0  3.935901  0  0  -0.245881  -0.340395  0  3.917947  0
C  C87  1  0.53166744  0.27472737  0.04317725  1  0  -0.26918  0  3.685065  0  0  -0.342628  0  3.925488  0  0  -0.345403  0  3.93601  0  0  -0.245865  -0.34035  0  3.918041  0
N  N88  1  0.34456222  0.57774633  0.84719948  1  0  -0.442515  0  3.227384  0  0  -0.362024  0  3.524693  0  0  -0.383363  0  3.534239  0  0  -0.359797  -0.347  0  3.517658  0
N  N89  1  0.15543574  0.42225736  0.34719670  1  0  -0.442669  0  3.227494  0  0  -0.36217  0  3.524801  0  0  -0.38351  0  3.534348  0  0  -0.359873  -0.347147  0  3.517769  0
N  N90  1  0.65543901  0.07774242  0.65280203  1  0  -0.442524  0  3.227344  0  0  -0.36207  0  3.524636  0  0  -0.383406  0  3.534182  0  0  -0.359893  -0.347052  0  3.517616  0
N  N91  1  0.84456509  0.92225225  0.15280025  1  0  -0.442569  0  3.227375  0  0  -0.362064  0  3.524645  0  0  -0.383404  0  3.534198  0  0  -0.359837  -0.347042  0  3.517618  0
N  N92  1  0.56627050  0.60743191  0.90571325  1  0  -0.327721  0  3.375327  0  0  -0.265981  0  3.612463  0  0  -0.283894  0  3.623652  0  0  -0.365262  -0.25413  0  3.605339  0
N  N93  1  0.93372909  0.39256577  0.40571091  1  0  -0.327783  0  3.375487  0  0  -0.266143  0  3.612581  0  0  -0.284059  0  3.623763  0  0  -0.36534  -0.254285  0  3.605462  0
N  N94  1  0.43372958  0.10742945  0.59428827  1  0  -0.327877  0  3.375332  0  0  -0.266172  0  3.612435  0  0  -0.284084  0  3.623618  0  0  -0.365353  -0.254317  0  3.605314  0
N  N95  1  0.06627288  0.89256116  0.09428604  1  0  -0.327818  0  3.375526  0  0  -0.266168  0  3.612646  0  0  -0.284086  0  3.623828  0  0  -0.365363  -0.254311  0  3.605524  0
N  N96  1  0.04866943  0.42328677  0.77506141  1  0  -0.36172  0  3.202538  0  0  -0.287602  0  3.506436  0  0  -0.306626  0  3.515933  0  0  -0.248184  -0.274686  0  3.50098  0
N  N97  1  0.45132394  0.57671592  0.27506052  1  0  -0.361811  0  3.202548  0  0  -0.287743  0  3.50649  0  0  -0.306768  0  3.515985  0  0  -0.248209  -0.274836  0  3.50105  0
N  N98  1  0.95132995  0.92328749  0.72494009  1  0  -0.361823  0  3.202514  0  0  -0.287669  0  3.5065  0  0  -0.306695  0  3.515997  0  0  -0.24818  -0.274755  0  3.501033  0
N  N99  1  0.54867549  0.07671624  0.22493859  1  0  -0.361796  0  3.202578  0  0  -0.287682  0  3.506519  0  0  -0.306711  0  3.516018  0  0  -0.248177  -0.274775  0  3.501081  0
N  N100  1  0.07264780  0.43384271  0.67952501  1  0  -0.077219  0  2.983401  0  0  -0.061428  0  3.270301  0  0  -0.061542  0  3.282323  0  0  -0.084659  -0.061864  0  3.263524  0
N  N101  1  0.42734848  0.56616401  0.17952266  1  0  -0.077249  0  2.983272  0  0  -0.061441  0  3.270164  0  0  -0.061553  0  3.282187  0  0  -0.084664  -0.061885  0  3.263389  0
N  N102  1  0.92735481  0.93384045  0.82047935  1  0  -0.077283  0  2.98332  0  0  -0.061462  0  3.270166  0  0  -0.06157  0  3.282178  0  0  -0.084675  -0.061909  0  3.263396  0
N  N103  1  0.57265206  0.06616227  0.32047717  1  0  -0.077267  0  2.983314  0  0  -0.061446  0  3.270161  0  0  -0.061556  0  3.282181  0  0  -0.084635  -0.061872  0  3.263378  0
N  N104  1  0.01609873  0.33031862  0.63714931  1  0  -0.061919  0  2.991984  0  0  -0.057238  0  3.289606  0  0  -0.05583  0  3.300346  0  0  -0.085039  -0.058012  0  3.282932  0
N  N105  1  0.48390280  0.66968709  0.13714847  1  0  -0.061854  0  2.991837  0  0  -0.057173  0  3.289455  0  0  -0.055769  0  3.300199  0  0  -0.08502  -0.057937  0  3.282781  0
N  N106  1  0.98390410  0.83031524  0.86285291  1  0  -0.06184  0  2.991857  0  0  -0.057167  0  3.28946  0  0  -0.055761  0  3.3002  0  0  -0.085011  -0.057934  0  3.282786  0
N  N107  1  0.51609859  0.16968748  0.36285064  1  0  -0.061828  0  2.991902  0  0  -0.057148  0  3.289514  0  0  -0.055742  0  3.300256  0  0  -0.085032  -0.057923  0  3.282841  0
N  N108  1  0.95409505  0.24969318  0.70388211  1  0  -0.3609  0  3.199395  0  0  -0.290843  0  3.511613  0  0  -0.309827  0  3.521231  0  0  -0.242918  -0.277689  0  3.505127  0
N  N109  1  0.54590599  0.75030854  0.20388344  1  0  -0.360904  0  3.199369  0  0  -0.29086  0  3.511579  0  0  -0.309846  0  3.521203  0  0  -0.242921  -0.27771  0  3.505102  0
N  N110  1  0.04590364  0.74969163  0.79611796  1  0  -0.360935  0  3.199302  0  0  -0.290798  0  3.511549  0  0  -0.30978  0  3.521168  0  0  -0.242907  -0.277653  0  3.50507  0
N  N111  1  0.45409522  0.25030804  0.29611638  1  0  -0.36097  0  3.199396  0  0  -0.290899  0  3.511634  0  0  -0.309884  0  3.521248  0  0  -0.242926  -0.277752  0  3.505152  0
O  O112  1  0.40476311  0.43338816  0.48938238  1  0  -0.649219  0  2.056253  0  0  -0.568906  0  2.331694  0  0  -0.597272  0  2.316703  0  0  -0.339319  -0.548885  0  2.341571  0
O  O113  1  0.09522887  0.56661754  0.98938405  1  0  -0.64918  0  2.056352  0  0  -0.56882  0  2.33178  0  0  -0.59719  0  2.316797  0  0  -0.339292  -0.548792  0  2.341648  0
O  O114  1  0.59523986  0.93338757  0.01061672  1  0  -0.649185  0  2.056319  0  0  -0.568915  0  2.331847  0  0  -0.597262  0  2.316804  0  0  -0.339299  -0.548905  0  2.341731  0
O  O115  1  0.90476806  0.06661315  0.51061532  1  0  -0.649189  0  2.056327  0  0  -0.568846  0  2.331756  0  0  -0.597215  0  2.316768  0  0  -0.339268  -0.548827  0  2.341633  0
O  O116  1  0.64765624  0.42134340  0.47285550  1  0  -0.634394  0  1.947774  0  0  -0.590341  0  2.183567  0  0  -0.612488  0  2.173453  0  0  -0.322254  -0.574732  0  2.190389  0
O  O117  1  0.85233710  0.57865932  0.97285542  1  0  -0.634393  0  1.948062  0  0  -0.590343  0  2.183883  0  0  -0.612477  0  2.173736  0  0  -0.322251  -0.574736  0  2.190699  0
O  O118  1  0.35234567  0.92134126  0.02714503  1  0  -0.634343  0  1.947882  0  0  -0.590284  0  2.183683  0  0  -0.612432  0  2.173565  0  0  -0.322224  -0.574677  0  2.1905  0
O  O119  1  0.14766305  0.07865841  0.52714323  1  0  -0.634436  0  1.947847  0  0  -0.590404  0  2.183704  0  0  -0.612533  0  2.173548  0  0  -0.322293  -0.574804  0  2.190533  0
