# generated using pymatgen
data_ZnH8C2(BrN)2
_symmetry_space_group_name_H-M   'P 1'
_cell_length_a   7.19912800
_cell_length_b   9.86617802
_cell_length_c   11.34070566
_cell_angle_alpha   115.76343715
_cell_angle_beta   108.51792500
_cell_angle_gamma   89.99959937
_symmetry_Int_Tables_number   1
_chemical_formula_structural   ZnH8C2(BrN)2
_chemical_formula_sum   'Zn4 H32 C8 Br8 N8'
_cell_volume   678.82965675
_cell_formula_units_Z   4
loop_
 _symmetry_equiv_pos_site_id
 _symmetry_equiv_pos_as_xyz
  1  'x, y, z'
loop_
 _atom_site_type_symbol
 _atom_site_label
 _atom_site_symmetry_multiplicity
 _atom_site_fract_x
 _atom_site_fract_y
 _atom_site_fract_z
 _atom_site_occupancy
 _atom_site_pbe_bader_spin_density
 _atom_site_pbe_cm5_charge
 _atom_site_pbe_ddec_charge
 _atom_site_pbe_ddec_spin_density
 _atom_site_pbe_ddec_sum_bond_order
 _atom_site_pbe_magmom
Zn  Zn0  1  0.92417006  0.78173445  0.50010778  1  0  0.500041  0.632254  0  2.527071  0
Zn  Zn1  1  0.07591549  0.28153270  0.49993245  1  0  0.500078  0.631918  0  2.527275  0
Zn  Zn2  1  0.50011683  0.31097296  0.00006557  1  0  0.511058  0.633706  0  2.512955  0
Zn  Zn3  1  0.99994448  0.81082169  0.00001218  1  0  0.511138  0.634099  0  2.513811  0
H  H4  1  0.03556424  0.00353453  0.75230439  1  0  0.26473  0.263481  0  1.002751  0
H  H5  1  0.96433694  0.25109514  0.24768559  1  0  0.264801  0.263218  0  1.00237  0
H  H6  1  0.78347565  0.75121737  0.24778220  1  0  0.264606  0.263011  0  1.003147  0
H  H7  1  0.21660476  0.50347755  0.75217600  1  0  0.26465  0.263486  0  1.002483  0
H  H8  1  0.91956486  0.06928252  0.63993161  1  0  0.264278  0.261642  0  1.010495  0
H  H9  1  0.08008492  0.42921373  0.35988636  1  0  0.264076  0.261229  0  1.011258  0
H  H10  1  0.77985103  0.92927927  0.35999472  1  0  0.26411  0.261432  0  1.011021  0
H  H11  1  0.22008495  0.56916463  0.63977248  1  0  0.264072  0.261188  0  1.01065  0
H  H12  1  0.52842353  0.02798851  0.87118639  1  0  0.273469  0.271429  0  0.978454  0
H  H13  1  0.47148342  0.15690496  0.12896693  1  0  0.273681  0.271655  0  0.977305  0
H  H14  1  0.15755017  0.65684132  0.12900492  1  0  0.273356  0.271802  0  0.977655  0
H  H15  1  0.84256624  0.52791438  0.87103475  1  0  0.273702  0.271447  0  0.97814  0
H  H16  1  0.41475633  0.08314808  0.75153569  1  0  0.275  0.273504  0  0.975554  0
H  H17  1  0.58526990  0.33162274  0.24857785  1  0  0.275069  0.273423  0  0.975663  0
H  H18  1  0.16327624  0.83156517  0.24853594  1  0  0.274864  0.273526  0  0.974948  0
H  H19  1  0.83667781  0.58317637  0.75147097  1  0  0.274833  0.273331  0  0.975352  0
H  H20  1  0.73188640  0.88066513  0.72764553  1  0  0.089825  0.071146  0  1.015775  0
H  H21  1  0.26803544  0.15308595  0.27236323  1  0  0.090052  0.071021  0  1.01646  0
H  H22  1  0.50445251  0.65301587  0.27237587  1  0  0.090081  0.071744  0  1.016445  0
H  H23  1  0.49565350  0.38067267  0.72756480  1  0  0.090054  0.07149  0  1.016046  0
H  H24  1  0.60223327  0.94228532  0.60440931  1  0  0.089299  0.078513  0  1.028076  0
H  H25  1  0.39766930  0.33781371  0.39568898  1  0  0.089276  0.078411  0  1.028559  0
H  H26  1  0.49820787  0.83772625  0.39576026  1  0  0.08969  0.079224  0  1.027376  0
H  H27  1  0.50188656  0.44218013  0.60423866  1  0  0.089469  0.078886  0  1.026824  0
H  H28  1  0.84505600  0.15543648  0.91237964  1  0  0.088832  0.070419  0  1.025913  0
H  H29  1  0.15496525  0.24332142  0.08771142  1  0  0.088799  0.070213  0  1.026155  0
H  H30  1  0.43284543  0.74352443  0.08785605  1  0  0.088771  0.069872  0  1.027438  0
H  H31  1  0.56712165  0.65551251  0.91215949  1  0  0.088882  0.069736  0  1.027726  0
H  H32  1  0.72282972  0.21537280  0.78559396  1  0  0.09136  0.075977  0  1.009279  0
H  H33  1  0.27725421  0.42990938  0.21448589  1  0  0.091426  0.075583  0  1.009577  0
H  H34  1  0.43724926  0.92999956  0.21475032  1  0  0.091268  0.075515  0  1.00963  0
H  H35  1  0.56261772  0.71527366  0.78528192  1  0  0.091552  0.075953  0  1.00913  0
C  C36  1  0.73300255  0.97358344  0.69899246  1  0  -0.088323  -0.016644  0  3.897869  0
C  C37  1  0.26693921  0.27465426  0.30105489  1  0  -0.088893  -0.016583  0  3.900185  0
C  C38  1  0.53422255  0.77461500  0.30111133  1  0  -0.089476  -0.018769  0  3.902092  0
C  C39  1  0.46580941  0.47355906  0.69885400  1  0  -0.089355  -0.018312  0  3.898825  0
C  C40  1  0.71905664  0.12324106  0.81490920  1  0  -0.089615  -0.023195  0  3.910776  0
C  C41  1  0.28098388  0.30849449  0.18518297  1  0  -0.089736  -0.022526  0  3.910298  0
C  C42  1  0.40426903  0.80853108  0.18532272  1  0  -0.089577  -0.021938  0  3.91447  0
C  C43  1  0.59567130  0.62319448  0.81469455  1  0  -0.089268  -0.021791  0  3.913283  0
Br  Br44  1  0.24086227  0.70725571  0.49977533  1  0  -0.251916  -0.45047  0  1.412557  0
Br  Br45  1  0.75896185  0.20727063  0.49978055  1  0  -0.251849  -0.450107  0  1.412516  0
Br  Br46  1  0.74898241  0.57153543  0.49990141  1  0  -0.260734  -0.461323  0  1.367143  0
Br  Br47  1  0.25124298  0.07145924  0.49972778  1  0  -0.260827  -0.461268  0  1.367071  0
Br  Br48  1  0.80142848  0.48664466  0.09071540  1  0  -0.246758  -0.451813  0  1.345799  0
Br  Br49  1  0.19921297  0.39657343  0.90959239  1  0  -0.246719  -0.451976  0  1.346728  0
Br  Br50  1  0.21028012  0.89638593  0.90946376  1  0  -0.246805  -0.452175  0  1.346526  0
Br  Br51  1  0.78952578  0.98661099  0.09072410  1  0  -0.246846  -0.451987  0  1.346321  0
N  N52  1  0.91352380  0.98123772  0.66518624  1  0  -0.634826  -0.52526  0  3.416695  0
N  N53  1  0.08635281  0.31598532  0.33477135  1  0  -0.634531  -0.524232  0  3.416597  0
N  N54  1  0.74855615  0.81603226  0.33485168  1  0  -0.633982  -0.523363  0  3.418  0
N  N55  1  0.25144950  0.48114416  0.66505401  1  0  -0.634057  -0.523713  0  3.415918  0
N  N56  1  0.53315841  0.11370722  0.84317256  1  0  -0.626171  -0.526498  0  3.401973  0
N  N57  1  0.46684959  0.27060155  0.15692923  1  0  -0.626809  -0.526512  0  3.399913  0
N  N58  1  0.19010749  0.77054411  0.15695233  1  0  -0.626455  -0.527304  0  3.40052  0
N  N59  1  0.80987328  0.61365654  0.84304649  1  0  -0.626718  -0.526726  0  3.401717  0
