# generated using pymatgen
data_CuH14C20N(O4F)2
_symmetry_space_group_name_H-M   'P 1'
_cell_length_a   9.79509922
_cell_length_b   11.24399763
_cell_length_c   11.73918473
_cell_angle_alpha   75.37248420
_cell_angle_beta   62.51862160
_cell_angle_gamma   74.60279387
_symmetry_Int_Tables_number   1
_chemical_formula_structural   CuH14C20N(O4F)2
_chemical_formula_sum   'Cu2 H28 C40 N2 O16 F4'
_cell_volume   1092.99863134
_cell_formula_units_Z   2
loop_
 _symmetry_equiv_pos_site_id
 _symmetry_equiv_pos_as_xyz
  1  'x, y, z'
loop_
 _atom_site_type_symbol
 _atom_site_label
 _atom_site_symmetry_multiplicity
 _atom_site_fract_x
 _atom_site_fract_y
 _atom_site_fract_z
 _atom_site_occupancy
 _atom_site_hle17_ddec_charge
 _atom_site_hle17_ddec_spin_density
 _atom_site_hle17_ddec_sum_bond_order
 _atom_site_hle17_magmom
 _atom_site_hse06_10hf_ddec_charge
 _atom_site_hse06_10hf_ddec_spin_density
 _atom_site_hse06_10hf_ddec_sum_bond_order
 _atom_site_hse06_10hf_magmom
 _atom_site_hse06_ddec_charge
 _atom_site_hse06_ddec_spin_density
 _atom_site_hse06_ddec_sum_bond_order
 _atom_site_hse06_magmom
 _atom_site_pbe_cm5_charge
 _atom_site_pbe_ddec_charge
 _atom_site_pbe_ddec_spin_density
 _atom_site_pbe_ddec_sum_bond_order
 _atom_site_pbe_magmom
Cu  Cu0  1  0.36458429  0.99378449  0.51222647  1  0.833071  -0.680681  1.91528  -0.486  0.819909  -0.796922  2.327404  -0.628  0.938029  -0.886567  2.210689  -0.728  0.682314  0.755123  -0.697747  2.386647  -0.537
Cu  Cu1  1  0.63539565  0.00621048  0.48777953  1  0.833121  0.680692  1.91549  0.486  0.819964  0.796916  2.327474  0.628  0.938342  0.886568  2.210479  0.728  0.682426  0.755227  0.697769  2.386737  0.537
H  H2  1  0.90919499  0.69510190  0.47779699  1  0.15204  5.2e-05  0.943268  0.0  0.168804  4e-05  1.005782  0.0  0.171342  1.4e-05  1.005181  0.0  0.104316  0.166957  7.2e-05  1.006324  0.0
H  H3  1  0.09081332  0.30491584  0.52220651  1  0.152021  -4.1e-05  0.943519  0.0  0.168789  -4.1e-05  1.006023  0.0  0.171331  -1.4e-05  1.005422  0.0  0.104303  0.166942  -7.2e-05  1.006558  0.0
H  H4  1  0.07821332  0.71721611  0.32609449  1  0.141763  1.2e-05  0.936  0.0  0.159084  -3e-06  0.995509  0.0  0.16154  -3e-06  0.994801  0.0  0.100573  0.157353  -0.0  0.995948  0.0
H  H5  1  0.92179067  0.28279713  0.67390217  1  0.141696  -3e-06  0.936219  0.0  0.15904  3e-06  0.995581  0.0  0.161493  2e-06  0.994874  0.0  0.100583  0.157309  0.0  0.996008  0.0
H  H6  1  0.03085156  0.56515457  0.39770371  1  0.138085  2.2e-05  0.942692  0.0  0.160334  3e-06  0.999465  0.0  0.161995  2e-06  1.000085  0.0  0.104059  0.159081  2e-06  0.99919  0.0
H  H7  1  0.96915089  0.43485936  0.60230020  1  0.138007  -1.4e-05  0.942843  0.0  0.160299  -4e-06  0.999418  0.0  0.161955  -2e-06  1.000041  0.0  0.10405  0.159053  -2e-06  0.999137  0.0
H  H8  1  0.50432941  0.93553724  0.11802321  1  0.130307  -0.000107  0.953531  0.0  0.134616  -9e-05  1.020741  0.0  0.138722  -5.9e-05  1.017347  0.0  0.106877  0.13176  -0.00012  1.023116  0.0
H  H9  1  0.49566078  0.06444968  0.88197560  1  0.130321  0.000115  0.953427  0.0  0.134609  9e-05  1.020678  0.0  0.138719  5.9e-05  1.017281  0.0  0.10687  0.131757  0.00012  1.02305  0.0
H  H10  1  0.87661495  0.70114467  0.84909554  1  0.127261  -2e-06  0.947708  0.0  0.133255  -4e-06  1.012629  0.0  0.137295  -3e-06  1.009566  0.0  0.110503  0.130427  -2e-06  1.014782  0.0
H  H11  1  0.12339788  0.29886611  0.15089328  1  0.127424  1e-06  0.947258  0.0  0.133267  4e-06  1.012634  0.0  0.13734  3e-06  1.009532  0.0  0.110517  0.130427  2e-06  1.014805  0.0
H  H12  1  0.02344336  0.65817179  0.98365615  1  0.146654  -7.9e-05  0.917335  0.0  0.154785  -7.6e-05  0.972865  0.0  0.159066  -4.8e-05  0.969772  0.0  0.122341  0.15174  -9.7e-05  0.975226  0.0
H  H13  1  0.97656290  0.34184147  0.01634052  1  0.146365  8.8e-05  0.917964  0.0  0.154747  7.5e-05  0.972978  0.0  0.159029  4.8e-05  0.969884  0.0  0.122321  0.151698  9.7e-05  0.975337  0.0
H  H14  1  0.31398457  0.32146483  0.23343776  1  0.129056  -0.000116  0.952028  0.0  0.133206  -0.000116  1.021019  0.0  0.137283  -7.3e-05  1.017556  0.0  0.106126  0.130349  -0.000132  1.023427  0.0
H  H15  1  0.68601604  0.67853893  0.76656302  1  0.128766  0.0001  0.952627  0.0  0.13309  0.000116  1.02107  0.0  0.137186  7.3e-05  1.017586  0.0  0.106077  0.130235  0.000132  1.023469  0.0
H  H16  1  0.41991071  0.69274945  0.12403851  1  0.120917  5e-06  0.938892  0.0  0.129689  9e-06  0.998129  0.0  0.133272  4e-06  0.995983  0.0  0.107711  0.127176  4e-06  0.999747  0.0
H  H17  1  0.58010378  0.30724884  0.87596343  1  0.120688  -1e-05  0.939373  0.0  0.129664  -9e-06  0.998047  0.0  0.133253  -4e-06  0.995897  0.0  0.10772  0.127151  -4e-06  0.999662  0.0
H  H18  1  0.57334101  0.63192138  0.26103136  1  0.12887  -0.000119  0.944893  0.0  0.132904  -8.8e-05  1.011821  0.0  0.13589  -5.4e-05  1.010968  0.0  0.111226  0.130775  -0.000108  1.012428  0.0
H  H19  1  0.42667360  0.36807232  0.73896810  1  0.12891  0.000112  0.944752  0.0  0.132946  8.8e-05  1.011675  0.0  0.135931  5.4e-05  1.010818  0.0  0.111254  0.130813  0.000108  1.012271  0.0
H  H20  1  0.93909335  0.30244502  0.41802945  1  0.127802  1e-06  0.950833  0.0  0.146256  1e-06  1.010674  0.0  0.147355  2e-06  1.011588  0.0  0.09493  0.145525  -0.0  1.009891  0.0
H  H21  1  0.06091261  0.69755490  0.58197698  1  0.12784  -7e-06  0.950904  0.0  0.146248  -2e-06  1.010788  0.0  0.147348  -2e-06  1.011702  0.0  0.094936  0.145519  0.0  1.010006  0.0
H  H22  1  0.74751421  0.26964773  0.53169832  1  0.151676  -2.3e-05  0.929146  0.0  0.167795  -2.3e-05  0.989851  0.0  0.170041  -2.1e-05  0.989514  0.0  0.104037  0.166141  -1.2e-05  0.990262  0.0
H  H23  1  0.25248839  0.73036167  0.46830138  1  0.15175  1.2e-05  0.929136  0.0  0.167895  2.4e-05  0.989791  0.0  0.170139  2.1e-05  0.989456  0.0  0.104056  0.166241  1.2e-05  0.990199  0.0
H  H24  1  0.78957477  0.42082316  0.50478636  1  0.147262  -1e-06  0.946357  0.0  0.165551  -6e-06  1.007993  0.0  0.167779  -3e-06  1.008416  0.0  0.104428  0.16391  -8e-06  1.007811  0.0
H  H25  1  0.21042677  0.57918283  0.49520252  1  0.147229  0.0  0.946356  0.0  0.165519  6e-06  1.007981  0.0  0.167751  2e-06  1.008393  0.0  0.104418  0.163884  8e-06  1.007794  0.0
H  H26  1  0.01138113  0.96081173  0.70956258  1  0.10603  1.2e-05  0.90686  0.0  0.116843  3.8e-05  0.959218  0.0  0.120788  3.7e-05  0.957069  0.0  0.132196  0.113877  3.8e-05  0.960991  0.0
H  H27  1  0.98860338  0.03918806  0.29043986  1  0.105992  -1.5e-05  0.906925  0.0  0.116857  -3.8e-05  0.959226  0.0  0.120801  -3.7e-05  0.957076  0.0  0.132176  0.11389  -3.7e-05  0.961002  0.0
H  H28  1  0.24172950  0.02905436  0.30780895  1  0.099419  3.5e-05  0.94944  0.0  0.103694  4.8e-05  1.016398  0.0  0.108531  5.2e-05  1.012167  0.0  0.120678  0.100154  3.6e-05  1.019573  0.0
H  H29  1  0.75825666  0.97094364  0.69219155  1  0.099374  -2.9e-05  0.94945  0.0  0.103669  -4.9e-05  1.016393  0.0  0.108505  -5.3e-05  1.012163  0.0  0.120664  0.100132  -3.6e-05  1.019562  0.0
C  C30  1  0.98217296  0.66467330  0.38258864  1  -0.453966  -3.1e-05  3.668161  0.0  -0.538667  2.9e-05  3.909031  0.0  -0.545549  1e-05  3.911373  0.0  -0.239872  -0.533799  3.1e-05  3.907403  0.0
C  C31  1  0.01782947  0.33533711  0.61740835  1  -0.454162  -8e-06  3.668636  0.0  -0.538596  -2.8e-05  3.909011  0.0  -0.545472  -1e-05  3.911372  0.0  -0.23989  -0.533731  -3.1e-05  3.907377  0.0
C  C32  1  0.62980345  0.91068236  0.28559207  1  0.667251  -0.000285  3.837882  -0.001  0.628684  -4.2e-05  4.132915  0.0  0.671224  -7.6e-05  4.126907  0.0  0.219627  0.599433  5e-06  4.13856  0.0
C  C33  1  0.37016898  0.08931533  0.71441356  1  0.667231  0.000283  3.837954  0.001  0.628788  4.4e-05  4.132813  0.0  0.671318  7.4e-05  4.126822  0.0  0.219699  0.599531  -3e-06  4.138455  0.0
C  C34  1  0.70241683  0.85328411  0.16378367  1  -0.114908  -9.7e-05  3.722078  0.0  -0.09801  6.9e-05  3.956989  0.0  -0.107314  3e-05  3.975631  0.0  -0.01157  -0.091145  4.7e-05  3.944271  0.0
C  C35  1  0.29756769  0.14671097  0.83622062  1  -0.115012  3.6e-05  3.722039  0.0  -0.098188  -7.7e-05  3.956961  0.0  -0.107489  -2.7e-05  3.975604  0.0  -0.011678  -0.09132  -5.3e-05  3.944249  0.0
C  C36  1  0.61850403  0.87590122  0.08849863  1  -0.182303  0.000662  3.751169  0.001  -0.21719  0.000578  4.006764  0.001  -0.218894  0.000442  4.025026  0.001  -0.097078  -0.216089  0.000488  3.994508  0.001
C  C37  1  0.38148301  0.12409297  0.91150491  1  -0.182208  -0.000647  3.750858  -0.001  -0.217095  -0.000569  4.006497  -0.001  -0.218795  -0.000456  4.024747  -0.001  -0.096994  -0.215995  -0.000485  3.99425  -0.001
C  C38  1  0.68348295  0.82185206  0.97687689  1  0.275653  0.000536  3.815871  0.001  0.263814  0.0003  4.102417  0.0  0.270679  0.000178  4.118042  0.0  0.085582  0.25888  0.000415  4.092066  0.0
C  C39  1  0.31651274  0.17814416  0.02312474  1  0.275877  -0.000572  3.815675  -0.001  0.264027  -0.000302  4.102237  0.0  0.27089  -0.000169  4.117871  0.0  0.08569  0.259086  -0.000416  4.091903  0.0
C  C40  1  0.82794259  0.74412234  0.93618811  1  -0.149921  0.000277  3.757677  0.0  -0.180238  0.000172  4.021377  0.0  -0.183119  0.000141  4.040999  0.0  -0.091073  -0.178386  7.9e-05  4.008442  0.0
C  C41  1  0.17205940  0.25588525  0.06380963  1  -0.149749  -0.000204  3.757023  0.0  -0.18027  -0.000176  4.021278  0.0  -0.183183  -0.00014  4.040885  0.0  -0.091069  -0.178409  -7.8e-05  4.008363  0.0
C  C42  1  0.91061022  0.71998692  0.01176687  1  -0.113301  -0.000728  3.689941  -0.001  -0.136736  -0.00035  3.948581  0.0  -0.139864  -0.000262  3.966134  0.0  -0.077756  -0.134662  -0.000397  3.937047  0.0
C  C43  1  0.08938604  0.28002525  0.98823117  1  -0.113348  0.000618  3.690297  0.001  -0.13678  0.000357  3.948725  0.0  -0.139907  0.000256  3.966283  0.0  -0.077815  -0.134701  0.000397  3.937177  0.0
C  C44  1  0.84873283  0.77444559  0.12339408  1  0.262556  -0.000568  3.746775  -0.001  0.237126  -0.00056  4.01905  -0.001  0.248169  -0.000374  4.0341  -0.001  0.08707  0.22917  -0.000692  4.009186  -0.001
C  C45  1  0.15126139  0.22555614  0.87660948  1  0.262442  0.000666  3.746864  0.001  0.237116  0.000559  4.019006  0.001  0.248158  0.000379  4.034059  0.001  0.087092  0.229163  0.000693  4.009129  0.001
C  C46  1  0.87833247  0.68146326  0.31634099  1  0.707401  1.7e-05  3.715117  0.0  0.667287  -2e-06  4.01289  0.0  0.700502  -6e-06  4.002633  0.0  0.243882  0.644556  0.0  4.019457  0.0
C  C47  1  0.12167094  0.31854223  0.68366521  1  0.707272  -2.9e-05  3.715662  0.0  0.667362  3e-06  4.013018  0.0  0.700563  9e-06  4.002782  0.0  0.243853  0.644632  1e-06  4.019594  0.0
C  C48  1  0.47446348  0.22326437  0.38006602  1  0.675188  -0.000218  3.824992  0.0  0.637243  0.000102  4.118702  0.0  0.680356  5.7e-05  4.112086  0.0  0.222477  0.607581  0.000124  4.124922  0.0
C  C49  1  0.52553806  0.77673091  0.61993792  1  0.67545  0.000217  3.824941  0.0  0.637455  -0.000101  4.118736  0.0  0.680576  -5.9e-05  4.112112  0.0  0.222619  0.607793  -0.000122  4.124973  0.0
C  C50  1  0.45892819  0.35467674  0.31203436  1  -0.105578  -0.000133  3.710286  0.0  -0.091129  6e-06  3.947607  0.0  -0.100309  -6e-06  3.965808  0.0  -0.009859  -0.084432  2e-05  3.935395  0.0
C  C51  1  0.54107821  0.64531777  0.68796624  1  -0.105606  6.2e-05  3.71014  0.0  -0.091121  -6e-06  3.947486  0.0  -0.100312  4e-06  3.965705  0.0  -0.009907  -0.084426  -1.9e-05  3.935298  0.0
C  C52  1  0.37032050  0.38949637  0.23944439  1  -0.18374  3.8e-05  3.736822  0.0  -0.22039  0.000304  3.99367  0.001  -0.222193  0.000287  4.011545  0.0  -0.097128  -0.219416  0.000424  3.98206  0.001
C  C53  1  0.62969168  0.61049834  0.76055149  1  -0.184467  8e-05  3.738412  0.0  -0.220323  -0.000306  3.993669  -0.001  -0.222143  -0.000282  4.011537  0.0  -0.097151  -0.219351  -0.000423  3.982067  -0.001
C  C54  1  0.35933807  0.51012706  0.17352058  1  0.294254  0.000964  3.81965  0.001  0.280807  0.000393  4.107827  0.0  0.288919  0.000218  4.121831  0.0  0.089606  0.275087  0.000529  4.098481  0.001
C  C55  1  0.64068131  0.48987050  0.82647630  1  0.292593  -0.001035  3.822074  -0.001  0.280701  -0.000393  4.107877  0.0  0.288814  -0.000222  4.121882  0.0  0.089638  0.274982  -0.000529  4.098535  -0.001
C  C56  1  0.43134644  0.59917798  0.17788630  1  -0.161764  0.000205  3.759051  0.0  -0.191943  0.000134  4.02278  0.0  -0.195417  0.00011  4.04262  0.0  -0.095195  -0.189666  0.000156  4.00941  0.0
C  C57  1  0.56867710  0.40081689  0.82210877  1  -0.16216  -0.000171  3.760084  0.0  -0.191715  -0.000131  4.022497  0.0  -0.195194  -0.000108  4.042335  0.0  -0.095086  -0.189438  -0.000156  4.009125  0.0
C  C58  1  0.51670422  0.56549499  0.25235178  1  -0.12366  -0.000609  3.710918  -0.001  -0.146773  -0.000268  3.975469  0.0  -0.150151  -0.000196  3.99511  0.0  -0.083004  -0.144037  -0.000343  3.961851  0.0
C  C59  1  0.48332096  0.43449807  0.74764221  1  -0.123826  0.000614  3.710687  0.001  -0.146976  0.000263  3.975443  0.0  -0.150364  0.000195  3.995112  0.0  -0.083188  -0.144222  0.000344  3.961808  0.0
C  C60  1  0.52972696  0.44440353  0.31869422  1  0.274519  -0.00019  3.731863  0.0  0.247221  -0.000499  4.003552  -0.001  0.259016  -0.000373  4.016913  -0.001  0.091357  0.238709  -0.000606  3.994667  -0.001
C  C61  1  0.47028802  0.55558942  0.68129930  1  0.274613  0.000209  3.731542  0.0  0.247268  0.000504  4.003362  0.001  0.259072  0.000373  4.016713  0.001  0.091418  0.238748  0.000606  3.994492  0.001
C  C62  1  0.76111849  0.38016264  0.35099776  1  0.716135  0.000185  3.734309  0.0  0.671176  0.000107  4.041067  0.0  0.704624  6.2e-05  4.029693  0.0  0.241301  0.648149  0.000125  4.048555  0.0
C  C63  1  0.23889674  0.61982941  0.64899500  1  0.716027  -0.000191  3.734183  0.0  0.671059  -0.000109  4.040979  0.0  0.704515  -6.6e-05  4.0296  0.0  0.241232  0.648025  -0.000125  4.048474  0.0
C  C64  1  0.81392011  0.33985169  0.45797113  1  -0.456292  -7e-05  3.669935  0.0  -0.538136  -3.8e-05  3.910499  0.0  -0.54538  -2.9e-05  3.914705  0.0  -0.241886  -0.532974  -3.5e-05  3.907536  0.0
C  C65  1  0.18608989  0.66015134  0.54202634  1  -0.456355  0.000105  3.670071  0.0  -0.538185  3.8e-05  3.91067  0.0  -0.545432  3.5e-05  3.914883  0.0  -0.241888  -0.533023  3.5e-05  3.907706  0.0
C  C66  1  0.00570427  0.97837131  0.61587244  1  0.076164  0.000879  3.666903  0.001  0.058226  0.000543  3.909871  0.001  0.060999  0.000488  3.927019  0.001  0.064933  0.056245  0.000564  3.899739  0.001
C  C67  1  0.99427759  0.02162571  0.38412815  1  0.076156  -0.000861  3.666973  -0.001  0.058157  -0.000543  3.90993  -0.001  0.060931  -0.000487  3.927095  -0.001  0.064844  0.056181  -0.000564  3.899807  -0.001
C  C68  1  0.13287982  0.01601901  0.39346016  1  0.070642  0.000805  3.668999  0.001  0.051574  0.000478  3.914565  0.0  0.054897  0.000444  3.930299  0.0  0.058213  0.049015  0.000549  3.905477  0.001
C  C69  1  0.86710413  0.98397905  0.60653773  1  0.070617  -0.000822  3.669187  -0.001  0.051531  -0.000478  3.914697  0.0  0.054854  -0.000444  3.93045  0.0  0.058145  0.048978  -0.000549  3.905619  -0.001
N  N70  1  0.13856310  0.99421273  0.50923031  1  -0.242745  0.000852  3.20509  0.0  -0.199523  0.000548  3.480711  0.0  -0.216779  0.000572  3.494748  0.0  -0.306028  -0.19053  0.000425  3.473059  0.0
N  N71  1  0.86142531  0.00578527  0.49077107  1  -0.242808  -0.000856  3.205329  0.0  -0.199552  -0.000547  3.480898  0.0  -0.216855  -0.000572  3.494962  0.0  -0.306022  -0.190574  -0.000428  3.473276  0.0
O  O72  1  0.48106721  0.92721298  0.34286826  1  -0.568072  -0.075645  2.07638  -0.099  -0.543478  -0.051408  2.349323  -0.074  -0.590759  -0.041024  2.341389  -0.063  -0.308567  -0.514193  -0.054043  2.354727  -0.075
O  O73  1  0.51892111  0.07278017  0.65713929  1  -0.568146  0.075685  2.076101  0.099  -0.543607  0.051422  2.349004  0.074  -0.590946  0.041035  2.341074  0.063  -0.308607  -0.514315  0.054057  2.354408  0.075
O  O74  1  0.72063039  0.93804084  0.32162879  1  -0.561749  0.079832  2.071249  0.105  -0.540404  0.0536  2.34036  0.077  -0.587411  0.04249  2.331384  0.065  -0.308696  -0.51135  0.056898  2.346399  0.079
O  O75  1  0.27936155  0.06196086  0.67837476  1  -0.561735  -0.079802  2.071654  -0.105  -0.540405  -0.053582  2.340681  -0.077  -0.587347  -0.042479  2.331711  -0.065  -0.308741  -0.51135  -0.056887  2.346702  -0.079
O  O76  1  0.93911924  0.74686249  0.19306128  1  -0.337475  0.000558  2.284769  0.001  -0.274737  0.000387  2.513946  0.0  -0.294211  0.000233  2.508849  0.0  -0.146732  -0.260884  0.000546  2.516903  0.001
O  O77  1  0.06087110  0.25314580  0.80693976  1  -0.337849  -0.000557  2.285427  -0.001  -0.274742  -0.000387  2.513849  0.0  -0.294213  -0.000238  2.508762  0.0  -0.146699  -0.260885  -0.000545  2.5168  -0.001
O  O78  1  0.75554382  0.64288570  0.36323177  1  -0.518369  -0.000223  1.945546  0.0  -0.479308  -0.000124  2.156005  0.0  -0.499905  -0.00011  2.150646  0.0  -0.264461  -0.465212  -0.000157  2.159462  0.0
O  O79  1  0.24445975  0.35710580  0.63677478  1  -0.518347  0.000233  1.94585  0.0  -0.479324  0.000123  2.156244  0.0  -0.499918  0.000112  2.150902  0.0  -0.264441  -0.465257  0.000157  2.159753  0.0
O  O80  1  0.35971230  0.16780432  0.41629443  1  -0.579331  -0.078768  2.089193  -0.103  -0.557295  -0.052624  2.366932  -0.076  -0.606196  -0.041785  2.36116  -0.064  -0.31283  -0.527199  -0.055347  2.371001  -0.077
O  O81  1  0.64027416  0.83219283  0.58370359  1  -0.579373  0.078728  2.089718  0.103  -0.557374  0.052612  2.367563  0.076  -0.60629  0.041777  2.361728  0.064  -0.312879  -0.527293  0.055321  2.371665  0.077
O  O82  1  0.60011707  0.17694215  0.39443887  1  -0.557982  0.081968  2.09188  0.108  -0.537377  0.053668  2.365853  0.078  -0.58546  0.042313  2.357295  0.065  -0.305393  -0.508115  0.057086  2.372024  0.079
O  O83  1  0.39985945  0.82305626  0.60557533  1  -0.558129  -0.082004  2.091423  -0.108  -0.537526  -0.053685  2.365452  -0.078  -0.585582  -0.042324  2.356919  -0.065  -0.305448  -0.508249  -0.057108  2.371615  -0.079
O  O84  1  0.60236013  0.41479335  0.40215695  1  -0.328793  0.000993  2.328265  0.001  -0.260167  0.000524  2.560206  0.001  -0.281246  0.000264  2.558458  0.0  -0.138344  -0.245132  0.000729  2.560748  0.001
O  O85  1  0.39765258  0.58519958  0.59783655  1  -0.32874  -0.001006  2.328033  -0.001  -0.260142  -0.000522  2.560022  -0.001  -0.281223  -0.000273  2.558272  0.0  -0.138252  -0.245096  -0.000729  2.560565  -0.001
O  O86  1  0.84401928  0.38334817  0.23516174  1  -0.534857  -8.7e-05  1.927004  0.0  -0.499549  -7e-06  2.137693  0.0  -0.519551  5e-06  2.130043  0.0  -0.276501  -0.48582  -6e-06  2.142715  0.0
O  O87  1  0.15598587  0.61664269  0.76483584  1  -0.534821  9.8e-05  1.926806  0.0  -0.49948  6e-06  2.137484  0.0  -0.519484  6e-06  2.12983  0.0  -0.276502  -0.485757  6e-06  2.142534  0.0
F  F88  1  0.59970117  0.84561618  0.90379425  1  -0.212266  0.000135  1.180786  0.0  -0.16104  9.7e-05  1.345275  0.0  -0.171279  5.3e-05  1.336479  0.0  -0.097831  -0.153477  0.000159  1.351187  0.0
F  F89  1  0.40030150  0.15437561  0.09620234  1  -0.212344  -0.000137  1.180754  0.0  -0.161134  -9.6e-05  1.345265  0.0  -0.171371  -5.3e-05  1.336466  0.0  -0.097903  -0.153569  -0.000159  1.351183  0.0
F  F90  1  0.27377947  0.54270595  0.10213124  1  -0.214037  0.000236  1.171279  0.0  -0.157697  0.000141  1.31517  0.0  -0.167346  7.8e-05  1.307312  0.0  -0.106513  -0.150583  0.000185  1.320368  0.0
F  F91  1  0.72622938  0.45729705  0.89786666  1  -0.207464  -0.000235  1.164105  0.0  -0.157627  -0.000141  1.315272  0.0  -0.167273  -7.9e-05  1.307417  0.0  -0.106488  -0.150515  -0.000185  1.32047  0.0
