# generated using pymatgen
data_CdH14C11N2ClO3
_symmetry_space_group_name_H-M   'P 1'
_cell_length_a   7.29459722
_cell_length_b   9.48909931
_cell_length_c   10.25858186
_cell_angle_alpha   96.86753606
_cell_angle_beta   98.71099315
_cell_angle_gamma   89.13193543
_symmetry_Int_Tables_number   1
_chemical_formula_structural   CdH14C11N2ClO3
_chemical_formula_sum   'Cd2 H28 C22 N4 Cl2 O6'
_cell_volume   696.86027197
_cell_formula_units_Z   2
loop_
 _symmetry_equiv_pos_site_id
 _symmetry_equiv_pos_as_xyz
  1  'x, y, z'
loop_
 _atom_site_type_symbol
 _atom_site_label
 _atom_site_symmetry_multiplicity
 _atom_site_fract_x
 _atom_site_fract_y
 _atom_site_fract_z
 _atom_site_occupancy
 _atom_site_pbe_bader_spin_density
 _atom_site_pbe_cm5_charge
 _atom_site_pbe_ddec_charge
 _atom_site_pbe_ddec_spin_density
 _atom_site_pbe_ddec_sum_bond_order
 _atom_site_pbe_magmom
Cd  Cd0  1  0.65370186  0.96381949  0.87351386  1  0  0.686168  0.858662  0  2.275285  0
Cd  Cd1  1  0.34629458  0.03618085  0.12648371  1  0  0.686163  0.858625  0  2.275338  0
H  H2  1  0.25976263  0.75487459  0.41313669  1  0  0.307972  0.295518  0  0.985026  0
H  H3  1  0.74024071  0.24512357  0.58686332  1  0  0.307962  0.295514  0  0.984962  0
H  H4  1  0.00364567  0.82003564  0.92264793  1  0  0.290666  0.346868  0  0.995693  0
H  H5  1  0.99635083  0.17996681  0.07735378  1  0  0.290642  0.346863  0  0.99568  0
H  H6  1  0.58838150  0.61990610  0.89256943  1  0  0.098944  0.109678  0  1.028156  0
H  H7  1  0.41161777  0.38009634  0.10743159  1  0  0.098948  0.109667  0  1.028176  0
H  H8  1  0.46611122  0.36948204  0.84240409  1  0  0.087067  0.09784  0  1.043412  0
H  H9  1  0.53388938  0.63051613  0.15760148  1  0  0.087081  0.097929  0  1.043387  0
H  H10  1  0.26732783  0.29057129  0.63218011  1  0  0.094946  0.094918  0  1.018457  0
H  H11  1  0.73266997  0.70942585  0.36782407  1  0  0.094947  0.094915  0  1.018502  0
H  H12  1  0.18437615  0.45384277  0.45767357  1  0  0.103163  0.114842  0  1.01544  0
H  H13  1  0.81562994  0.54615323  0.54232844  1  0  0.10313  0.114822  0  1.015397  0
H  H14  1  0.44643463  0.07786452  0.62935798  1  0  0.098847  0.113185  0  1.026799  0
H  H15  1  0.55356595  0.92213366  0.37064368  1  0  0.098841  0.11316  0  1.026821  0
H  H16  1  0.28903109  0.02095023  0.48210808  1  0  0.10642  0.120654  0  0.982019  0
H  H17  1  0.71096950  0.97904901  0.51789176  1  0  0.106413  0.120621  0  0.982034  0
H  H18  1  0.95556706  0.39415730  0.76061494  1  0  0.093278  0.148883  0  1.004598  0
H  H19  1  0.04442523  0.60584413  0.23938135  1  0  0.093301  0.148908  0  1.004506  0
H  H20  1  0.09686143  0.34002720  0.90365741  1  0  0.094552  0.158471  0  1.020582  0
H  H21  1  0.90313369  0.65997740  0.09633855  1  0  0.094561  0.158471  0  1.020633  0
H  H22  1  0.88735725  0.43353978  0.92122986  1  0  0.102374  0.161862  0  0.994859  0
H  H23  1  0.11263646  0.56646271  0.07876766  1  0  0.102375  0.161892  0  0.994836  0
H  H24  1  0.08958601  0.72429096  0.71980126  1  0  0.089203  0.086986  0  1.033347  0
H  H25  1  0.91041885  0.27571355  0.28020156  1  0  0.089232  0.087062  0  1.03328  0
H  H26  1  0.05658197  0.91244160  0.72289040  1  0  0.082871  0.083413  0  1.019874  0
H  H27  1  0.94341874  0.08756295  0.27711296  1  0  0.0829  0.08348  0  1.019877  0
H  H28  1  0.87766409  0.79192506  0.63936112  1  0  0.090864  0.08751  0  1.015264  0
H  H29  1  0.12234213  0.20807837  0.36064075  1  0  0.090875  0.087525  0  1.015242  0
C  C30  1  0.45426687  0.67516949  0.70217837  1  0  0.08305  0.140391  0  4.060525  0
C  C31  1  0.54573923  0.32482758  0.29782180  1  0  0.083086  0.140311  0  4.060526  0
C  C32  1  0.50222201  0.58308411  0.79861903  1  0  -0.094878  -0.154501  0  3.976031  0
C  C33  1  0.49777719  0.41691514  0.20138066  1  0  -0.094838  -0.154369  0  3.976011  0
C  C34  1  0.43342023  0.44493177  0.77006552  1  0  -0.10445  -0.093474  0  4.017849  0
C  C35  1  0.56658040  0.55506853  0.22993932  1  0  -0.104474  -0.093677  0  4.017921  0
C  C36  1  0.31954664  0.39930572  0.64896208  1  0  -0.102694  -0.090689  0  4.043536  0
C  C37  1  0.68045393  0.60069139  0.35104337  1  0  -0.102717  -0.090653  0  4.043731  0
C  C38  1  0.27175909  0.48938586  0.55138742  1  0  -0.100685  -0.18518  0  4.026281  0
C  C39  1  0.72824426  0.51061230  0.44861356  1  0  -0.100654  -0.185161  0  4.026329  0
C  C40  1  0.34128735  0.62779215  0.57988568  1  0  0.092042  0.139242  0  4.052402  0
C  C41  1  0.65872013  0.37220491  0.42011367  1  0  0.092016  0.139257  0  4.052541  0
C  C42  1  0.41069968  0.85584605  0.58791720  1  0  0.235002  0.378232  0  3.965326  0
C  C43  1  0.58930503  0.14415103  0.41208381  1  0  0.234928  0.378106  0  3.965412  0
C  C44  1  0.42116823  0.99758174  0.54236960  1  0  -0.15168  -0.244261  0  3.929545  0
C  C45  1  0.57883373  0.00241642  0.45763222  1  0  -0.15164  -0.244121  0  3.929575  0
C  C46  1  0.85134823  0.21563833  0.84127799  1  0  0.208739  0.685917  0  4.130563  0
C  C47  1  0.14865099  0.78436198  0.15872182  1  0  0.208618  0.685704  0  4.130733  0
C  C48  1  0.95361314  0.35469006  0.85634121  1  0  -0.244205  -0.528173  0  3.889971  0
C  C49  1  0.04637915  0.64531137  0.14365410  1  0  -0.244221  -0.528158  0  3.889907  0
C  C50  1  0.98779934  0.81046257  0.72527069  1  0  -0.159899  -0.114852  0  3.930836  0
C  C51  1  0.01220409  0.18953983  0.27473077  1  0  -0.159981  -0.115036  0  3.930893  0
N  N52  1  0.49517050  0.81822066  0.70330091  1  0  -0.357942  -0.41124  0  3.430013  0
N  N53  1  0.50483144  0.18177644  0.29669883  1  0  -0.357897  -0.411153  0  3.429974  0
N  N54  1  0.31760015  0.74515184  0.51112065  1  0  -0.376407  -0.314837  0  3.560021  0
N  N55  1  0.68240452  0.25484419  0.48887536  1  0  -0.376404  -0.314811  0  3.560076  0
Cl  Cl56  1  0.64878525  0.88111659  0.10248398  1  0  -0.286273  -0.495812  0  1.248514  0
Cl  Cl57  1  0.35120842  0.11888377  0.89751428  1  0  -0.286261  -0.49581  0  1.248531  0
O  O58  1  0.84379237  0.15635980  0.94708868  1  0  -0.32641  -0.560272  0  2.282179  0
O  O59  1  0.15620272  0.84364267  0.05290899  1  0  -0.326331  -0.560191  0  2.282233  0
O  O60  1  0.77303019  0.15941426  0.72903274  1  0  -0.317945  -0.572956  0  2.188252  0
O  O61  1  0.22696759  0.84058394  0.27096376  1  0  -0.317917  -0.572853  0  2.188324  0
O  O62  1  0.90339539  0.81032282  0.84262129  1  0  -0.422711  -0.456855  0  2.439613  0
O  O63  1  0.09660387  0.18967962  0.15737974  1  0  -0.422672  -0.456816  0  2.439599  0
