# generated using pymatgen
data_BaH22C14N4O
_symmetry_space_group_name_H-M   'P 1'
_cell_length_a   8.48665192
_cell_length_b   9.72960871
_cell_length_c   10.68161354
_cell_angle_alpha   65.16224303
_cell_angle_beta   79.79335807
_cell_angle_gamma   76.14178407
_symmetry_Int_Tables_number   1
_chemical_formula_structural   BaH22C14N4O
_chemical_formula_sum   'Ba2 H44 C28 N8 O2'
_cell_volume   774.17536577
_cell_formula_units_Z   2
loop_
 _symmetry_equiv_pos_site_id
 _symmetry_equiv_pos_as_xyz
  1  'x, y, z'
loop_
 _atom_site_type_symbol
 _atom_site_label
 _atom_site_symmetry_multiplicity
 _atom_site_fract_x
 _atom_site_fract_y
 _atom_site_fract_z
 _atom_site_occupancy
 _atom_site_hle17_bader_spin_density
 _atom_site_hle17_ddec_charge
 _atom_site_hle17_ddec_spin_density
 _atom_site_hle17_ddec_sum_bond_order
 _atom_site_hle17_magmom
 _atom_site_hse06_10hf_bader_spin_density
 _atom_site_hse06_10hf_ddec_charge
 _atom_site_hse06_10hf_ddec_spin_density
 _atom_site_hse06_10hf_ddec_sum_bond_order
 _atom_site_hse06_10hf_magmom
 _atom_site_hse06_bader_spin_density
 _atom_site_hse06_ddec_charge
 _atom_site_hse06_ddec_spin_density
 _atom_site_hse06_ddec_sum_bond_order
 _atom_site_hse06_magmom
 _atom_site_pbe_bader_spin_density
 _atom_site_pbe_cm5_charge
 _atom_site_pbe_ddec_charge
 _atom_site_pbe_ddec_spin_density
 _atom_site_pbe_ddec_sum_bond_order
 _atom_site_pbe_magmom
Ba  Ba0  1  0.25626441  0.98766617  0.00807228  1  0  1.471807  0  1.31212  0  0  1.274332  0  1.717114  0  0  1.314959  0  1.687012  0  0  1.065312  1.24511  0  1.737646  0
Ba  Ba1  1  0.74373414  0.01234207  0.99192416  1  0  1.471822  0  1.31208  0  0  1.274335  0  1.717105  0  0  1.314948  0  1.687023  0  0  1.065312  1.245109  0  1.737639  0
H  H2  1  0.75576443  0.48108716  0.67922853  1  0  0.117209  0  0.996975  0  0  0.12616  0  1.064216  0  0  0.129562  0  1.06323  0  0  0.096411  0.123366  0  1.065832  0
H  H3  1  0.24423032  0.51891632  0.32077394  1  0  0.117301  0  0.996824  0  0  0.12623  0  1.064115  0  0  0.129632  0  1.063128  0  0  0.096439  0.123436  0  1.065733  0
H  H4  1  0.98902407  0.34626406  0.48788655  1  0  0.114484  0  0.944291  0  0  0.138435  0  1.001724  0  0  0.139685  0  1.002189  0  0  0.094033  0.137649  0  1.001064  0
H  H5  1  0.01098166  0.65372816  0.51211215  1  0  0.114501  0  0.9443  0  0  0.138445  0  1.001727  0  0  0.139695  0  1.002195  0  0  0.094029  0.137658  0  1.001072  0
H  H6  1  0.85777980  0.21032383  0.55678831  1  0  0.102812  0  0.957688  0  0  0.124102  0  1.021801  0  0  0.125536  0  1.021538  0  0  0.092942  0.123167  0  1.021721  0
H  H7  1  0.14222507  0.78967178  0.44321578  1  0  0.102788  0  0.957666  0  0  0.124084  0  1.021765  0  0  0.125522  0  1.021499  0  0  0.092926  0.12315  0  1.021686  0
H  H8  1  0.06854811  0.14779103  0.57940941  1  0  0.114177  0  0.960052  0  0  0.134849  0  1.024597  0  0  0.136374  0  1.024144  0  0  0.098313  0.133892  0  1.024558  0
H  H9  1  0.93145222  0.85221368  0.42060030  1  0  0.114125  0  0.960066  0  0  0.134766  0  1.024628  0  0  0.136285  0  1.024184  0  0  0.098284  0.13381  0  1.02459  0
H  H10  1  0.72248193  0.54657144  0.90863932  1  0  0.118759  0  0.972713  0  0  0.138389  0  1.033846  0  0  0.139603  0  1.034766  0  0  0.094566  0.137156  0  1.033691  0
H  H11  1  0.27750811  0.45343196  0.09136005  1  0  0.118729  0  0.972784  0  0  0.138384  0  1.033887  0  0  0.139604  0  1.034801  0  0  0.094581  0.13715  0  1.03373  0
H  H12  1  0.87146849  0.43949910  0.02993397  1  0  0.11373  0  0.944047  0  0  0.138461  0  0.999832  0  0  0.13973  0  0.999899  0  0  0.096544  0.137389  0  0.999913  0
H  H13  1  0.12852589  0.56050093  0.97006610  1  0  0.113848  0  0.944007  0  0  0.138569  0  0.999777  0  0  0.13984  0  0.99984  0  0  0.096586  0.137486  0  0.999868  0
H  H14  1  0.68947561  0.37102945  0.04755774  1  0  0.113414  0  0.954449  0  0  0.134738  0  1.016396  0  0  0.135939  0  1.017015  0  0  0.098747  0.133685  0  1.016285  0
H  H15  1  0.31051227  0.62897272  0.95244425  1  0  0.113417  0  0.954458  0  0  0.134756  0  1.016401  0  0  0.135957  0  1.017021  0  0  0.098761  0.133702  0  1.016289  0
H  H16  1  0.67049278  0.78374716  0.57579964  1  0  0.112729  0  0.997333  0  0  0.126402  0  1.056571  0  0  0.129241  0  1.056589  0  0  0.091755  0.124128  0  1.057179  0
H  H17  1  0.32950918  0.21623449  0.42421101  1  0  0.112697  0  0.997226  0  0  0.126405  0  1.056419  0  0  0.129244  0  1.056439  0  0  0.091783  0.124131  0  1.057029  0
H  H18  1  0.29492232  0.74757931  0.69094385  1  0  0.095502  0  0.979171  0  0  0.117831  0  1.04035  0  0  0.119199  0  1.040232  0  0  0.085037  0.116767  0  1.040616  0
H  H19  1  0.70508296  0.25240356  0.30906591  1  0  0.095428  0  0.979115  0  0  0.117764  0  1.040313  0  0  0.119134  0  1.040196  0  0  0.085001  0.116701  0  1.040579  0
H  H20  1  0.31310868  0.93277769  0.56103491  1  0  0.105491  0  0.970769  0  0  0.122999  0  1.039249  0  0  0.124456  0  1.039623  0  0  0.086091  0.121813  0  1.039094  0
H  H21  1  0.68690669  0.06720314  0.43897055  1  0  0.105494  0  0.970872  0  0  0.123017  0  1.039322  0  0  0.124474  0  1.039694  0  0  0.086112  0.12183  0  1.039167  0
H  H22  1  0.21524192  0.91331323  0.72811825  1  0  0.106812  0  0.965942  0  0  0.125582  0  1.034371  0  0  0.127563  0  1.033178  0  0  0.101339  0.1241  0  1.035222  0
H  H23  1  0.78476012  0.08666846  0.27188676  1  0  0.106792  0  0.965922  0  0  0.125559  0  1.034352  0  0  0.127541  0  1.033158  0  0  0.101264  0.124076  0  1.035203  0
H  H24  1  0.97028358  0.88013604  0.64461489  1  0  0.102067  0  0.959774  0  0  0.127026  0  1.016769  0  0  0.127941  0  1.017422  0  0  0.09042  0.126417  0  1.016189  0
H  H25  1  0.02972864  0.11986440  0.35538456  1  0  0.102032  0  0.959707  0  0  0.126987  0  1.016723  0  0  0.127901  0  1.017375  0  0  0.090394  0.126383  0  1.016139  0
H  H26  1  0.97036682  0.68208295  0.74522915  1  0  0.10578  0  0.956509  0  0  0.127882  0  1.018863  0  0  0.129149  0  1.019281  0  0  0.090281  0.127514  0  1.01758  0
H  H27  1  0.02963634  0.31791493  0.25477525  1  0  0.105766  0  0.956577  0  0  0.127883  0  1.018914  0  0  0.129142  0  1.019341  0  0  0.090269  0.127512  0  1.017635  0
H  H28  1  0.95860282  0.80857598  0.82839438  1  0  0.10413  0  0.978658  0  0  0.120197  0  1.052444  0  0  0.122584  0  1.050931  0  0  0.100266  0.119083  0  1.052511  0
H  H29  1  0.04140109  0.19142427  0.17160436  1  0  0.104175  0  0.97861  0  0  0.12025  0  1.052378  0  0  0.122636  0  1.050869  0  0  0.10027  0.119139  0  1.052443  0
H  H30  1  0.49687810  0.43013132  0.80339895  1  0  0.047091  0  0.934107  0  0  0.061602  0  0.998499  0  0  0.061945  0  0.998502  0  0  0.098786  0.060837  0  0.99942  0
H  H31  1  0.50312560  0.56987012  0.19659562  1  0  0.047125  0  0.934051  0  0  0.061635  0  0.998441  0  0  0.061975  0  0.998443  0  0  0.098803  0.060869  0  0.999366  0
H  H32  1  0.34226839  0.34358099  0.93053139  1  0  0.06996  0  0.970789  0  0  0.0798  0  1.039398  0  0  0.080546  0  1.039347  0  0  0.114473  0.078993  0  1.039738  0
H  H33  1  0.65773094  0.65642379  0.06946530  1  0  0.06993  0  0.970774  0  0  0.079766  0  1.039397  0  0  0.080511  0  1.039344  0  0  0.114479  0.078993  0  1.039703  0
H  H34  1  0.60989645  0.29603038  0.63470578  1  0  0.036011  0  0.963416  0  0  0.049499  0  1.03408  0  0  0.049473  0  1.034115  0  0  0.095593  0.049519  0  1.034049  0
H  H35  1  0.39010226  0.70396628  0.36529498  1  0  0.036084  0  0.963456  0  0  0.049508  0  1.034135  0  0  0.04948  0  1.034173  0  0  0.095598  0.049528  0  1.0341  0
H  H36  1  0.52126555  0.13261090  0.66666271  1  0  0.07692  0  0.965391  0  0  0.087653  0  1.030762  0  0  0.087551  0  1.032325  0  0  0.116592  0.087558  0  1.02996  0
H  H37  1  0.47872516  0.86740066  0.33332883  1  0  0.076921  0  0.965509  0  0  0.087626  0  1.03086  0  0  0.087529  0  1.032408  0  0  0.116624  0.08753  0  1.030058  0
H  H38  1  0.25872699  0.29469570  0.60733905  1  0  0.080075  0  0.957613  0  0  0.09712  0  1.01963  0  0  0.09764  0  1.020642  0  0  0.097002  0.096564  0  1.019104  0
H  H39  1  0.74126959  0.70532179  0.39264950  1  0  0.080034  0  0.957811  0  0  0.097087  0  1.019778  0  0  0.097608  0  1.020786  0  0  0.097003  0.096528  0  1.019255  0
H  H40  1  0.37923920  0.43651303  0.50596148  1  0  0.067157  0  0.958049  0  0  0.087646  0  1.017319  0  0  0.088098  0  1.017916  0  0  0.089986  0.087001  0  1.017611  0
H  H41  1  0.62076428  0.56349995  0.49403348  1  0  0.067158  0  0.957985  0  0  0.087638  0  1.017248  0  0  0.088082  0  1.017857  0  0  0.089988  0.086993  0  1.01754  0
H  H42  1  0.15665655  0.42094793  0.75432246  1  0  0.084208  0  0.967795  0  0  0.096052  0  1.035377  0  0  0.096669  0  1.037195  0  0  0.095444  0.095562  0  1.034162  0
H  H43  1  0.84335021  0.57905589  0.24567176  1  0  0.084198  0  0.967663  0  0  0.096037  0  1.035272  0  0  0.096651  0  1.037089  0  0  0.095445  0.095548  0  1.034054  0
H  H44  1  0.27670457  0.56408911  0.65998330  1  0  0.063448  0  0.975837  0  0  0.082179  0  1.037077  0  0  0.082586  0  1.037684  0  0  0.088767  0.081862  0  1.036561  0
H  H45  1  0.72329044  0.43591322  0.34001957  1  0  0.063421  0  0.975818  0  0  0.082178  0  1.037032  0  0  0.082585  0  1.037641  0  0  0.088777  0.081861  0  1.036515  0
C  C46  1  0.93945185  0.26309917  0.70970034  1  0  0.238898  0  3.848954  0  0  0.247798  0  4.099797  0  0  0.255643  0  4.12124  0  0  0.074716  0.242804  0  4.085085  0
C  C47  1  0.06054626  0.73690557  0.29029841  1  0  0.238936  0  3.849237  0  0  0.247716  0  4.100215  0  0  0.25556  0  4.121662  0  0  0.074695  0.242722  0  4.085502  0
C  C48  1  0.83590512  0.38088027  0.74441536  1  0  -0.37047  0  3.753886  0  0  -0.38759  0  3.998685  0  0  -0.398329  0  4.018858  0  0  -0.133878  -0.380568  0  3.98531  0
C  C49  1  0.16408250  0.61912305  0.25558717  1  0  -0.370601  0  3.754015  0  0  -0.387681  0  3.998843  0  0  -0.398421  0  4.019021  0  0  -0.133951  -0.380659  0  3.985471  0
C  C50  1  0.86363590  0.34578750  0.88139464  1  0  0.242169  0  3.847515  0  0  0.249455  0  4.100793  0  0  0.257548  0  4.121773  0  0  0.072598  0.243891  0  4.086275  0
C  C51  1  0.13635847  0.65421253  0.11860636  1  0  0.242155  0  3.847484  0  0  0.249458  0  4.100738  0  0  0.25755  0  4.121721  0  0  0.072611  0.243895  0  4.086218  0
C  C52  1  0.96484707  0.24091400  0.57681004  1  0  -0.34971  0  3.726225  0  0  -0.430618  0  3.962108  0  0  -0.432997  0  3.969406  0  0  -0.232983  -0.428743  0  3.956396  0
C  C53  1  0.03515033  0.75908839  0.42319155  1  0  -0.349685  0  3.726132  0  0  -0.430516  0  3.962076  0  0  -0.432897  0  3.969371  0  0  -0.232945  -0.428647  0  3.956366  0
C  C54  1  0.78283689  0.43009936  0.97176386  1  0  -0.35242  0  3.704483  0  0  -0.429565  0  3.934787  0  0  -0.432314  0  3.942735  0  0  -0.233011  -0.42709  0  3.929586  0
C  C55  1  0.21715168  0.56990515  0.02823716  1  0  -0.352539  0  3.704672  0  0  -0.429705  0  3.934979  0  0  -0.432462  0  3.942921  0  0  -0.233089  -0.427219  0  3.929792  0
C  C56  1  0.47549981  0.85172499  0.72061605  1  0  0.242546  0  3.850144  0  0  0.25038  0  4.105927  0  0  0.258671  0  4.126432  0  0  0.071009  0.244814  0  4.091972  0
C  C57  1  0.52450261  0.14826016  0.27939041  1  0  0.242462  0  3.850138  0  0  0.250272  0  4.105974  0  0  0.258562  0  4.126479  0  0  0.071028  0.244707  0  4.092019  0
C  C58  1  0.63448682  0.81485522  0.66449037  1  0  -0.372941  0  3.765388  0  0  -0.390967  0  4.008422  0  0  -0.402306  0  4.0291  0  0  -0.149187  -0.382942  0  3.995056  0
C  C59  1  0.36551970  0.18513355  0.33550764  1  0  -0.372787  0  3.765693  0  0  -0.390886  0  4.008686  0  0  -0.402226  0  4.029368  0  0  -0.149226  -0.38286  0  3.99532  0
C  C60  1  0.73609869  0.82724200  0.74826111  1  0  0.234612  0  3.864764  0  0  0.241335  0  4.121645  0  0  0.249284  0  4.142678  0  0  0.070224  0.236469  0  4.10695  0
C  C61  1  0.26390657  0.17276291  0.25173663  1  0  0.234406  0  3.864866  0  0  0.241295  0  4.121542  0  0  0.249244  0  4.142578  0  0  0.070193  0.236429  0  4.106847  0
C  C62  1  0.31672617  0.86170803  0.67270026  1  0  -0.353548  0  3.747449  0  0  -0.431192  0  3.981456  0  0  -0.433832  0  3.988363  0  0  -0.238169  -0.429081  0  3.976782  0
C  C63  1  0.68328395  0.13827501  0.32730318  1  0  -0.353413  0  3.747278  0  0  -0.431071  0  3.981278  0  0  -0.433715  0  3.988184  0  0  -0.23806  -0.428959  0  3.976604  0
C  C64  1  0.91769355  0.79874074  0.74098924  1  0  -0.35126  0  3.742829  0  0  -0.42989  0  3.975925  0  0  -0.432771  0  3.984352  0  0  -0.232749  -0.427953  0  3.968701  0
C  C65  1  0.08230701  0.20126410  0.25900446  1  0  -0.351231  0  3.742677  0  0  -0.429945  0  3.975777  0  0  -0.432806  0  3.98418  0  0  -0.232726  -0.428013  0  3.968563  0
C  C66  1  0.39867845  0.36455299  0.82533221  1  0  0.079255  0  3.574166  0  0  0.027796  0  3.834754  0  0  0.034722  0  3.840561  0  0  -0.065728  0.023253  0  3.831393  0
C  C67  1  0.60132544  0.63544726  0.17466747  1  0  0.079256  0  3.574056  0  0  0.027783  0  3.834711  0  0  0.034718  0  3.840508  0  0  -0.065728  0.023212  0  3.831341  0
C  C68  1  0.50009556  0.24355830  0.67598319  1  0  0.074438  0  3.588336  0  0  0.020901  0  3.853002  0  0  0.028201  0  3.85903  0  0  -0.067339  0.016026  0  3.848935  0
C  C69  1  0.49989398  0.75644742  0.32401444  1  0  0.074158  0  3.588721  0  0  0.020759  0  3.853207  0  0  0.028061  0  3.859234  0  0  -0.067399  0.015894  0  3.849126  0
C  C70  1  0.34847255  0.35658270  0.61169103  1  0  -0.139547  0  3.636068  0  0  -0.179744  0  3.892765  0  0  -0.181131  0  3.904731  0  0  -0.165035  -0.178748  0  3.885064  0
C  C71  1  0.65152856  0.64343023  0.38830332  1  0  -0.139526  0  3.636309  0  0  -0.179692  0  3.892832  0  0  -0.181073  0  3.904799  0  0  -0.165031  -0.1787  0  3.885127  0
C  C72  1  0.28083903  0.43939305  0.71153253  1  0  -0.149751  0  3.641386  0  0  -0.189011  0  3.898465  0  0  -0.190809  0  3.911023  0  0  -0.167502  -0.187594  0  3.889763  0
C  C73  1  0.71916003  0.56061288  0.28846470  1  0  -0.149646  0  3.641285  0  0  -0.188934  0  3.89836  0  0  -0.190731  0  3.910915  0  0  -0.167473  -0.187517  0  3.889663  0
N  N74  1  0.02441280  0.16395339  0.81937712  1  0  -0.465431  0  3.177492  0  0  -0.409567  0  3.439489  0  0  -0.424464  0  3.460435  0  0  -0.395972  -0.398959  0  3.424403  0
N  N75  1  0.97558698  0.83604906  0.18062414  1  0  -0.465458  0  3.177685  0  0  -0.409559  0  3.439711  0  0  -0.424456  0  3.460657  0  0  -0.395941  -0.39895  0  3.424623  0
N  N76  1  0.97793429  0.21525887  0.92584751  1  0  -0.478765  0  3.185618  0  0  -0.419532  0  3.445626  0  0  -0.43515  0  3.466519  0  0  -0.40945  -0.40904  0  3.430822  0
N  N77  1  0.02206501  0.78474590  0.07415107  1  0  -0.478605  0  3.18547  0  0  -0.419364  0  3.445447  0  0  -0.434979  0  3.466338  0  0  -0.409377  -0.408871  0  3.430642  0
N  N78  1  0.48199519  0.88312068  0.83166697  1  0  -0.426201  0  3.159803  0  0  -0.375126  0  3.433198  0  0  -0.38904  0  3.451507  0  0  -0.360796  -0.365417  0  3.420607  0
N  N79  1  0.51800714  0.11687609  0.16833047  1  0  -0.426194  0  3.159622  0  0  -0.37512  0  3.433056  0  0  -0.389033  0  3.451365  0  0  -0.360859  -0.365409  0  3.420463  0
N  N80  1  0.64309761  0.86889372  0.84830622  1  0  -0.43338  0  3.172448  0  0  -0.380639  0  3.443473  0  0  -0.394437  0  3.462176  0  0  -0.352607  -0.37061  0  3.430471  0
N  N81  1  0.35690148  0.13111223  0.15168914  1  0  -0.433297  0  3.172363  0  0  -0.380596  0  3.443304  0  0  -0.394398  0  3.462007  0  0  -0.352546  -0.370565  0  3.430303  0
O  O82  1  0.47111155  0.21394741  0.82262810  1  0  -0.392275  0  2.239511  0  0  -0.303179  0  2.484129  0  0  -0.322533  0  2.487441  0  0  -0.262854  -0.289664  0  2.482003  0
O  O83  1  0.52888068  0.78605141  0.17737364  1  0  -0.392172  0  2.239535  0  0  -0.303103  0  2.484066  0  0  -0.32246  0  2.487377  0  0  -0.262888  -0.289592  0  2.481948  0
