# generated using pymatgen
data_CoH18C22(N2Cl)2
_symmetry_space_group_name_H-M   'P 1'
_cell_length_a   11.85716597
_cell_length_b   13.79614747
_cell_length_c   17.81893409
_cell_angle_alpha   106.54306150
_cell_angle_beta   89.99989114
_cell_angle_gamma   90.00045646
_symmetry_Int_Tables_number   1
_chemical_formula_structural   CoH18C22(N2Cl)2
_chemical_formula_sum   'Co4 H72 C88 N16 Cl8'
_cell_volume   2794.21998670
_cell_formula_units_Z   4
loop_
 _symmetry_equiv_pos_site_id
 _symmetry_equiv_pos_as_xyz
  1  'x, y, z'
loop_
 _atom_site_type_symbol
 _atom_site_label
 _atom_site_symmetry_multiplicity
 _atom_site_fract_x
 _atom_site_fract_y
 _atom_site_fract_z
 _atom_site_occupancy
 _atom_site_pbe_bader_charge
 _atom_site_pbe_bader_spin_density
 _atom_site_pbe_cm5_charge
 _atom_site_pbe_ddec_charge
 _atom_site_pbe_ddec_spin_density
 _atom_site_pbe_ddec_sum_bond_order
 _atom_site_pbe_magmom
Co  Co0  1  0.31753747  0.73912573  0.96999010  1  1.050483  -2.478603  0.52655  0.655341  -2.727438  2.936813  -2.413
Co  Co1  1  0.81752870  0.76087280  0.53000922  1  1.050548  -2.478617  0.526432  0.655154  -2.727451  2.936865  -2.413
Co  Co2  1  0.68245938  0.26087169  0.03000014  1  1.050162  -2.478587  0.526534  0.655273  -2.727404  2.936965  -2.413
Co  Co3  1  0.18245466  0.23912755  0.46999010  1  1.050641  -2.478578  0.526557  0.655269  -2.727424  2.937133  -2.413
H  H4  1  0.43787933  0.70932110  0.12027710  1  0.112508  -0.000833  0.140552  0.105312  -0.000122  0.986796  0.0
H  H5  1  0.93789088  0.79067367  0.37971877  1  0.112567  -0.000834  0.1405  0.105338  -0.000122  0.986648  0.0
H  H6  1  0.56212343  0.29068614  0.87971536  1  0.113088  -0.000833  0.14054  0.105322  -0.000122  0.986519  0.0
H  H7  1  0.06210597  0.20932073  0.62027022  1  0.112668  -0.000833  0.140566  0.105385  -0.000122  0.986741  0.0
H  H8  1  0.37479256  0.33514009  0.07391377  1  0.106764  -0.000668  0.100926  0.114467  -0.000261  1.02859  0.0
H  H9  1  0.87479772  0.16486028  0.42609276  1  0.106689  -0.000667  0.100967  0.114504  -0.000261  1.028486  0.0
H  H10  1  0.62522960  0.66487154  0.92609315  1  0.106821  -0.000668  0.100943  0.114509  -0.000262  1.028708  0.0
H  H11  1  0.12520673  0.83514823  0.57392300  1  0.106569  -0.000668  0.100961  0.114375  -0.000262  1.029013  0.0
H  H12  1  0.27073642  0.23998052  0.95240099  1  0.088076  -5.6e-05  0.097822  0.096776  -2.8e-05  1.01788  0.0
H  H13  1  0.77073603  0.26001841  0.54760835  1  0.088158  -5.7e-05  0.09782  0.096771  -2.8e-05  1.017905  0.0
H  H14  1  0.72928742  0.76002204  0.04760444  1  0.08797  -5.7e-05  0.097844  0.096814  -2.8e-05  1.01777  0.0
H  H15  1  0.22927348  0.73997627  0.45242392  1  0.088142  -5.6e-05  0.097826  0.096723  -2.8e-05  1.017896  0.0
H  H16  1  0.20450614  0.32529463  0.85675880  1  0.064866  1.4e-05  0.098472  0.097742  3.1e-05  1.006772  0.0
H  H17  1  0.70449958  0.17468957  0.64323886  1  0.064937  1.3e-05  0.098464  0.09773  3.1e-05  1.006771  0.0
H  H18  1  0.79551686  0.67469962  0.14324306  1  0.064728  1.4e-05  0.098537  0.097761  3.1e-05  1.006682  0.0
H  H19  1  0.29552004  0.82528401  0.35678246  1  0.064257  1.4e-05  0.098672  0.097792  3.1e-05  1.006782  0.0
H  H20  1  0.23295055  0.51133550  0.87914843  1  0.102321  -0.000813  0.10642  0.117195  -0.000456  1.019655  0.0
H  H21  1  0.73294620  0.98865564  0.62084988  1  0.102299  -0.000814  0.106407  0.117201  -0.000456  1.019443  0.0
H  H22  1  0.76707414  0.48865739  0.12083966  1  0.101949  -0.000813  0.10643  0.117142  -0.000456  1.019506  0.0
H  H23  1  0.26705993  0.01131745  0.37914720  1  0.102338  -0.000812  0.106458  0.11722  -0.000455  1.019435  0.0
H  H24  1  0.51612506  0.60316784  0.19856309  1  0.075122  -8.3e-05  0.117098  0.101743  -1e-05  0.959104  0.0
H  H25  1  0.01613161  0.89683396  0.30142873  1  0.075053  -8.4e-05  0.117061  0.101743  -1e-05  0.958972  0.0
H  H26  1  0.48388023  0.39684311  0.80143695  1  0.075113  -8.4e-05  0.117154  0.101825  -1e-05  0.959167  0.0
H  H27  1  0.98386271  0.10318384  0.69856836  1  0.074893  -8.4e-05  0.117014  0.101755  -1e-05  0.959186  0.0
H  H28  1  0.51851292  0.47014693  0.15679381  1  0.111566  -0.000374  0.106244  0.099123  3.5e-05  1.03003  0.0
H  H29  1  0.01850996  0.02986620  0.34321044  1  0.111286  -0.000374  0.106335  0.099268  3.5e-05  1.029849  0.0
H  H30  1  0.48149575  0.52986406  0.84320230  1  0.111361  -0.000374  0.106323  0.099272  3.5e-05  1.029924  0.0
H  H31  1  0.98147003  0.97014094  0.65679154  1  0.111468  -0.000374  0.106268  0.099222  3.5e-05  1.029786  0.0
H  H32  1  0.27410789  0.65294873  0.22893324  1  0.050211  -2e-06  0.096365  0.093556  3.5e-05  1.011112  0.0
H  H33  1  0.77409754  0.84707419  0.27109054  1  0.050305  -3e-06  0.0964  0.093663  3.5e-05  1.010917  0.0
H  H34  1  0.72590921  0.34707798  0.77108159  1  0.050324  -3e-06  0.096364  0.093641  3.4e-05  1.011095  0.0
H  H35  1  0.22588498  0.15294716  0.72892981  1  0.050112  -2e-06  0.096391  0.093653  3.5e-05  1.011122  0.0
H  H36  1  0.45404505  0.38770020  0.24394504  1  0.098125  -0.001666  0.090523  0.109285  -0.001033  1.048273  0.0
H  H37  1  0.95403588  0.11231654  0.25606903  1  0.097914  -0.001668  0.090472  0.109119  -0.001033  1.048273  0.0
H  H38  1  0.54595012  0.61229113  0.75604663  1  0.098077  -0.001666  0.090604  0.109381  -0.001032  1.048113  0.0
H  H39  1  0.04594832  0.88770332  0.74394817  1  0.098189  -0.001668  0.090562  0.1093  -0.001033  1.048165  0.0
H  H40  1  0.05521621  0.65375134  0.51604408  1  0.138435  -0.000943  0.137777  0.108808  -0.00017  0.996064  0.0
H  H41  1  0.55523641  0.84624090  0.98395077  1  0.138719  -0.000943  0.137774  0.108759  -0.00017  0.996002  0.0
H  H42  1  0.94476884  0.34625355  0.48395514  1  0.138344  -0.000943  0.137723  0.108778  -0.000169  0.996053  0.0
H  H43  1  0.44476803  0.15374743  0.01603797  1  0.138442  -0.000943  0.137793  0.108808  -0.000169  0.996211  0.0
H  H44  1  0.99619892  0.36761699  0.26830434  1  0.100077  -0.001104  0.108454  0.12946  -0.000536  0.992038  0.0
H  H45  1  0.49619980  0.13238736  0.23169003  1  0.100002  -0.001104  0.108471  0.129472  -0.000537  0.9921  0.0
H  H46  1  0.00381902  0.63237951  0.73169971  1  0.100289  -0.001104  0.108467  0.129526  -0.000537  0.992171  0.0
H  H47  1  0.50379874  0.86761454  0.76830571  1  0.099876  -0.001104  0.108524  0.129537  -0.000536  0.992103  0.0
H  H48  1  0.80783522  0.35174132  0.20302676  1  0.110706  -0.000127  0.089662  0.095032  0.000109  1.054065  0.0
H  H49  1  0.30783436  0.14826870  0.29695566  1  0.110819  -0.000127  0.089644  0.095027  0.000109  1.054017  0.0
H  H50  1  0.19217682  0.64824240  0.79696823  1  0.110947  -0.000128  0.089624  0.094986  0.000109  1.05411  0.0
H  H51  1  0.69215153  0.85174008  0.70303434  1  0.110876  -0.000127  0.089691  0.095023  0.000109  1.054055  0.0
H  H52  1  0.65466419  0.47090098  0.25701784  1  0.086741  -0.00011  0.091588  0.093324  4.2e-05  1.042496  0.0
H  H53  1  0.15465562  0.02911554  0.24296905  1  0.086897  -0.000111  0.091639  0.093467  4.2e-05  1.042404  0.0
H  H54  1  0.34534784  0.52908199  0.74297643  1  0.086763  -0.000111  0.091603  0.093323  4.1e-05  1.042518  0.0
H  H55  1  0.84532268  0.97089244  0.75702526  1  0.086931  -0.000111  0.091613  0.093275  4.2e-05  1.042625  0.0
H  H56  1  0.68288393  0.61694724  0.37817468  1  0.104157  -0.000288  0.100997  0.119813  -1.2e-05  1.014965  0.0
H  H57  1  0.18289426  0.88306332  0.12181330  1  0.104338  -0.000288  0.101062  0.119811  -1.3e-05  1.015041  0.0
H  H58  1  0.31710365  0.38304724  0.62180703  1  0.10378  -0.000288  0.101036  0.119763  -1.3e-05  1.015062  0.0
H  H59  1  0.81708826  0.11693024  0.87818280  1  0.104526  -0.000288  0.101038  0.119808  -1.2e-05  1.015186  0.0
H  H60  1  0.12602974  0.39975861  0.39421362  1  0.114407  -0.000944  0.10159  0.093984  -0.000442  1.059498  0.0
H  H61  1  0.62605211  0.10023497  0.10577372  1  0.114428  -0.000944  0.101558  0.093915  -0.000442  1.059359  0.0
H  H62  1  0.87395531  0.60023350  0.60577597  1  0.114386  -0.000944  0.101604  0.09393  -0.000442  1.059516  0.0
H  H63  1  0.37395065  0.89976167  0.89421746  1  0.114372  -0.000944  0.101608  0.093975  -0.000442  1.059396  0.0
H  H64  1  0.18221559  0.50764570  0.46306678  1  0.101218  -8.3e-05  0.122401  0.115539  2.4e-05  0.945903  0.0
H  H65  1  0.68224189  0.99234122  0.03693493  1  0.101096  -8.3e-05  0.122358  0.115432  2.4e-05  0.945726  0.0
H  H66  1  0.81777368  0.49235315  0.53693108  1  0.101147  -8.3e-05  0.122391  0.115498  2.4e-05  0.945733  0.0
H  H67  1  0.31776088  0.00764325  0.96306135  1  0.101127  -8.3e-05  0.122395  0.115447  2.4e-05  0.945829  0.0
H  H68  1  0.13727477  0.63013833  0.32708038  1  0.034976  -2.7e-05  0.095202  0.090441  1.1e-05  1.026278  0.0
H  H69  1  0.63727926  0.86987311  0.17293816  1  0.0352  -2.6e-05  0.095252  0.090458  1.2e-05  1.02633  0.0
H  H70  1  0.86273305  0.36986719  0.67293077  1  0.034986  -2.6e-05  0.095191  0.090388  1.2e-05  1.026319  0.0
H  H71  1  0.36272266  0.13014381  0.82707108  1  0.034862  -2.7e-05  0.095181  0.090389  1.1e-05  1.026305  0.0
H  H72  1  0.31727350  0.36532156  0.34311030  1  0.104591  -0.000285  0.09594  0.109219  1.9e-05  1.0289  0.0
H  H73  1  0.81726146  0.13468593  0.15690184  1  0.104875  -0.000286  0.095981  0.109326  1.8e-05  1.028654  0.0
H  H74  1  0.68271830  0.63467285  0.65687701  1  0.10395  -0.000286  0.095901  0.109116  1.8e-05  1.028763  0.0
H  H75  1  0.18273455  0.86531210  0.84310144  1  0.104921  -0.000286  0.095914  0.109225  1.8e-05  1.028546  0.0
C  C76  1  0.40347200  0.63878222  0.08373362  1  1.022459  -0.005311  0.160977  0.119274  -0.003582  3.939422  -0.005
C  C77  1  0.90347147  0.86121836  0.41626417  1  1.02242  -0.005308  0.16102  0.119288  -0.00358  3.939096  -0.005
C  C78  1  0.59653835  0.36123408  0.91626201  1  1.02231  -0.005309  0.161051  0.119375  -0.003582  3.938895  -0.005
C  C79  1  0.09652033  0.13877754  0.58372572  1  1.022602  -0.005307  0.16087  0.119138  -0.00358  3.939285  -0.005
C  C80  1  0.34449888  0.37253490  0.03154091  1  -0.033283  -0.000423  -0.094046  -0.158633  -0.000149  3.995682  0.0
C  C81  1  0.84449597  0.12746675  0.46846819  1  -0.033666  -0.000423  -0.094075  -0.158682  -0.000149  3.99519  0.0
C  C82  1  0.65551231  0.62747450  0.96846158  1  -0.03334  -0.000424  -0.094053  -0.158633  -0.000149  3.995943  0.0
C  C83  1  0.15549920  0.87253714  0.53155438  1  -0.033674  -0.000424  -0.09415  -0.158642  -0.000149  3.996072  0.0
C  C84  1  0.28759073  0.32053095  0.96355407  1  -0.014158  -0.00168  -0.098717  -0.092262  -0.000857  4.037714  -0.001
C  C85  1  0.78758876  0.17946732  0.53645678  1  -0.01362  -0.001678  -0.098582  -0.092151  -0.000856  4.037586  -0.001
C  C86  1  0.71242721  0.67947167  0.03644576  1  -0.015266  -0.001679  -0.098593  -0.09217  -0.000857  4.037593  -0.001
C  C87  1  0.21242075  0.82052814  0.46357343  1  -0.015084  -0.00168  -0.098598  -0.092129  -0.000857  4.037921  -0.001
C  C88  1  0.24890811  0.36954845  0.90887097  1  -0.096141  0.000368  -0.098585  -0.093561  0.000463  4.031314  0.0
C  C89  1  0.74890635  0.13044958  0.59113818  1  -0.09688  0.000368  -0.09865  -0.093545  0.000463  4.031381  0.0
C  C90  1  0.75111320  0.63045344  0.09112589  1  -0.095323  0.000368  -0.098734  -0.093708  0.000463  4.031467  0.0
C  C91  1  0.25110484  0.86954215  0.40888724  1  -0.094467  0.000369  -0.098874  -0.093688  0.000463  4.031759  0.0
C  C92  1  0.26430602  0.47286489  0.92055384  1  0.038021  -0.002975  -0.085984  -0.148349  -0.001537  3.970942  -0.002
C  C93  1  0.76430332  0.02714166  0.57944769  1  0.038096  -0.002975  -0.086001  -0.148467  -0.001537  3.970751  -0.002
C  C94  1  0.73571360  0.52713784  0.07943536  1  0.039789  -0.002975  -0.085903  -0.148106  -0.001537  3.970813  -0.002
C  C95  1  0.23570366  0.97285015  0.42057046  1  0.038971  -0.002974  -0.085966  -0.148271  -0.001537  3.971046  -0.002
C  C96  1  0.32100438  0.52603400  0.98866988  1  0.356706  -0.00237  0.089986  0.15039  -0.001486  4.028859  -0.002
C  C97  1  0.82101034  0.97396752  0.51133460  1  0.356781  -0.002368  0.090019  0.150569  -0.001485  4.028897  -0.002
C  C98  1  0.67900429  0.47397244  0.01132689  1  0.355768  -0.002372  0.089933  0.150183  -0.001487  4.029307  -0.002
C  C99  1  0.17898399  0.02602214  0.48867128  1  0.356037  -0.002371  0.089935  0.150214  -0.001486  4.029694  -0.002
C  C100  1  0.36084222  0.47592874  0.04264920  1  0.316116  -0.00423  0.094382  0.095803  -0.002256  3.974756  -0.003
C  C101  1  0.86084342  0.02407075  0.45735995  1  0.316448  -0.00423  0.094348  0.095692  -0.002256  3.974698  -0.003
C  C102  1  0.63917825  0.52408524  0.95735151  1  0.31587  -0.004231  0.094298  0.095758  -0.002256  3.975071  -0.003
C  C103  1  0.13916187  0.97592642  0.54265268  1  0.316161  -0.00423  0.094447  0.096047  -0.002256  3.97497  -0.003
C  C104  1  0.46284476  0.53659995  0.17328237  1  0.277544  -0.000975  -0.044148  -0.107522  -0.00059  3.908088  -0.001
C  C105  1  0.96284378  0.96340552  0.32672039  1  0.27746  -0.000975  -0.044221  -0.107744  -0.00059  3.908007  -0.001
C  C106  1  0.53715041  0.46340267  0.82671690  1  0.277563  -0.000975  -0.044244  -0.107648  -0.00059  3.908137  -0.001
C  C107  1  0.03714802  0.03660829  0.67329545  1  0.277311  -0.000975  -0.044102  -0.10786  -0.00059  3.908023  -0.001
C  C108  1  0.37536587  0.52313860  0.23130980  1  -0.051733  -0.000393  -0.01965  0.076957  -0.000181  3.98717  0.0
C  C109  1  0.87535760  0.97688356  0.26870694  1  -0.050345  -0.000393  -0.019793  0.076897  -0.000181  3.987509  0.0
C  C110  1  0.62463689  0.47686930  0.76869178  1  -0.051048  -0.000393  -0.019647  0.077103  -0.000182  3.987377  0.0
C  C111  1  0.12463926  0.02313481  0.73130768  1  -0.051684  -0.000393  -0.019554  0.077274  -0.000181  3.987624  0.0
C  C112  1  0.28506211  0.59035449  0.25449183  1  -0.03302  -0.000181  -0.097884  -0.134598  -8.1e-05  4.009524  0.0
C  C113  1  0.78505749  0.90966098  0.24552743  1  -0.033952  -0.000182  -0.097796  -0.134679  -8.1e-05  4.00891  0.0
C  C114  1  0.71494824  0.40965103  0.74551988  1  -0.034327  -0.000182  -0.09781  -0.134633  -8.1e-05  4.008951  0.0
C  C115  1  0.21493515  0.09036192  0.75448989  1  -0.032855  -0.000182  -0.097899  -0.134789  -8.1e-05  4.009181  0.0
C  C116  1  0.38571782  0.44197099  0.26331838  1  -0.011204  -0.002274  -0.089856  -0.120874  -0.001221  3.969598  -0.002
C  C117  1  0.88569555  0.05804227  0.23669386  1  -0.011765  -0.002277  -0.089783  -0.120693  -0.001222  3.969889  -0.002
C  C118  1  0.61428831  0.55801424  0.73667695  1  -0.012092  -0.002276  -0.090021  -0.121203  -0.001222  3.970335  -0.002
C  C119  1  0.11428276  0.94197844  0.76331455  1  -0.011958  -0.002275  -0.090044  -0.121101  -0.001221  3.970377  -0.002
C  C120  1  0.00154645  0.61606720  0.46706767  1  0.995135  0.002517  0.15124  0.104387  0.002166  3.944915  0.001
C  C121  1  0.50155402  0.88392918  0.03292575  1  0.994784  0.002514  0.15117  0.104307  0.002164  3.944861  0.001
C  C122  1  0.99845125  0.38393014  0.53292929  1  0.994598  0.002514  0.151176  0.104221  0.002164  3.944772  0.001
C  C123  1  0.49843862  0.11606664  0.96707142  1  0.994955  0.002511  0.151197  0.104454  0.002162  3.9454  0.001
C  C124  1  0.92914350  0.42196191  0.29138111  1  0.042807  -0.000599  -0.09412  -0.158546  -0.000336  3.982878  0.0
C  C125  1  0.42915320  0.07803589  0.20861579  1  0.042923  -0.0006  -0.094135  -0.158477  -0.000336  3.98272  0.0
C  C126  1  0.07084914  0.57802329  0.70861703  1  0.042687  -0.0006  -0.094137  -0.158623  -0.000336  3.98309  0.0
C  C127  1  0.57083438  0.92195841  0.79138159  1  0.04261  -0.0006  -0.094168  -0.158468  -0.000336  3.982436  0.0
C  C128  1  0.82367649  0.41371241  0.25566758  1  -0.017664  -0.001063  -0.094929  -0.075675  -0.00055  4.000691  -0.001
C  C129  1  0.32368701  0.08628704  0.24432141  1  -0.017641  -0.001064  -0.094988  -0.075738  -0.000551  4.000566  -0.001
C  C130  1  0.17631109  0.58627664  0.74432581  1  -0.017778  -0.001066  -0.094953  -0.075636  -0.000551  4.000578  -0.001
C  C131  1  0.67630563  0.91371334  0.75567455  1  -0.017602  -0.001063  -0.095095  -0.075873  -0.00055  4.000448  -0.001
C  C132  1  0.73626803  0.48318713  0.28628403  1  -0.098234  0.000691  -0.100464  -0.089054  0.000677  4.020881  0.001
C  C133  1  0.23626280  0.01682011  0.21370065  1  -0.098072  0.000692  -0.100498  -0.089367  0.000678  4.020828  0.001
C  C134  1  0.26372967  0.51679739  0.71370721  1  -0.097931  0.000691  -0.100511  -0.089304  0.000677  4.02074  0.001
C  C135  1  0.76372225  0.98318564  0.78628978  1  -0.098359  0.000689  -0.100477  -0.089083  0.000675  4.021259  0.001
C  C136  1  0.75073383  0.56430438  0.35306709  1  0.000625  -0.002284  -0.09683  -0.164178  -0.001115  3.986637  -0.001
C  C137  1  0.25073531  0.93570437  0.14692095  1  0.000544  -0.002284  -0.09684  -0.163784  -0.001115  3.986684  -0.001
C  C138  1  0.24925881  0.43569008  0.64691630  1  0.001101  -0.002287  -0.096785  -0.163695  -0.001116  3.986664  -0.001
C  C139  1  0.74926577  0.06429305  0.85306928  1  0.000736  -0.002282  -0.096777  -0.163789  -0.001114  3.986813  -0.001
C  C140  1  0.85650951  0.57364103  0.38932468  1  0.335697  -0.001675  0.078843  0.133302  -0.001097  4.060892  -0.002
C  C141  1  0.35652535  0.92635697  0.11067203  1  0.335778  -0.001674  0.078859  0.132987  -0.001097  4.061219  -0.002
C  C142  1  0.14347469  0.42633975  0.61066179  1  0.336064  -0.001671  0.078708  0.132729  -0.001097  4.061482  -0.002
C  C143  1  0.64348247  0.07364488  0.88932819  1  0.335813  -0.001675  0.078678  0.132889  -0.001098  4.060764  -0.002
C  C144  1  0.94329134  0.50268157  0.35891377  1  0.252071  -0.004216  0.087532  0.081176  -0.002117  4.006289  -0.003
C  C145  1  0.44329764  0.99732240  0.14107632  1  0.251552  -0.004215  0.087556  0.081145  -0.002116  4.006509  -0.003
C  C146  1  0.05670889  0.49731661  0.64107552  1  0.251442  -0.004218  0.087613  0.08135  -0.002118  4.006431  -0.003
C  C147  1  0.55670006  0.00267721  0.85892114  1  0.251689  -0.004216  0.087629  0.081215  -0.002117  4.006271  -0.003
C  C148  1  0.14192008  0.48120689  0.40518324  1  0.276154  -0.000849  -0.046758  -0.113382  -0.000541  3.913334  -0.001
C  C149  1  0.64193412  0.01878127  0.09482531  1  0.275168  -0.000848  -0.046801  -0.113451  -0.000541  3.913311  -0.001
C  C150  1  0.85807172  0.51879033  0.59482491  1  0.276362  -0.000848  -0.046679  -0.113096  -0.000541  3.913683  -0.001
C  C151  1  0.35806190  0.98120845  0.90517553  1  0.27481  -0.000849  -0.046787  -0.113293  -0.000542  3.913422  -0.001
C  C152  1  0.21950034  0.49718562  0.34266000  1  -0.046637  -0.000356  -0.012314  0.090157  -0.000152  3.974627  0.0
C  C153  1  0.71949549  0.00281747  0.15734846  1  -0.0462  -0.000357  -0.012319  0.090323  -0.000153  3.975177  0.0
C  C154  1  0.78049652  0.50282240  0.65733095  1  -0.047057  -0.000357  -0.012588  0.089834  -0.000153  3.975613  0.0
C  C155  1  0.28049294  0.99717378  0.84265160  1  -0.045432  -0.000357  -0.012281  0.090239  -0.000153  3.97488  0.0
C  C156  1  0.20754007  0.57737901  0.30975298  1  -0.063905  -2.9e-05  -0.098434  -0.139706  1.2e-05  4.020236  0.0
C  C157  1  0.70753658  0.92262549  0.19024987  1  -0.063451  -2.9e-05  -0.098412  -0.139611  1.2e-05  4.020222  0.0
C  C158  1  0.79247112  0.42262893  0.69024469  1  -0.063248  -2.9e-05  -0.098402  -0.139667  1.2e-05  4.019993  0.0
C  C159  1  0.29246703  0.07737706  0.80975612  1  -0.063419  -2.9e-05  -0.098439  -0.139653  1.2e-05  4.019881  0.0
C  C160  1  0.30843867  0.42882496  0.31836863  1  -0.038674  -0.000255  -0.085832  -0.111336  -0.00011  3.948782  0.0
C  C161  1  0.80843187  0.07117119  0.18163646  1  -0.038335  -0.000254  -0.085854  -0.111476  -0.00011  3.948774  0.0
C  C162  1  0.69155987  0.57116555  0.68162958  1  -0.03687  -0.000255  -0.085657  -0.111029  -0.00011  3.948927  0.0
C  C163  1  0.19154728  0.92882773  0.81835523  1  -0.03837  -0.000256  -0.085688  -0.111191  -0.000111  3.948862  0.0
N  N164  1  0.34900204  0.62822128  0.01650981  1  -1.214773  -0.068652  -0.366198  -0.341178  -0.036543  3.651221  -0.045
N  N165  1  0.84900478  0.87178723  0.48349153  1  -1.214913  -0.068649  -0.366142  -0.341151  -0.036539  3.651253  -0.045
N  N166  1  0.65102012  0.37178366  0.98348437  1  -1.214646  -0.068641  -0.366207  -0.341017  -0.036535  3.650965  -0.045
N  N167  1  0.15100473  0.12821086  0.51650616  1  -1.214964  -0.068652  -0.366137  -0.341113  -0.036541  3.651268  -0.045
N  N168  1  0.41329599  0.55015873  0.10197788  1  -1.230551  -0.006825  -0.235188  -0.007901  -0.00322  3.733137  -0.005
N  N169  1  0.91330142  0.94985164  0.39803166  1  -1.230553  -0.00682  -0.235183  -0.007912  -0.003217  3.733081  -0.005
N  N170  1  0.58670930  0.44986357  0.89802416  1  -1.230638  -0.006821  -0.235256  -0.00816  -0.003217  3.733188  -0.005
N  N171  1  0.08669797  0.05015089  0.60197545  1  -1.230417  -0.006822  -0.235144  -0.007866  -0.003218  3.732841  -0.005
N  N172  1  0.89624437  0.64377668  0.45708446  1  -1.225716  -0.067962  -0.36948  -0.350983  -0.036253  3.653995  -0.047
N  N173  1  0.39625131  0.85621934  0.04290950  1  -1.225917  -0.067961  -0.369388  -0.350758  -0.036253  3.654236  -0.047
N  N174  1  0.10375839  0.35621393  0.54290367  1  -1.226114  -0.067956  -0.369409  -0.350699  -0.036246  3.654736  -0.047
N  N175  1  0.60373459  0.14378246  0.95709576  1  -1.225666  -0.067962  -0.369384  -0.350919  -0.036253  3.654394  -0.047
N  N176  1  0.03369547  0.53208187  0.41023406  1  -1.23408  -0.002574  -0.242174  -0.01303  -0.001014  3.761935  -0.002
N  N177  1  0.53370029  0.96791618  0.08976587  1  -1.233952  -0.002576  -0.242235  -0.013002  -0.001015  3.762197  -0.002
N  N178  1  0.96630898  0.46792681  0.58976546  1  -1.233479  -0.002576  -0.24211  -0.012962  -0.001015  3.761775  -0.002
N  N179  1  0.46629825  0.03207348  0.91024057  1  -1.233959  -0.00258  -0.242231  -0.013117  -0.001017  3.762038  -0.002
Cl  Cl180  1  0.41731095  0.71740564  0.85995915  1  -0.644776  -0.14469  -0.277269  -0.488978  -0.076383  1.309806  -0.095
Cl  Cl181  1  0.91731134  0.78258909  0.64003245  1  -0.644665  -0.14469  -0.277317  -0.48896  -0.076388  1.309887  -0.095
Cl  Cl182  1  0.58267157  0.28259488  0.14002337  1  -0.644717  -0.144712  -0.277334  -0.488994  -0.0764  1.309905  -0.095
Cl  Cl183  1  0.08268973  0.21741290  0.35995545  1  -0.644811  -0.144695  -0.27725  -0.488946  -0.076386  1.309945  -0.095
Cl  Cl184  1  0.13753254  0.76480582  0.95757221  1  -0.614044  -0.193729  -0.33861  -0.487797  -0.101741  1.10094  -0.126
Cl  Cl185  1  0.63752349  0.73518411  0.54240798  1  -0.614188  -0.193731  -0.338645  -0.487814  -0.101739  1.101031  -0.126
Cl  Cl186  1  0.86246431  0.23518782  0.04241661  1  -0.614035  -0.193735  -0.338671  -0.487882  -0.101748  1.100986  -0.126
Cl  Cl187  1  0.36246324  0.26479443  0.45757518  1  -0.614069  -0.193758  -0.338618  -0.487767  -0.101756  1.101003  -0.126
