# generated using pymatgen
data_CdH16(C2N)6
_symmetry_space_group_name_H-M   'P 1'
_cell_length_a   9.42095914
_cell_length_b   10.19473118
_cell_length_c   16.97443009
_cell_angle_alpha   90.00059095
_cell_angle_beta   89.99968786
_cell_angle_gamma   90.00080363
_symmetry_Int_Tables_number   1
_chemical_formula_structural   CdH16(C2N)6
_chemical_formula_sum   'Cd4 H64 C48 N24'
_cell_volume   1630.29464001
_cell_formula_units_Z   4
loop_
 _symmetry_equiv_pos_site_id
 _symmetry_equiv_pos_as_xyz
  1  'x, y, z'
loop_
 _atom_site_type_symbol
 _atom_site_label
 _atom_site_symmetry_multiplicity
 _atom_site_fract_x
 _atom_site_fract_y
 _atom_site_fract_z
 _atom_site_occupancy
 _atom_site_pbe_bader_charge
 _atom_site_pbe_bader_spin_density
 _atom_site_pbe_cm5_charge
 _atom_site_pbe_ddec_charge
 _atom_site_pbe_ddec_spin_density
 _atom_site_pbe_ddec_sum_bond_order
 _atom_site_pbe_magmom
Cd  Cd0  1  0.82196684  0.49151953  0.62894569  1  1.127298  0  0.797575  0.745144  0  2.305201  0
Cd  Cd1  1  0.32196559  0.00847620  0.12894407  1  1.127267  0  0.797584  0.745175  0  2.305056  0
Cd  Cd2  1  0.82196520  0.99152204  0.87105493  1  1.127302  0  0.797556  0.745093  0  2.3052  0
Cd  Cd3  1  0.32196607  0.50847871  0.37105802  1  1.12727  0  0.797592  0.745158  0  2.305172  0
H  H4  1  0.53984665  0.84634073  0.80596288  1  0.088383  0  0.108568  0.10096  0  1.015823  0
H  H5  1  0.03986563  0.65365622  0.30596747  1  0.087803  0  0.10859  0.101125  0  1.016233  0
H  H6  1  0.53985296  0.34633640  0.69403416  1  0.088435  0  0.108542  0.100975  0  1.01574  0
H  H7  1  0.03985178  0.15365973  0.19403226  1  0.088285  0  0.108581  0.101062  0  1.015813  0
H  H8  1  0.53429634  0.64593917  0.69492467  1  0.072838  0  0.108467  0.101911  0  1.011518  0
H  H9  1  0.03431412  0.85405188  0.19493521  1  0.072507  0  0.108442  0.101993  0  1.011996  0
H  H10  1  0.53429945  0.14593478  0.80507056  1  0.072911  0  0.108413  0.101827  0  1.011309  0
H  H11  1  0.03430237  0.35405926  0.30506931  1  0.07256  0  0.108409  0.101772  0  1.011585  0
H  H12  1  0.04476027  0.66496064  0.70946263  1  0.033799  0  0.0943  0.139454  0  1.022208  0
H  H13  1  0.54477785  0.83503863  0.20946741  1  0.033792  0  0.0943  0.139447  0  1.022222  0
H  H14  1  0.04476458  0.16495993  0.79053420  1  0.033813  0  0.094276  0.139454  0  1.022214  0
H  H15  1  0.54476412  0.33504478  0.29053545  1  0.033751  0  0.094288  0.139443  0  1.022252  0
H  H16  1  0.04661683  0.73534588  0.80571056  1  0.038384  0  0.091385  0.130804  0  1.024499  0
H  H17  1  0.54663335  0.76465311  0.30571372  1  0.038865  0  0.091368  0.130791  0  1.02443  0
H  H18  1  0.04662421  0.23534841  0.69428848  1  0.038388  0  0.091375  0.130801  0  1.024455  0
H  H19  1  0.54662374  0.26465467  0.19428869  1  0.038453  0  0.091386  0.130812  0  1.024473  0
H  H20  1  0.04541220  0.83741552  0.72121614  1  0.073097  0  0.091651  0.130786  0  1.018035  0
H  H21  1  0.54542186  0.66258593  0.22121867  1  0.072914  0  0.091701  0.130864  0  1.017978  0
H  H22  1  0.04541450  0.33741460  0.77878471  1  0.072919  0  0.091674  0.130805  0  1.018003  0
H  H23  1  0.54541249  0.16258992  0.27878488  1  0.072983  0  0.091679  0.130823  0  1.018027  0
H  H24  1  0.47097828  0.23663191  0.42928689  1  0.108282  0  0.102374  0.094899  0  1.063493  0
H  H25  1  0.97098457  0.26336993  0.92929004  1  0.108144  0  0.102397  0.094926  0  1.063377  0
H  H26  1  0.47098594  0.73662731  0.07071263  1  0.108264  0  0.10239  0.09491  0  1.063463  0
H  H27  1  0.97098055  0.76337317  0.57071402  1  0.108242  0  0.102385  0.094862  0  1.063419  0
H  H28  1  0.66604056  0.22925689  0.55198348  1  0.119806  0  0.10409  0.096597  0  1.064102  0
H  H29  1  0.16604858  0.27073941  0.05198643  1  0.119799  0  0.104103  0.096574  0  1.064042  0
H  H30  1  0.66604453  0.72925778  0.94801482  1  0.11981  0  0.1041  0.096599  0  1.064127  0
H  H31  1  0.16604194  0.77074324  0.44801482  1  0.119827  0  0.104077  0.096569  0  1.064068  0
H  H32  1  0.53891542  0.70592779  0.43869533  1  0.037305  0  0.090525  0.129512  0  1.035657  0
H  H33  1  0.03891890  0.79407240  0.93868546  1  0.037144  0  0.090515  0.129552  0  1.035872  0
H  H34  1  0.53891454  0.20592412  0.06131086  1  0.03719  0  0.090557  0.129592  0  1.035881  0
H  H35  1  0.03891696  0.29407560  0.56131160  1  0.037196  0  0.090563  0.129617  0  1.035875  0
H  H36  1  0.72215979  0.69052026  0.46390999  1  0.043991  0  0.093209  0.138444  0  0.999702  0
H  H37  1  0.22216032  0.80948373  0.96389904  1  0.043996  0  0.093257  0.138503  0  0.999665  0
H  H38  1  0.72215704  0.19051812  0.03609850  1  0.043922  0  0.093288  0.138533  0  0.999701  0
H  H39  1  0.22215863  0.30948747  0.53609756  1  0.043878  0  0.093287  0.138538  0  0.99968  0
H  H40  1  0.59223540  0.70627035  0.53841053  1  0.062291  0  0.094467  0.139869  0  1.008409  0
H  H41  1  0.09223634  0.79372465  0.03840243  1  0.062495  0  0.094493  0.139948  0  1.008371  0
H  H42  1  0.59223698  0.20627354  0.96159373  1  0.062437  0  0.094464  0.139911  0  1.00834  0
H  H43  1  0.09223580  0.29372687  0.46159506  1  0.06246  0  0.094479  0.139946  0  1.008328  0
H  H44  1  0.59919115  0.96533239  0.50962214  1  0.546158  0  0.290041  0.243864  0  1.058369  0
H  H45  1  0.09919029  0.53467005  0.00962363  1  0.546154  0  0.290018  0.243863  0  1.058464  0
H  H46  1  0.59919032  0.46532628  0.99037487  1  0.546153  0  0.290014  0.243806  0  1.058408  0
H  H47  1  0.09919477  0.03467276  0.49037459  1  0.54618  0  0.290011  0.243833  0  1.058262  0
H  H48  1  0.68440886  0.95569294  0.65509137  1  0.108861  0  0.110201  0.101981  0  1.05903  0
H  H49  1  0.18440709  0.54430526  0.15509351  1  0.108733  0  0.110172  0.101933  0  1.059083  0
H  H50  1  0.68440946  0.45569119  0.84490591  1  0.1087  0  0.110185  0.101975  0  1.059049  0
H  H51  1  0.18441511  0.04431136  0.34490746  1  0.108801  0  0.11021  0.102014  0  1.059032  0
H  H52  1  0.96931975  0.02462459  0.65044695  1  0.052178  0  0.104888  0.092062  0  1.040421  0
H  H53  1  0.46931389  0.47537342  0.15044882  1  0.052157  0  0.104876  0.092081  0  1.040458  0
H  H54  1  0.96931619  0.52462771  0.84954974  1  0.052116  0  0.104848  0.092036  0  1.040465  0
H  H55  1  0.46932094  0.97537949  0.34954925  1  0.052068  0  0.104873  0.092028  0  1.040366  0
H  H56  1  0.91142268  0.04028774  0.36905149  1  0.058728  0  0.099977  0.144792  0  1.003505  0
H  H57  1  0.41142018  0.45971818  0.86905266  1  0.058918  0  0.099967  0.144831  0  1.003402  0
H  H58  1  0.91141702  0.54027926  0.13094548  1  0.058965  0  0.099958  0.144794  0  1.003518  0
H  H59  1  0.41141876  0.95972049  0.63094548  1  0.058932  0  0.099943  0.144785  0  1.003517  0
H  H60  1  0.75798970  0.93838397  0.36765593  1  0.038588  0  0.094995  0.136192  0  0.995466  0
H  H61  1  0.25798754  0.56161687  0.86765876  1  0.038585  0  0.094987  0.136213  0  0.995429  0
H  H62  1  0.75798282  0.43838054  0.13234044  1  0.038981  0  0.094995  0.136202  0  0.99543  0
H  H63  1  0.25798809  0.06162030  0.63234032  1  0.038997  0  0.095015  0.136224  0  0.995402  0
H  H64  1  0.73965191  0.11118313  0.37895451  1  0.077663  0  0.094029  0.134986  0  1.011187  0
H  H65  1  0.23964940  0.38881778  0.87895465  1  0.077667  0  0.094028  0.134979  0  1.01125  0
H  H66  1  0.73964847  0.61117939  0.12104283  1  0.077907  0  0.094013  0.134942  0  1.011248  0
H  H67  1  0.23964702  0.88882090  0.62104239  1  0.077914  0  0.09399  0.134934  0  1.011229  0
C  C68  1  0.84530233  0.74483487  0.74655923  1  1.051388  0  0.190069  0.369495  0  4.039979  0
C  C69  1  0.34531648  0.75516601  0.24656385  1  1.051379  0  0.189965  0.369471  0  4.040065  0
C  C70  1  0.84530806  0.24483254  0.75343921  1  1.051426  0  0.189982  0.369468  0  4.039808  0
C  C71  1  0.34530842  0.25516563  0.25343853  1  1.051425  0  0.189986  0.369435  0  4.039833  0
C  C72  1  0.62626967  0.79633187  0.77615836  1  0.367042  0  -0.028905  -0.069231  0  4.095348  0
C  C73  1  0.12626713  0.70364411  0.27617385  1  0.366721  0  -0.028822  -0.069344  0  4.094384  0
C  C74  1  0.62627676  0.29632707  0.72384047  1  0.36643  0  -0.028896  -0.069338  0  4.09536  0
C  C75  1  0.12627103  0.20366284  0.22383535  1  0.366465  0  -0.02897  -0.0695  0  4.095125  0
C  C76  1  0.62376838  0.69645921  0.72154473  1  0.305929  0  -0.031781  -0.076291  0  4.103439  0
C  C77  1  0.12376734  0.80355307  0.22154199  1  0.30645  0  -0.031883  -0.076531  0  4.102654  0
C  C78  1  0.62377493  0.19645828  0.77845113  1  0.305849  0  -0.031757  -0.076151  0  4.103089  0
C  C79  1  0.12377071  0.30354332  0.27845370  1  0.306065  0  -0.031714  -0.075967  0  4.10288  0
C  C80  1  0.00359823  0.74530023  0.74580525  1  -0.09337  0  -0.23863  -0.471897  0  3.984431  0
C  C81  1  0.50361035  0.75470012  0.24580836  1  -0.093877  0  -0.238716  -0.472025  0  3.984446  0
C  C82  1  0.00360289  0.24529987  0.75419397  1  -0.093301  0  -0.238605  -0.4719  0  3.984317  0
C  C83  1  0.50360121  0.25470270  0.25419413  1  -0.093351  0  -0.238642  -0.471927  0  3.984448  0
C  C84  1  0.59763602  0.51660625  0.48323341  1  0.994308  0  0.186265  0.377627  0  4.027573  0
C  C85  1  0.09763706  0.98339351  0.98322707  1  0.995554  0  0.186218  0.37754  0  4.027422  0
C  C86  1  0.59763558  0.01660476  0.01676966  1  0.994283  0  0.186213  0.377487  0  4.02749  0
C  C87  1  0.09763556  0.48339594  0.51677216  1  0.994284  0  0.186278  0.377719  0  4.027361  0
C  C88  1  0.52939635  0.31544874  0.45752187  1  0.336376  0  -0.038607  -0.074381  0  4.070858  0
C  C89  1  0.02940561  0.18454883  0.95752369  1  0.336628  0  -0.038577  -0.074404  0  4.071031  0
C  C90  1  0.52940535  0.81544659  0.04248091  1  0.336412  0  -0.038615  -0.074431  0  4.070979  0
C  C91  1  0.02940187  0.68455159  0.54247802  1  0.336435  0  -0.038606  -0.074274  0  4.07099  0
C  C92  1  0.62535441  0.31169697  0.51855587  1  0.308825  0  -0.031959  -0.060481  0  4.067655  0
C  C93  1  0.12535800  0.18829922  0.01855359  1  0.308654  0  -0.031967  -0.06035  0  4.067821  0
C  C94  1  0.62536017  0.81169647  0.98144601  1  0.308826  0  -0.03195  -0.060427  0  4.067748  0
C  C95  1  0.12535209  0.68830166  0.48144845  1  0.308762  0  -0.03195  -0.060489  0  4.06797  0
C  C96  1  0.61351662  0.66188726  0.48061461  1  -0.059189  0  -0.239729  -0.466357  0  3.977109  0
C  C97  1  0.11351759  0.83811168  0.98060383  1  -0.059529  0  -0.23978  -0.466521  0  3.977265  0
C  C98  1  0.61351722  0.16188679  0.01939345  1  -0.059415  0  -0.239809  -0.466551  0  3.977382  0
C  C99  1  0.11351712  0.33811612  0.51939446  1  -0.059367  0  -0.239861  -0.466707  0  3.977438  0
C  C100  1  0.81682752  0.01231678  0.48187654  1  0.965158  0  0.207067  0.368218  0  3.988862  0
C  C101  1  0.31682544  0.48768494  0.98187847  1  0.965229  0  0.207089  0.36831  0  3.988874  0
C  C102  1  0.81682402  0.51231127  0.01812055  1  0.965259  0  0.207129  0.368169  0  3.988967  0
C  C103  1  0.31682831  0.98768630  0.51812071  1  0.965262  0  0.207083  0.368209  0  3.989036  0
C  C104  1  0.75303181  0.97982798  0.60591620  1  0.323489  0  -0.00978  -0.053971  0  3.979865  0
C  C105  1  0.25302543  0.52017321  0.10592172  1  0.323478  0  -0.009616  -0.053671  0  3.979273  0
C  C106  1  0.75302131  0.47982414  0.89407749  1  0.323383  0  -0.00969  -0.053855  0  3.979232  0
C  C107  1  0.25303297  0.02017917  0.39407948  1  0.323198  0  -0.00981  -0.054011  0  3.979573  0
C  C108  1  0.89422352  0.01395740  0.60250964  1  0.370708  0  -0.023227  -0.061661  0  4.069741  0
C  C109  1  0.39422312  0.48604078  0.10251216  1  0.370737  0  -0.023357  -0.061938  0  4.069656  0
C  C110  1  0.89422798  0.51395938  0.89748604  1  0.370996  0  -0.023274  -0.061778  0  4.069517  0
C  C111  1  0.39422865  0.98604668  0.39748679  1  0.370951  0  -0.023235  -0.061622  0  4.069533  0
C  C112  1  0.80575380  0.02596811  0.39469959  1  -0.047689  0  -0.228287  -0.4516  0  3.950184  0
C  C113  1  0.30575152  0.47403491  0.89470144  1  -0.047845  0  -0.228242  -0.451634  0  3.949999  0
C  C114  1  0.80574945  0.52596214  0.10529702  1  -0.048479  0  -0.22823  -0.45151  0  3.950129  0
C  C115  1  0.30575247  0.97403777  0.60529710  1  -0.048469  0  -0.228203  -0.451534  0  3.950048  0
N  N116  1  0.76234860  0.66448363  0.70300831  1  -1.25066  0  -0.384685  -0.372661  0  3.516791  0
N  N117  1  0.26236291  0.83551444  0.20301578  1  -1.250086  0  -0.384559  -0.372506  0  3.516623  0
N  N118  1  0.76235284  0.16448106  0.79698811  1  -1.250458  0  -0.384596  -0.372592  0  3.516485  0
N  N119  1  0.26235335  0.33551678  0.29698793  1  -1.25018  0  -0.384579  -0.372587  0  3.516467  0
N  N120  1  0.76663451  0.82623268  0.79164035  1  -1.255861  0  -0.386675  -0.371336  0  3.524048  0
N  N121  1  0.26664956  0.67376599  0.29164388  1  -1.25533  0  -0.386585  -0.371258  0  3.523853  0
N  N122  1  0.76664069  0.32623153  0.70835883  1  -1.255315  0  -0.386643  -0.371334  0  3.524016  0
N  N123  1  0.26663981  0.17376681  0.20835706  1  -1.255381  0  -0.386652  -0.371362  0  3.523926  0
N  N124  1  0.66750387  0.43878655  0.53450077  1  -1.257755  0  -0.389736  -0.370144  0  3.504026  0
N  N125  1  0.16750872  0.06121143  0.03449771  1  -1.25753  0  -0.389711  -0.370176  0  3.50396  0
N  N126  1  0.66750660  0.93878578  0.96550000  1  -1.25763  0  -0.38971  -0.370067  0  3.503946  0
N  N127  1  0.16750508  0.56121753  0.46550106  1  -1.2576  0  -0.389718  -0.370135  0  3.503987  0
N  N128  1  0.51292142  0.44545971  0.43508443  1  -1.251689  0  -0.395253  -0.385664  0  3.542113  0
N  N129  1  0.01292552  0.05454020  0.93508073  1  -1.252758  0  -0.395283  -0.385634  0  3.542074  0
N  N130  1  0.51292595  0.94545795  0.06491980  1  -1.251516  0  -0.395283  -0.385617  0  3.541973  0
N  N131  1  0.01292262  0.55454432  0.56492140  1  -1.251536  0  -0.395269  -0.385704  0  3.542041  0
N  N132  1  0.93325192  0.03415369  0.52498126  1  -1.203825  0  -0.345194  -0.370522  0  3.353337  0
N  N133  1  0.43324698  0.46584562  0.02498248  1  -1.203763  0  -0.34523  -0.370561  0  3.353429  0
N  N134  1  0.93324926  0.53415112  0.97501677  1  -1.203889  0  -0.345236  -0.370536  0  3.35353  0
N  N135  1  0.43325068  0.96584893  0.47501681  1  -1.203827  0  -0.345236  -0.370588  0  3.353541  0
N  N136  1  0.70614736  0.97872449  0.52912842  1  -1.290924  0  -0.381703  -0.261394  0  3.649872  0
N  N137  1  0.20614523  0.52127870  0.02912923  1  -1.290991  0  -0.381719  -0.26153  0  3.649976  0
N  N138  1  0.70614566  0.47871804  0.97086953  1  -1.291013  0  -0.381702  -0.261332  0  3.649905  0
N  N139  1  0.20615203  0.02128107  0.47086976  1  -1.290962  0  -0.381659  -0.261374  0  3.649859  0
