# generated using pymatgen
data_CuH12C14(NO)4
_symmetry_space_group_name_H-M   'P 1'
_cell_length_a   8.01550095
_cell_length_b   8.54075006
_cell_length_c   10.49711386
_cell_angle_alpha   89.99947321
_cell_angle_beta   90.00032624
_cell_angle_gamma   107.89278325
_symmetry_Int_Tables_number   1
_chemical_formula_structural   CuH12C14(NO)4
_chemical_formula_sum   'Cu2 H24 C28 N8 O8'
_cell_volume   683.85831824
_cell_formula_units_Z   2
loop_
 _symmetry_equiv_pos_site_id
 _symmetry_equiv_pos_as_xyz
  1  'x, y, z'
loop_
 _atom_site_type_symbol
 _atom_site_label
 _atom_site_symmetry_multiplicity
 _atom_site_fract_x
 _atom_site_fract_y
 _atom_site_fract_z
 _atom_site_occupancy
 _atom_site_hle17_ddec_charge
 _atom_site_hle17_ddec_spin_density
 _atom_site_hle17_ddec_sum_bond_order
 _atom_site_hle17_magmom
 _atom_site_hse06_10hf_ddec_charge
 _atom_site_hse06_10hf_ddec_spin_density
 _atom_site_hse06_10hf_ddec_sum_bond_order
 _atom_site_hse06_10hf_magmom
 _atom_site_hse06_ddec_charge
 _atom_site_hse06_ddec_spin_density
 _atom_site_hse06_ddec_sum_bond_order
 _atom_site_hse06_magmom
 _atom_site_pbe_cm5_charge
 _atom_site_pbe_ddec_charge
 _atom_site_pbe_ddec_spin_density
 _atom_site_pbe_ddec_sum_bond_order
 _atom_site_pbe_magmom
Cu  Cu0  1  0.50000037  0.00000003  0.50000047  1  0.813823  0.714497  1.806167  0.492  0.790734  0.795789  2.189062  0.6  0.879299  0.869515  2.122517  0.68  0.731437  0.738053  0.745645  2.23417  0.551
Cu  Cu1  1  0.50000072  0.50000108  0.99999788  1  0.813922  -0.714546  1.806232  -0.492  0.790865  -0.795812  2.189158  -0.6  0.879448  -0.869547  2.122622  -0.68  0.731455  0.738176  -0.745689  2.234224  -0.551
H  H2  1  0.52655836  0.84136935  0.16914542  1  0.003777  0.008259  0.949565  0.01  0.010629  0.005558  1.024856  0.006  0.007956  0.00384  1.021911  0.005  0.101504  0.012254  0.006906  1.02716  0.008
H  H3  1  0.47344736  0.65862654  0.66916820  1  0.003809  -0.008241  0.950108  -0.01  0.010667  -0.005547  1.025339  -0.006  0.008001  -0.003833  1.022382  -0.004  0.101597  0.012295  -0.006891  1.027651  -0.008
H  H4  1  0.47344167  0.15862434  0.83085643  1  0.003715  0.008261  0.949612  0.01  0.010611  0.005558  1.02485  0.006  0.00794  0.00384  1.021903  0.005  0.101515  0.012239  0.006906  1.027156  0.008
H  H5  1  0.52655449  0.34138065  0.33083079  1  0.003857  -0.008236  0.950075  -0.01  0.010728  -0.005547  1.025274  -0.006  0.008061  -0.003833  1.022325  -0.004  0.101614  0.012359  -0.006891  1.027588  -0.008
H  H6  1  0.04657337  0.89379186  0.70735593  1  0.133791  0.000477  0.956625  0.001  0.143967  0.000388  1.014592  0.001  0.146491  0.000297  1.01417  0.0  0.126203  0.142087  0.000461  1.014917  0.001
H  H7  1  0.95344752  0.60620377  0.20734916  1  0.133657  -0.000482  0.956802  -0.001  0.143827  -0.000388  1.014798  -0.001  0.146345  -0.000297  1.014386  0.0  0.126161  0.141965  -0.000461  1.015095  -0.001
H  H8  1  0.95342659  0.10620551  0.29264401  1  0.13377  0.00048  0.956644  0.001  0.143949  0.000388  1.01461  0.001  0.146472  0.000296  1.014189  0.0  0.126214  0.142062  0.000461  1.01495  0.001
H  H9  1  0.04655448  0.39379606  0.79264888  1  0.133669  -0.00048  0.956725  -0.001  0.14385  -0.000388  1.014728  -0.001  0.146365  -0.000297  1.01433  0.0  0.126191  0.141997  -0.000461  1.015013  -0.001
H  H10  1  0.82714587  0.09159695  0.69379120  1  0.108915  -9e-06  0.966173  0.0  0.116044  0.000164  1.029004  0.0  0.118492  0.000111  1.028305  0.0  0.117188  0.114219  0.000216  1.029656  0.001
H  H11  1  0.17286066  0.40840460  0.19378829  1  0.108898  1e-05  0.966126  0.0  0.11605  -0.000164  1.028952  0.0  0.118493  -0.000111  1.028245  0.0  0.117188  0.114229  -0.000216  1.029607  -0.001
H  H12  1  0.17285120  0.90839916  0.30620874  1  0.108954  -7e-06  0.966095  0.0  0.116096  0.000164  1.028909  0.0  0.118544  0.000111  1.028211  0.0  0.117214  0.114272  0.000216  1.029564  0.001
H  H13  1  0.82714173  0.59159647  0.80620879  1  0.108894  0.0  0.966192  0.0  0.116036  -0.000164  1.029013  0.0  0.118479  -0.00011  1.02831  0.0  0.117198  0.114212  -0.000216  1.029665  -0.001
H  H14  1  0.20589618  0.77140952  0.56488805  1  0.106512  -0.000516  0.983204  0.0  0.105124  -0.000465  1.067287  0.0  0.109167  -0.000449  1.062217  0.0  0.103255  0.101678  -0.000449  1.071682  0.0
H  H15  1  0.79410488  0.72858983  0.06488824  1  0.106507  0.00052  0.983199  0.0  0.105097  0.000465  1.06731  0.0  0.109137  0.00045  1.062241  0.0  0.10326  0.101652  0.00045  1.071702  0.0
H  H16  1  0.79409924  0.22858535  0.43511379  1  0.106481  -0.000512  0.983316  0.0  0.105101  -0.000465  1.067371  0.0  0.109143  -0.000449  1.0623  0.0  0.103243  0.101654  -0.00045  1.071771  0.0
H  H17  1  0.20589869  0.27141493  0.93511456  1  0.106495  0.000514  0.983256  0.0  0.105115  0.000465  1.067332  0.0  0.109155  0.00045  1.062264  0.0  0.103259  0.101668  0.00045  1.071729  0.0
H  H18  1  0.66064827  0.71023594  0.42144031  1  0.114584  -1.3e-05  0.977502  0.0  0.119799  2.1e-05  1.044689  0.0  0.123849  8e-06  1.039848  0.0  0.13427  0.116819  4e-05  1.048036  0.0
H  H19  1  0.33935140  0.78975859  0.92143675  1  0.114603  1.4e-05  0.977796  0.0  0.119842  -2.1e-05  1.044925  0.0  0.123894  -7e-06  1.04008  0.0  0.134303  0.116862  -3.9e-05  1.048267  0.0
H  H20  1  0.33934794  0.28976139  0.57856058  1  0.114558  -1.3e-05  0.977511  0.0  0.11981  2.1e-05  1.044658  0.0  0.123861  8e-06  1.039816  0.0  0.13429  0.11683  4e-05  1.048001  0.0
H  H21  1  0.66065013  0.21024370  0.07856128  1  0.114592  1.4e-05  0.977779  0.0  0.119855  -2.1e-05  1.044886  0.0  0.123906  -7e-06  1.040043  0.0  0.134328  0.116873  -3.9e-05  1.048229  0.0
H  H22  1  0.67919646  0.45515239  0.49921126  1  0.104548  -0.000157  0.951407  0.0  0.115655  -0.000222  1.01288  0.0  0.11834  -0.00016  1.011114  0.0  0.109816  0.113595  -0.000268  1.01443  0.0
H  H23  1  0.32080174  0.04484724  0.99920756  1  0.104545  0.000156  0.951457  0.0  0.115672  0.000222  1.012919  0.0  0.118335  0.000161  1.011178  0.0  0.109827  0.113611  0.000268  1.01447  0.0
H  H24  1  0.32079896  0.54484248  0.50079344  1  0.104542  -0.000158  0.951447  0.0  0.115686  -0.000222  1.012885  0.0  0.118343  -0.00016  1.01115  0.0  0.109815  0.113625  -0.000268  1.014436  0.0
H  H25  1  0.67920347  0.95515875  0.00079714  1  0.104543  0.000157  0.951416  0.0  0.115664  0.000222  1.012882  0.0  0.118347  0.000161  1.011115  0.0  0.1098  0.113605  0.000268  1.014431  0.0
C  C26  1  0.54526350  0.92127858  0.25481728  1  0.554365  -0.006429  3.9213  -0.01  0.49302  -0.000931  4.234212  -0.004  0.530145  -0.001475  4.228691  -0.004  0.126998  0.468244  -0.000393  4.236908  -0.004
C  C27  1  0.45473673  0.57873726  0.75480247  1  0.554582  0.006432  3.920772  0.01  0.493273  0.00093  4.233622  0.004  0.530406  0.001473  4.228092  0.004  0.126978  0.468484  0.000394  4.236341  0.004
C  C28  1  0.45473607  0.07871755  0.74518171  1  0.554479  -0.006443  3.921409  -0.011  0.493115  -0.000931  4.234321  -0.004  0.530239  -0.001476  4.228799  -0.004  0.127054  0.468331  -0.000394  4.237021  -0.004
C  C29  1  0.54526262  0.42126991  0.24519652  1  0.554574  0.006418  3.92089  0.01  0.493262  0.00093  4.233747  0.004  0.53039  0.001473  4.228225  0.004  0.127042  0.468467  0.000393  4.23647  0.004
C  C30  1  0.93575269  0.62790966  0.53232503  1  0.165032  0.001039  3.778538  0.001  0.158764  0.000613  4.019421  0.001  0.163348  0.000453  4.042345  0.001  0.094887  0.155633  0.000759  4.004034  0.001
C  C31  1  0.06425010  0.87208021  0.03232288  1  0.164915  -0.001056  3.778842  -0.001  0.158699  -0.000615  4.019715  -0.001  0.163281  -0.000454  4.042635  -0.001  0.094875  0.155566  -0.000759  4.004319  -0.001
C  C32  1  0.06424274  0.37208521  0.46767681  1  0.165  0.001068  3.778581  0.001  0.158741  0.000612  4.019458  0.001  0.163323  0.000454  4.042376  0.001  0.094883  0.155612  0.000759  4.004072  0.001
C  C33  1  0.93575432  0.12792332  0.96767896  1  0.164896  -0.001036  3.779017  -0.001  0.158763  -0.000613  4.01977  -0.001  0.163344  -0.000454  4.042693  -0.001  0.0949  0.15563  -0.000759  4.004372  -0.001
C  C34  1  0.93237167  0.88525345  0.64882179  1  -0.045951  0.003226  3.612096  0.003  -0.085096  0.001958  3.866046  0.002  -0.083489  0.001844  3.883451  0.002  0.006649  -0.086048  0.001821  3.854169  0.002
C  C35  1  0.06763897  0.61474268  0.14881493  1  -0.045845  -0.003201  3.612468  -0.003  -0.08497  -0.001957  3.866399  -0.002  -0.08337  -0.001845  3.883807  -0.002  0.006695  -0.085927  -0.00182  3.85454  -0.002
C  C36  1  0.06762540  0.11474266  0.35117910  1  -0.045993  0.00319  3.61215  0.003  -0.085144  0.001958  3.866117  0.002  -0.083537  0.001845  3.883522  0.002  0.006591  -0.086092  0.001821  3.854249  0.002
C  C37  1  0.93236342  0.38525839  0.85118120  1  -0.045829  -0.003241  3.612286  -0.003  -0.084989  -0.001957  3.866264  -0.002  -0.08339  -0.001845  3.883669  -0.002  0.006628  -0.085953  -0.00182  3.854389  -0.002
C  C38  1  0.82441354  0.98215338  0.64079137  1  0.017894  -1.5e-05  3.70858  0.0  -0.013195  0.000969  3.97922  0.001  -0.009294  0.000282  3.998878  0.0  0.001037  -0.015603  0.001484  3.966277  0.001
C  C39  1  0.17559049  0.51783787  0.14079427  1  0.017989  -2e-06  3.708623  0.0  -0.01313  -0.000969  3.979249  -0.001  -0.009214  -0.000282  3.998897  0.0  0.001026  -0.015549  -0.001484  3.966323  -0.001
C  C40  1  0.17558353  0.01784273  0.35920953  1  0.017853  9e-06  3.708505  0.0  -0.013245  0.000969  3.979142  0.001  -0.009346  0.000282  3.998803  0.0  0.00103  -0.015653  0.001484  3.966201  0.001
C  C41  1  0.82441189  0.48216320  0.85920281  1  0.017982  5.5e-05  3.708733  0.0  -0.013114  -0.000969  3.979354  -0.001  -0.009201  -0.000282  3.999003  0.0  0.001038  -0.015534  -0.001484  3.966421  -0.001
C  C42  1  0.11611205  0.65268212  0.53636904  1  -0.115528  0.000116  3.71137  0.0  -0.134349  -0.000127  3.962362  0.0  -0.136994  -0.000188  3.982011  0.0  -0.083262  -0.132265  -6.4e-05  3.949257  0.0
C  C43  1  0.88389514  0.84731756  0.03636872  1  -0.115487  -0.000106  3.71155  0.0  -0.134304  0.000128  3.962524  0.0  -0.136956  0.000189  3.982205  0.0  -0.083272  -0.132226  6.5e-05  3.949416  0.0
C  C44  1  0.88388337  0.34731275  0.46363090  1  -0.115475  7.2e-05  3.711607  0.0  -0.134264  -0.000127  3.962498  0.0  -0.13692  -0.000189  3.982191  0.0  -0.083214  -0.13218  -6.4e-05  3.949392  0.0
C  C45  1  0.11610803  0.15268596  0.96363026  1  -0.115467  -0.000109  3.711712  0.0  -0.13432  0.000126  3.962618  0.0  -0.136974  0.00019  3.9823  0.0  -0.083258  -0.132242  6.4e-05  3.949508  0.0
C  C46  1  0.72788609  0.78508587  0.50083915  1  0.153577  -0.006089  3.629328  -0.006  0.099824  -0.001437  3.894754  -0.001  0.115441  -0.002089  3.906317  -0.002  0.140347  0.089975  -0.00086  3.886945  -0.001
C  C47  1  0.27211236  0.71492637  0.00083337  1  0.153501  0.00607  3.629552  0.006  0.099746  0.001438  3.894951  0.001  0.115364  0.002089  3.906507  0.002  0.14032  0.0899  0.000861  3.887125  0.001
C  C48  1  0.27211012  0.21491146  0.49916079  1  0.153563  -0.006064  3.629352  -0.006  0.099792  -0.001436  3.894755  -0.001  0.115411  -0.00209  3.906315  -0.002  0.140356  0.089947  -0.00086  3.886939  -0.001
C  C49  1  0.72789042  0.28507592  0.99916372  1  0.153625  0.006078  3.62943  0.006  0.099845  0.001437  3.894831  0.001  0.115462  0.00209  3.906388  0.002  0.140362  0.089998  0.000861  3.887012  0.001
C  C50  1  0.81984567  0.47539743  0.49713378  1  -0.112238  -0.000282  3.741009  0.0  -0.134538  -0.00025  3.99299  0.0  -0.136336  -0.00021  4.012537  0.0  -0.081605  -0.133551  -0.000174  3.980072  0.0
C  C51  1  0.18015338  0.02460100  0.99713248  1  -0.11211  0.000316  3.740953  0.0  -0.134447  0.000251  3.992944  0.0  -0.136224  0.000211  4.012498  0.0  -0.08156  -0.13346  0.000175  3.980018  0.0
C  C52  1  0.18014975  0.52459744  0.50286807  1  -0.112136  -0.00031  3.741005  0.0  -0.134478  -0.000249  3.993015  0.0  -0.13625  -0.000211  4.012575  0.0  -0.081511  -0.13349  -0.000173  3.980098  0.0
C  C53  1  0.81985144  0.97540376  0.00287032  1  -0.112087  0.000291  3.740965  0.0  -0.134448  0.000249  3.992944  0.0  -0.136238  0.000212  4.01249  0.0  -0.081506  -0.13346  0.000175  3.980014  0.0
N  N54  1  0.86835832  0.75988491  0.56051309  1  -0.088803  0.001775  3.608801  0.002  0.001805  0.001385  3.81613  0.002  -0.013033  0.001031  3.841501  0.001  -0.223979  0.011684  0.001638  3.798786  0.002
N  N55  1  0.13165077  0.74010841  0.06050556  1  -0.088804  -0.00177  3.60922  -0.002  0.001757  -0.001385  3.816578  -0.002  -0.013074  -0.00103  3.841944  -0.001  -0.224059  0.011628  -0.001636  3.799234  -0.002
N  N56  1  0.13163875  0.24011120  0.43948780  1  -0.088728  0.001778  3.608755  0.002  0.001866  0.001385  3.816094  0.002  -0.012971  0.001031  3.841465  0.001  -0.223979  0.011744  0.001638  3.798747  0.002
N  N57  1  0.86835326  0.25989389  0.93949152  1  -0.088865  -0.001773  3.609105  -0.002  0.001668  -0.001385  3.816485  -0.002  -0.013162  -0.00103  3.84185  -0.001  -0.224101  0.011541  -0.001636  3.799142  -0.002
N  N58  1  0.69829052  0.91890323  0.54837260  1  -0.363475  0.069438  3.353864  0.085  -0.318651  0.050965  3.66818  0.066  -0.349124  0.043497  3.686714  0.059  -0.378217  -0.300643  0.054807  3.657599  0.068
N  N59  1  0.30170719  0.58109380  0.04837367  1  -0.363467  -0.06944  3.353665  -0.085  -0.318659  -0.050974  3.668005  -0.066  -0.349145  -0.043501  3.686555  -0.059  -0.378173  -0.300647  -0.054816  3.657401  -0.068
N  N60  1  0.30170608  0.08109533  0.45162830  1  -0.363425  0.069418  3.353848  0.085  -0.318609  0.050966  3.668175  0.066  -0.349082  0.043498  3.686713  0.059  -0.378215  -0.300602  0.054808  3.657595  0.068
N  N61  1  0.69829559  0.41890850  0.95162246  1  -0.363526  -0.069448  3.353687  -0.085  -0.318707  -0.050973  3.668026  -0.066  -0.349192  -0.043502  3.686576  -0.059  -0.378188  -0.300694  -0.054816  3.657423  -0.068
O  O62  1  0.65011867  0.06384790  0.25278398  1  -0.590315  0.001263  1.980041  0.003  -0.550499  0.00063  2.222688  0.002  -0.57702  -0.000577  2.214502  0.0  -0.327082  -0.531805  0.001844  2.227119  0.004
O  O63  1  0.34986238  0.43614670  0.75278413  1  -0.590493  -0.001258  1.979321  -0.003  -0.550729  -0.000631  2.222014  -0.002  -0.577236  0.000579  2.213789  0.0  -0.327196  -0.532029  -0.001842  2.226432  -0.004
O  O64  1  0.34988137  0.93614578  0.74721405  1  -0.590394  0.001273  1.980053  0.003  -0.550566  0.000631  2.222704  0.002  -0.577095  -0.000577  2.214531  0.0  -0.327134  -0.531869  0.001845  2.227129  0.004
O  O65  1  0.65013110  0.56386165  0.24721581  1  -0.590535  -0.001259  1.979439  -0.003  -0.550751  -0.000631  2.222122  -0.002  -0.577258  0.000579  2.213897  0.0  -0.327247  -0.532041  -0.001841  2.226521  -0.004
O  O66  1  0.45068651  0.85032707  0.35011306  1  -0.553645  0.109832  2.080384  0.142  -0.523724  0.07244  2.365016  0.102  -0.567638  0.057696  2.36035  0.086  -0.333758  -0.495353  0.080945  2.368179  0.11
O  O67  1  0.54931372  0.64966695  0.85011527  1  -0.553738  -0.109823  2.080032  -0.142  -0.523843  -0.072431  2.364678  -0.102  -0.56777  -0.057684  2.360019  -0.086  -0.333743  -0.495467  -0.080937  2.367829  -0.11
O  O68  1  0.54931174  0.14967273  0.64988879  1  -0.553657  0.109825  2.080518  0.142  -0.523758  0.072436  2.365171  0.102  -0.567672  0.057692  2.360507  0.086  -0.333787  -0.495388  0.080943  2.36833  0.11
O  O69  1  0.45068992  0.35033413  0.14988371  1  -0.553772  -0.109814  2.080071  -0.142  -0.523885  -0.072429  2.364723  -0.102  -0.567811  -0.057682  2.360064  -0.086  -0.333796  -0.495508  -0.080934  2.367875  -0.11
