# generated using pymatgen
data_ScH5C7(NO4)2
_symmetry_space_group_name_H-M   'P 1'
_cell_length_a   10.24711659
_cell_length_b   13.83723909
_cell_length_c   13.83708408
_cell_angle_alpha   114.11348088
_cell_angle_beta   104.29018700
_cell_angle_gamma   104.29184199
_symmetry_Int_Tables_number   1
_chemical_formula_structural   ScH5C7(NO4)2
_chemical_formula_sum   'Sc6 H30 C42 N12 O48'
_cell_volume   1595.65694169
_cell_formula_units_Z   6
loop_
 _symmetry_equiv_pos_site_id
 _symmetry_equiv_pos_as_xyz
  1  'x, y, z'
loop_
 _atom_site_type_symbol
 _atom_site_label
 _atom_site_symmetry_multiplicity
 _atom_site_fract_x
 _atom_site_fract_y
 _atom_site_fract_z
 _atom_site_occupancy
 _atom_site_hle17_bader_spin_density
 _atom_site_hle17_ddec_charge
 _atom_site_hle17_ddec_spin_density
 _atom_site_hle17_ddec_sum_bond_order
 _atom_site_hle17_magmom
 _atom_site_hse06_10hf_bader_spin_density
 _atom_site_hse06_10hf_ddec_charge
 _atom_site_hse06_10hf_ddec_spin_density
 _atom_site_hse06_10hf_ddec_sum_bond_order
 _atom_site_hse06_10hf_magmom
 _atom_site_hse06_bader_spin_density
 _atom_site_hse06_ddec_charge
 _atom_site_hse06_ddec_spin_density
 _atom_site_hse06_ddec_sum_bond_order
 _atom_site_hse06_magmom
 _atom_site_pbe_bader_spin_density
 _atom_site_pbe_cm5_charge
 _atom_site_pbe_ddec_charge
 _atom_site_pbe_ddec_spin_density
 _atom_site_pbe_ddec_sum_bond_order
 _atom_site_pbe_magmom
Sc  Sc0  1  0.84712677  0.65547645  0.52360558  1  0  1.860032  0  1.746101  0  0  1.74433  0  2.177005  0  0  1.857581  0  2.076627  0  0  1.227392  1.664102  0  2.244413  0
Sc  Sc1  1  0.19161138  0.86811822  0.34454100  1  0  1.860426  0  1.745802  0  0  1.744943  0  2.175996  0  0  1.858422  0  2.075098  0  0  1.228173  1.664639  0  2.243495  0
Sc  Sc2  1  0.32348971  0.47641307  0.13188418  1  0  1.859359  0  1.748068  0  0  1.743174  0  2.179244  0  0  1.85665  0  2.078486  0  0  1.22704  1.662835  0  2.246826  0
Sc  Sc3  1  0.15287236  0.34452332  0.47639392  1  0  1.860042  0  1.746117  0  0  1.744323  0  2.177048  0  0  1.85758  0  2.076662  0  0  1.227385  1.6641  0  2.244452  0
Sc  Sc4  1  0.80838919  0.13188241  0.65545913  1  0  1.860429  0  1.74579  0  0  1.744935  0  2.175996  0  0  1.858418  0  2.075094  0  0  1.228169  1.664629  0  2.243495  0
Sc  Sc5  1  0.67651100  0.52358584  0.86811599  1  0  1.859305  0  1.748133  0  0  1.743113  0  2.179321  0  0  1.856569  0  2.078596  0  0  1.227009  1.662765  0  2.246906  0
H  H6  1  0.80097659  0.82074235  0.75830621  1  0  0.09497  0  0.929691  0  0  0.105458  0  0.988094  0  0  0.108795  0  0.983965  0  0  0.129075  0.102557  0  0.991888  0
H  H7  1  0.98021445  0.93758742  0.17924811  1  0  0.093781  0  0.929962  0  0  0.104717  0  0.988234  0  0  0.108028  0  0.984091  0  0  0.128368  0.10182  0  0.992083  0
H  H8  1  0.04263795  0.24168374  0.06245634  1  0  0.093041  0  0.929173  0  0  0.104142  0  0.986998  0  0  0.107566  0  0.98276  0  0  0.127264  0.10115  0  0.990924  0
H  H9  1  0.19902240  0.17925914  0.24169398  1  0  0.094978  0  0.929671  0  0  0.105457  0  0.988079  0  0  0.108794  0  0.983949  0  0  0.129086  0.102557  0  0.991873  0
H  H10  1  0.01978612  0.06241321  0.82075201  1  0  0.09378  0  0.929931  0  0  0.104713  0  0.988203  0  0  0.108024  0  0.98406  0  0  0.128358  0.101815  0  0.992052  0
H  H11  1  0.95736175  0.75831517  0.93754292  1  0  0.093004  0  0.929201  0  0  0.104113  0  0.987042  0  0  0.107539  0  0.982802  0  0  0.127246  0.101122  0  0.990967  0
H  H12  1  0.59352029  0.83973440  0.81915915  1  0  0.120771  0  0.944558  0  0  0.128604  0  1.003873  0  0  0.132482  0  1.00117  0  0  0.116699  0.125736  0  1.00599  0
H  H13  1  0.75374309  0.97942201  0.16023925  1  0  0.119994  0  0.945113  0  0  0.12803  0  1.00421  0  0  0.1319  0  1.001512  0  0  0.117354  0.125194  0  1.006272  0
H  H14  1  0.77433568  0.18081331  0.02056594  1  0  0.120336  0  0.94463  0  0  0.12796  0  1.004144  0  0  0.131826  0  1.001438  0  0  0.116509  0.125103  0  1.006211  0
H  H15  1  0.40647970  0.16026709  0.18084122  1  0  0.120768  0  0.944561  0  0  0.128589  0  1.003895  0  0  0.132466  0  1.001192  0  0  0.116702  0.125725  0  1.006007  0
H  H16  1  0.24625747  0.02057862  0.83976087  1  0  0.120048  0  0.945078  0  0  0.128053  0  1.004209  0  0  0.131922  0  1.001509  0  0  0.117367  0.125217  0  1.006271  0
H  H17  1  0.22566388  0.81918732  0.97943400  1  0  0.120328  0  0.944638  0  0  0.127954  0  1.004153  0  0  0.131821  0  1.001447  0  0  0.116505  0.125097  0  1.006221  0
H  H18  1  0.33632408  0.71916774  0.67272472  1  0  0.119105  0  0.955176  0  0  0.12299  0  1.022328  0  0  0.127608  0  1.017758  0  0  0.115227  0.119152  0  1.026396  0
H  H19  1  0.61711320  0.95356614  0.28081907  1  0  0.11894  0  0.954908  0  0  0.123234  0  1.021393  0  0  0.127832  0  1.016859  0  0  0.116332  0.119399  0  1.025455  0
H  H20  1  0.66353839  0.32724482  0.04645270  1  0  0.118132  0  0.955114  0  0  0.122155  0  1.022139  0  0  0.126774  0  1.017585  0  0  0.11493  0.118308  0  1.026211  0
H  H21  1  0.66367505  0.28083203  0.32727551  1  0  0.119053  0  0.95517  0  0  0.122944  0  1.022334  0  0  0.127563  0  1.01776  0  0  0.115209  0.119105  0  1.026403  0
H  H22  1  0.38288736  0.04643448  0.71918105  1  0  0.118939  0  0.954913  0  0  0.123233  0  1.021398  0  0  0.127832  0  1.016864  0  0  0.116329  0.119398  0  1.02546  0
H  H23  1  0.33646261  0.67275667  0.95354857  1  0  0.118128  0  0.955128  0  0  0.122156  0  1.022152  0  0  0.126776  0  1.017597  0  0  0.114934  0.118309  0  1.026223  0
H  H24  1  0.00122407  0.57853354  0.38928693  1  0  0.443563  0  0.849114  0  0  0.411154  0  0.914012  0  0  0.423754  0  0.895943  0  0  0.305338  0.401756  0  0.927543  0
H  H25  1  0.42266006  0.81074942  0.42145483  1  0  0.443277  0  0.849489  0  0  0.410128  0  0.915597  0  0  0.422804  0  0.897429  0  0  0.303951  0.40068  0  0.929181  0
H  H26  1  0.61187733  0.61070320  0.18924220  1  0  0.444827  0  0.846958  0  0  0.411904  0  0.912475  0  0  0.424541  0  0.894382  0  0  0.306205  0.402482  0  0.926017  0
H  H27  1  0.99877463  0.42146537  0.61071287  1  0  0.443551  0  0.849126  0  0  0.41114  0  0.914029  0  0  0.423739  0  0.895962  0  0  0.305337  0.401742  0  0.927561  0
H  H28  1  0.57734050  0.18925121  0.57854529  1  0  0.443274  0  0.849495  0  0  0.410122  0  0.915608  0  0  0.422798  0  0.897439  0  0  0.303951  0.400675  0  0.929191  0
H  H29  1  0.38812424  0.38929743  0.81075883  1  0  0.444865  0  0.846906  0  0  0.411944  0  0.912421  0  0  0.424582  0  0.894327  0  0  0.306219  0.40252  0  0.925964  0
H  H30  1  0.84368245  0.56260877  0.31062938  1  0  0.432932  0  0.870775  0  0  0.398898  0  0.93936  0  0  0.411304  0  0.921807  0  0  0.299815  0.390085  0  0.951855  0
H  H31  1  0.28103760  0.74799400  0.43736644  1  0  0.433815  0  0.869839  0  0  0.399269  0  0.939186  0  0  0.411684  0  0.921599  0  0  0.2995  0.390443  0  0.95171  0
H  H32  1  0.53303384  0.68938014  0.25201248  1  0  0.433223  0  0.870587  0  0  0.398418  0  0.940247  0  0  0.410843  0  0.922661  0  0  0.299425  0.38958  0  0.952778  0
H  H33  1  0.15631668  0.43739100  0.68937013  1  0  0.432903  0  0.870825  0  0  0.398855  0  0.939418  0  0  0.411257  0  0.921869  0  0  0.299815  0.390041  0  0.951914  0
H  H34  1  0.71896153  0.25200577  0.56263379  1  0  0.433827  0  0.869823  0  0  0.399278  0  0.939174  0  0  0.411694  0  0.921587  0  0  0.299507  0.390453  0  0.951697  0
H  H35  1  0.46696629  0.31061963  0.74798793  1  0  0.433212  0  0.870601  0  0  0.398409  0  0.940258  0  0  0.410834  0  0.922673  0  0  0.299421  0.389572  0  0.952787  0
C  C36  1  0.68772067  0.77076360  0.69687882  1  0  0.167509  0  3.652431  0  0  0.133963  0  3.914004  0  0  0.143505  0  3.92894  0  0  0.067186  0.127574  0  3.904432  0
C  C37  1  0.91693189  0.92612419  0.22921736  1  0  0.168537  0  3.650889  0  0  0.134052  0  3.913412  0  0  0.143606  0  3.928395  0  0  0.068179  0.127643  0  3.903844  0
C  C38  1  0.99080742  0.30310832  0.07389337  1  0  0.168627  0  3.650074  0  0  0.134752  0  3.911329  0  0  0.144201  0  3.926307  0  0  0.06968  0.128441  0  3.901711  0
C  C39  1  0.31227831  0.22923789  0.30312064  1  0  0.167509  0  3.652418  0  0  0.133992  0  3.913952  0  0  0.143535  0  3.928888  0  0  0.067193  0.127602  0  3.904387  0
C  C40  1  0.08306968  0.07387644  0.77078294  1  0  0.168507  0  3.650826  0  0  0.134038  0  3.913324  0  0  0.143593  0  3.928304  0  0  0.068172  0.127629  0  3.90375  0
C  C41  1  0.00919373  0.69689144  0.92610578  1  0  0.168701  0  3.650057  0  0  0.13478  0  3.911371  0  0  0.144229  0  3.926347  0  0  0.069673  0.128466  0  3.901755  0
C  C42  1  0.40526022  0.64003030  0.53484078  1  0  -0.090186  0  3.678372  0  0  -0.076457  0  3.913566  0  0  -0.0825  0  3.930165  0  0  0.011113  -0.072705  0  3.902943  0
C  C43  1  0.76518292  0.89482483  0.35995997  1  0  -0.090297  0  3.67833  0  0  -0.076635  0  3.912721  0  0  -0.082811  0  3.929598  0  0  0.011758  -0.072731  0  3.90195  0
C  C44  1  0.87034537  0.46510962  0.10518500  1  0  -0.092786  0  3.679608  0  0  -0.07848  0  3.915066  0  0  -0.084681  0  3.931906  0  0  0.009954  -0.074605  0  3.904292  0
C  C45  1  0.59473833  0.35997033  0.46515898  1  0  -0.090145  0  3.67831  0  0  -0.076388  0  3.913482  0  0  -0.08243  0  3.93008  0  0  0.011155  -0.072637  0  3.902861  0
C  C46  1  0.23481722  0.10517493  0.64003900  1  0  -0.09031  0  3.67831  0  0  -0.07667  0  3.912695  0  0  -0.082847  0  3.929571  0  0  0.011744  -0.072768  0  3.901927  0
C  C47  1  0.12965578  0.53489015  0.89481560  1  0  -0.092667  0  3.679513  0  0  -0.078397  0  3.914958  0  0  -0.084594  0  3.9318  0  0  0.009927  -0.07452  0  3.904181  0
C  C48  1  0.57167382  0.78064662  0.73032468  1  0  -0.078686  0  3.674345  0  0  -0.099377  0  3.935824  0  0  -0.104089  0  3.953511  0  0  -0.066977  -0.096699  0  3.924352  0
C  C49  1  0.79098001  0.94965935  0.21931923  1  0  -0.07693  0  3.674207  0  0  -0.097603  0  3.936306  0  0  -0.102293  0  3.953992  0  0  -0.067646  -0.094947  0  3.924867  0
C  C50  1  0.84131300  0.26965752  0.05033222  1  0  -0.078562  0  3.673004  0  0  -0.099032  0  3.934813  0  0  -0.103706  0  3.952502  0  0  -0.068726  -0.096343  0  3.923311  0
C  C51  1  0.42832617  0.21935487  0.26967569  1  0  -0.078708  0  3.674415  0  0  -0.099403  0  3.935894  0  0  -0.104116  0  3.953583  0  0  -0.066996  -0.096727  0  3.924424  0
C  C52  1  0.20902114  0.05034042  0.78068065  1  0  -0.076928  0  3.674165  0  0  -0.097583  0  3.936267  0  0  -0.102269  0  3.953945  0  0  -0.067625  -0.094928  0  3.924823  0
C  C53  1  0.15868714  0.73034224  0.94966675  1  0  -0.078596  0  3.673096  0  0  -0.099055  0  3.93493  0  0  -0.103725  0  3.952616  0  0  -0.068731  -0.096366  0  3.923428  0
C  C54  1  0.42908538  0.71391037  0.64902267  1  0  0.003833  0  3.627044  0  0  -0.022015  0  3.874348  0  0  -0.018343  0  3.888726  0  0  -0.048836  -0.023973  0  3.865136  0
C  C55  1  0.71512368  0.93511444  0.28607007  1  0  0.00356  0  3.627565  0  0  -0.022746  0  3.875314  0  0  -0.019023  0  3.889726  0  0  -0.049983  -0.024765  0  3.866099  0
C  C56  1  0.78000190  0.35094626  0.06490568  1  0  0.00584  0  3.626921  0  0  -0.020338  0  3.874368  0  0  -0.016632  0  3.888794  0  0  -0.046732  -0.022338  0  3.865125  0
C  C57  1  0.57091375  0.28608940  0.35097756  1  0  0.003893  0  3.627041  0  0  -0.021964  0  3.874333  0  0  -0.018293  0  3.888711  0  0  -0.048819  -0.023919  0  3.865124  0
C  C58  1  0.28487689  0.06488619  0.71393005  1  0  0.003552  0  3.627545  0  0  -0.022757  0  3.875289  0  0  -0.019034  0  3.8897  0  0  -0.049989  -0.024778  0  3.866072  0
C  C59  1  0.22000010  0.64905523  0.93509578  1  0  0.005847  0  3.626847  0  0  -0.020332  0  3.874293  0  0  -0.01663  0  3.888724  0  0  -0.046711  -0.022332  0  3.865049  0
C  C60  1  0.52731097  0.63586745  0.50814579  1  0  0.069664  0  3.743774  0  0  0.0646  0  3.990413  0  0  0.066397  0  4.009261  0  0  0.116767  0.063096  0  3.978092  0
C  C61  1  0.89140531  0.87230085  0.36412364  1  0  0.068087  0  3.74421  0  0  0.064885  0  3.989368  0  0  0.066655  0  4.008402  0  0  0.117931  0.063305  0  3.977069  0
C  C62  1  0.01909124  0.49181256  0.12766404  1  0  0.072814  0  3.74284  0  0  0.067432  0  3.99024  0  0  0.069265  0  4.0092  0  0  0.118154  0.0659  0  3.977848  0
C  C63  1  0.47268758  0.36413317  0.49185396  1  0  0.069705  0  3.743717  0  0  0.06462  0  3.990384  0  0  0.066415  0  4.009234  0  0  0.116766  0.063119  0  3.978064  0
C  C64  1  0.10859482  0.12769892  0.63587605  1  0  0.068149  0  3.744152  0  0  0.064958  0  3.989277  0  0  0.066702  0  4.008349  0  0  0.117946  0.063375  0  3.976978  0
C  C65  1  0.98090991  0.50818720  0.87233655  1  0  0.072854  0  3.742887  0  0  0.067469  0  3.99028  0  0  0.069297  0  4.009242  0  0  0.118203  0.065938  0  3.977886  0
C  C66  1  0.51844972  0.56427294  0.38940550  1  0  0.673341  0  3.876797  0  0  0.620467  0  4.183101  0  0  0.658792  0  4.173293  0  0  0.241954  0.594218  0  4.188976  0
C  C67  1  0.95407784  0.82515331  0.43573692  1  0  0.677822  0  3.875191  0  0  0.622865  0  4.183886  0  0  0.661175  0  4.174152  0  0  0.24197  0.596623  0  4.189796  0
C  C68  1  0.12893529  0.61058090  0.17484723  1  0  0.676414  0  3.873762  0  0  0.622963  0  4.181131  0  0  0.661263  0  4.171335  0  0  0.242747  0.596722  0  4.18702  0
C  C69  1  0.48155042  0.43572683  0.61059491  1  0  0.673292  0  3.876845  0  0  0.6204  0  4.183191  0  0  0.658725  0  4.173384  0  0  0.24192  0.594148  0  4.189065  0
C  C70  1  0.04592230  0.17484645  0.56426205  1  0  0.677771  0  3.875217  0  0  0.62284  0  4.183848  0  0  0.661154  0  4.174127  0  0  0.241986  0.596603  0  4.18976  0
C  C71  1  0.87106586  0.38941886  0.82515264  1  0  0.676376  0  3.873845  0  0  0.622954  0  4.181175  0  0  0.661259  0  4.171371  0  0  0.242741  0.596712  0  4.187064  0
C  C72  1  0.24895843  0.57015030  0.44875520  1  0  0.744809  0  3.817298  0  0  0.688584  0  4.12021  0  0  0.728078  0  4.105534  0  0  0.25443  0.661044  0  4.130377  0
C  C73  1  0.67880814  0.87861011  0.42988081  1  0  0.74449  0  3.820348  0  0  0.688423  0  4.122774  0  0  0.727894  0  4.108282  0  0  0.254201  0.66082  0  4.13295  0
C  C74  1  0.80021491  0.55125763  0.12139388  1  0  0.745809  0  3.820144  0  0  0.688974  0  4.123487  0  0  0.728525  0  4.108845  0  0  0.254615  0.661361  0  4.133724  0
C  C75  1  0.75104070  0.42984947  0.55124359  1  0  0.744757  0  3.817314  0  0  0.688522  0  4.120235  0  0  0.728017  0  4.105559  0  0  0.254411  0.660982  0  4.130403  0
C  C76  1  0.32119242  0.12139051  0.57011859  1  0  0.744522  0  3.820327  0  0  0.688496  0  4.122684  0  0  0.727995  0  4.108151  0  0  0.254245  0.660891  0  4.13287  0
C  C77  1  0.19978580  0.44874128  0.87860629  1  0  0.745407  0  3.820524  0  0  0.68867  0  4.123714  0  0  0.728222  0  4.109067  0  0  0.254469  0.661055  0  4.133946  0
N  N78  1  0.66605084  0.69933235  0.58844469  1  0  -0.392457  0  3.23934  0  0  -0.344811  0  3.508325  0  0  -0.368945  0  3.53113  0  0  -0.353884  -0.32792  0  3.492541  0
N  N79  1  0.96669714  0.88913192  0.30067145  1  0  -0.391733  0  3.239553  0  0  -0.344263  0  3.508205  0  0  -0.368406  0  3.531053  0  0  -0.353978  -0.327351  0  3.492437  0
N  N80  1  0.07756558  0.41154349  0.11087212  1  0  -0.392583  0  3.241051  0  0  -0.344758  0  3.510222  0  0  -0.368922  0  3.533104  0  0  -0.353909  -0.327836  0  3.49437  0
N  N81  1  0.33394772  0.30066828  0.41155506  1  0  -0.392492  0  3.239348  0  0  -0.344849  0  3.508338  0  0  -0.368984  0  3.531143  0  0  -0.353906  -0.327958  0  3.492557  0
N  N82  1  0.03330300  0.11086785  0.69932824  1  0  -0.391768  0  3.239516  0  0  -0.344314  0  3.508169  0  0  -0.368451  0  3.531025  0  0  -0.354002  -0.327403  0  3.492398  0
N  N83  1  0.92243413  0.58845542  0.88912714  1  0  -0.392621  0  3.24108  0  0  -0.344779  0  3.51027  0  0  -0.368941  0  3.533153  0  0  -0.353907  -0.327855  0  3.494417  0
N  N84  1  0.10261489  0.77202019  0.70651262  1  0  0.717359  0  4.102081  0  0  0.734032  0  4.41882  0  0  0.76472  0  4.425946  0  0  0.094794  0.713095  0  4.413308  0
N  N85  1  0.33058267  0.93450611  0.22801412  1  0  0.691274  0  4.134428  0  0  0.731705  0  4.418327  0  0  0.762334  0  4.425559  0  0  0.094178  0.710791  0  4.412815  0
N  N86  1  0.39604888  0.29347929  0.06552119  1  0  0.716965  0  4.09966  0  0  0.733301  0  4.416825  0  0  0.763947  0  4.424008  0  0  0.096789  0.712377  0  4.411302  0
N  N87  1  0.89738424  0.22797958  0.29348689  1  0  0.717288  0  4.102089  0  0  0.733964  0  4.41882  0  0  0.76465  0  4.425948  0  0  0.094787  0.713024  0  4.413315  0
N  N88  1  0.66941689  0.06549451  0.77198582  1  0  0.6913  0  4.134427  0  0  0.731746  0  4.4183  0  0  0.762375  0  4.425535  0  0  0.094201  0.710831  0  4.412787  0
N  N89  1  0.60395126  0.70652048  0.93447850  1  0  0.716842  0  4.099889  0  0  0.73318  0  4.417052  0  0  0.763832  0  4.424231  0  0  0.096694  0.71226  0  4.411526  0
O  O90  1  0.63738737  0.56046424  0.38008927  1  0  -0.645126  0  2.037667  0  0  -0.602543  0  2.29826  0  0  -0.638021  0  2.290563  0  0  -0.339258  -0.577796  0  2.302791  0
O  O91  1  0.07683131  0.81963035  0.43956658  1  0  -0.647196  0  2.037854  0  0  -0.604401  0  2.300447  0  0  -0.639787  0  2.292456  0  0  -0.341058  -0.579622  0  2.304962  0
O  O92  1  0.25721853  0.61993821  0.18039186  1  0  -0.64818  0  2.039178  0  0  -0.605494  0  2.300966  0  0  -0.640953  0  2.293138  0  0  -0.341195  -0.580704  0  2.305486  0
O  O93  1  0.36261219  0.43953638  0.61991067  1  0  -0.6451  0  2.037633  0  0  -0.602513  0  2.298237  0  0  -0.637991  0  2.29054  0  0  -0.33924  -0.577769  0  2.302769  0
O  O94  1  0.92316882  0.18036941  0.56043312  1  0  -0.647182  0  2.037876  0  0  -0.604395  0  2.300455  0  0  -0.639773  0  2.292449  0  0  -0.341058  -0.579613  0  2.304955  0
O  O95  1  0.74278262  0.38006156  0.81960946  1  0  -0.648153  0  2.03922  0  0  -0.605477  0  2.300991  0  0  -0.640938  0  2.293165  0  0  -0.341168  -0.580686  0  2.305509  0
O  O96  1  0.98375651  0.78714437  0.71063738  1  0  -0.542455  0  1.78067  0  0  -0.535469  0  2.023009  0  0  -0.563199  0  2.017733  0  0  -0.223093  -0.51598  0  2.026543  0
O  O97  1  0.19664269  0.92359829  0.21296285  1  0  -0.533407  0  1.788461  0  0  -0.534329  0  2.022  0  0  -0.562086  0  2.016748  0  0  -0.222691  -0.514831  0  2.025527  0
O  O98  1  0.27304453  0.28938799  0.07646797  1  0  -0.541133  0  1.779623  0  0  -0.53401  0  2.021958  0  0  -0.561769  0  2.016707  0  0  -0.222624  -0.514507  0  2.0255  0
O  O99  1  0.01624262  0.21285540  0.28936285  1  0  -0.542428  0  1.780664  0  0  -0.535433  0  2.022994  0  0  -0.563163  0  2.017717  0  0  -0.223071  -0.515942  0  2.026529  0
O  O100  1  0.80335600  0.07640061  0.78703623  1  0  -0.533388  0  1.788472  0  0  -0.534306  0  2.022  0  0  -0.562065  0  2.016749  0  0  -0.222674  -0.51481  0  2.025526  0
O  O101  1  0.72695661  0.71061177  0.92353191  1  0  -0.541066  0  1.779592  0  0  -0.53394  0  2.021924  0  0  -0.561698  0  2.016671  0  0  -0.222582  -0.514436  0  2.025465  0
O  O102  1  0.08873318  0.69824894  0.60661670  1  0  -0.498598  0  1.789731  0  0  -0.481878  0  2.020424  0  0  -0.506901  0  2.013762  0  0  -0.201369  -0.464068  0  2.024752  0
O  O103  1  0.39043468  0.90830015  0.30173274  1  0  -0.491525  0  1.80035  0  0  -0.482686  0  2.022055  0  0  -0.507606  0  2.015315  0  0  -0.201907  -0.464976  0  2.026461  0
O  O104  1  0.48216946  0.39338040  0.09173078  1  0  -0.498917  0  1.789878  0  0  -0.481831  0  2.020288  0  0  -0.506863  0  2.01373  0  0  -0.201771  -0.464008  0  2.024547  0
O  O105  1  0.91126595  0.30175083  0.39338353  1  0  -0.498558  0  1.789685  0  0  -0.481837  0  2.02038  0  0  -0.506858  0  2.013717  0  0  -0.201368  -0.464026  0  2.02471  0
O  O106  1  0.60956488  0.09170047  0.69826720  1  0  -0.49156  0  1.800373  0  0  -0.482726  0  2.022075  0  0  -0.50765  0  2.015337  0  0  -0.20193  -0.465016  0  2.02648  0
O  O107  1  0.51783168  0.60661936  0.90826910  1  0  -0.498831  0  1.789963  0  0  -0.481746  0  2.020376  0  0  -0.506788  0  2.013826  0  0  -0.201705  -0.463924  0  2.024635  0
O  O108  1  0.39446513  0.51288711  0.30552386  1  0  -0.671017  0  2.033288  0  0  -0.625428  0  2.297007  0  0  -0.663214  0  2.287744  0  0  -0.356528  -0.598562  0  2.302434  0
O  O109  1  0.88144909  0.79263819  0.48709800  1  0  -0.672721  0  2.032008  0  0  -0.626968  0  2.297221  0  0  -0.664599  0  2.287682  0  0  -0.356157  -0.600135  0  2.302701  0
O  O110  1  0.08881708  0.69445057  0.20738445  1  0  -0.672069  0  2.030616  0  0  -0.626788  0  2.295058  0  0  -0.664485  0  2.285643  0  0  -0.356762  -0.599906  0  2.300494  0
O  O111  1  0.60553400  0.48711266  0.69447637  1  0  -0.670981  0  2.033355  0  0  -0.625361  0  2.297043  0  0  -0.66314  0  2.287776  0  0  -0.3565  -0.598494  0  2.30247  0
O  O112  1  0.11854960  0.20736071  0.51289963  1  0  -0.672743  0  2.032039  0  0  -0.626984  0  2.297225  0  0  -0.664619  0  2.28769  0  0  -0.356177  -0.600139  0  2.30267  0
O  O113  1  0.91118450  0.30555006  0.79261585  1  0  -0.672065  0  2.030657  0  0  -0.626792  0  2.295091  0  0  -0.664492  0  2.285676  0  0  -0.356785  -0.599911  0  2.300527  0
O  O114  1  0.18859070  0.46802031  0.42878319  1  0  -0.706379  0  2.039829  0  0  -0.662589  0  2.309321  0  0  -0.704729  0  2.298222  0  0  -0.385034  -0.632574  0  2.315885  0
O  O115  1  0.72063492  0.96078233  0.53200790  1  0  -0.7065  0  2.040793  0  0  -0.662983  0  2.310232  0  0  -0.705147  0  2.299176  0  0  -0.385736  -0.632924  0  2.316797  0
O  O116  1  0.75991571  0.57120435  0.03920230  1  0  -0.705656  0  2.042229  0  0  -0.66172  0  2.312124  0  0  -0.703925  0  2.301078  0  0  -0.38415  -0.631699  0  2.318759  0
O  O117  1  0.81140843  0.53197946  0.57121631  1  0  -0.706343  0  2.039826  0  0  -0.66255  0  2.309315  0  0  -0.704693  0  2.298223  0  0  -0.385032  -0.632535  0  2.315877  0
O  O118  1  0.27936421  0.03921743  0.46799161  1  0  -0.706534  0  2.040757  0  0  -0.663029  0  2.310168  0  0  -0.7052  0  2.299096  0  0  -0.38575  -0.632968  0  2.316735  0
O  O119  1  0.24008644  0.42879542  0.96080065  1  0  -0.70547  0  2.042305  0  0  -0.661554  0  2.31213  0  0  -0.703767  0  2.301084  0  0  -0.384039  -0.631538  0  2.318771  0
O  O120  1  0.18267885  0.61876062  0.40765223  1  0  -0.593409  0  2.010125  0  0  -0.528745  0  2.219699  0  0  -0.555942  0  2.208112  0  0  -0.265358  -0.509735  0  2.228106  0
O  O121  1  0.56392146  0.78891420  0.38130022  1  0  -0.592435  0  2.010863  0  0  -0.52726  0  2.220071  0  0  -0.554463  0  2.208464  0  0  -0.264382  -0.508101  0  2.22833  0
O  O122  1  0.77502747  0.59238936  0.21108347  1  0  -0.594893  0  2.011772  0  0  -0.529854  0  2.221243  0  0  -0.557077  0  2.209658  0  0  -0.26598  -0.510794  0  2.22955  0
O  O123  1  0.81732071  0.38124000  0.59234770  1  0  -0.593379  0  2.010119  0  0  -0.528717  0  2.219708  0  0  -0.555915  0  2.208121  0  0  -0.265333  -0.509708  0  2.228115  0
O  O124  1  0.43607810  0.21108643  0.61869899  1  0  -0.592431  0  2.010899  0  0  -0.527275  0  2.220091  0  0  -0.554485  0  2.208468  0  0  -0.264403  -0.508113  0  2.228354  0
O  O125  1  0.22497310  0.40761127  0.78891810  1  0  -0.594793  0  2.011964  0  0  -0.529805  0  2.221398  0  0  -0.557025  0  2.209812  0  0  -0.265961  -0.510747  0  2.229704  0
O  O126  1  0.89727824  0.56095699  0.38126183  1  0  -0.871971  0  1.861672  0  0  -0.826893  0  2.063586  0  0  -0.858093  0  2.027657  0  0  -0.625155  -0.804618  0  2.088819  0
O  O127  1  0.33627999  0.82028591  0.43901942  1  0  -0.873386  0  1.860841  0  0  -0.827536  0  2.063938  0  0  -0.858907  0  2.027981  0  0  -0.624536  -0.805168  0  2.08924  0
O  O128  1  0.51596174  0.61874494  0.17971769  1  0  -0.873365  0  1.859504  0  0  -0.827371  0  2.063661  0  0  -0.858623  0  2.027578  0  0  -0.625601  -0.80506  0  2.089068  0
O  O129  1  0.10272046  0.43904192  0.61873725  1  0  -0.871916  0  1.861714  0  0  -0.826812  0  2.063673  0  0  -0.858009  0  2.027749  0  0  -0.625139  -0.804538  0  2.088902  0
O  O130  1  0.66372015  0.17971385  0.56098100  1  0  -0.8734  0  1.860837  0  0  -0.827547  0  2.063941  0  0  -0.858919  0  2.027982  0  0  -0.624544  -0.805181  0  2.089241  0
O  O131  1  0.48403897  0.38125396  0.82028176  1  0  -0.873386  0  1.859488  0  0  -0.82738  0  2.063616  0  0  -0.858627  0  2.027535  0  0  -0.625611  -0.805074  0  2.089031  0
O  O132  1  0.21874671  0.82431880  0.79106067  1  0  -0.357121  0  1.745674  0  0  -0.34603  0  1.938681  0  0  -0.35831  0  1.932885  0  0  -0.113934  -0.337002  0  1.942612  0
O  O133  1  0.39441179  0.96674229  0.17570270  1  0  -0.347721  0  1.754453  0  0  -0.344521  0  1.93718  0  0  -0.35679  0  1.931431  0  0  -0.113868  -0.335446  0  1.941047  0
O  O134  1  0.42755070  0.20889404  0.03324007  1  0  -0.357903  0  1.74499  0  0  -0.346678  0  1.938055  0  0  -0.358926  0  1.932266  0  0  -0.116181  -0.337615  0  1.941928  0
O  O135  1  0.78125285  0.17568182  0.20893927  1  0  -0.357109  0  1.745703  0  0  -0.346033  0  1.938723  0  0  -0.358312  0  1.932926  0  0  -0.113954  -0.337003  0  1.942656  0
O  O136  1  0.60558878  0.03325834  0.82429742  1  0  -0.347732  0  1.75443  0  0  -0.344546  0  1.937162  0  0  -0.356812  0  1.931413  0  0  -0.113882  -0.335472  0  1.941028  0
O  O137  1  0.57244900  0.79110486  0.96675847  1  0  -0.357898  0  1.745093  0  0  -0.346696  0  1.938177  0  0  -0.358942  0  1.932386  0  0  -0.116193  -0.337633  0  1.942048  0
