# generated using pymatgen
data_ZnH8(C5O3)2
_symmetry_space_group_name_H-M   'P 1'
_cell_length_a   7.66607765
_cell_length_b   8.26425195
_cell_length_c   9.41574262
_cell_angle_alpha   64.00187708
_cell_angle_beta   81.71833555
_cell_angle_gamma   89.96543080
_symmetry_Int_Tables_number   1
_chemical_formula_structural   ZnH8(C5O3)2
_chemical_formula_sum   'Zn2 H16 C20 O12'
_cell_volume   529.26081879
_cell_formula_units_Z   2
loop_
 _symmetry_equiv_pos_site_id
 _symmetry_equiv_pos_as_xyz
  1  'x, y, z'
loop_
 _atom_site_type_symbol
 _atom_site_label
 _atom_site_symmetry_multiplicity
 _atom_site_fract_x
 _atom_site_fract_y
 _atom_site_fract_z
 _atom_site_occupancy
 _atom_site_pbe_bader_charge
 _atom_site_pbe_bader_spin_density
 _atom_site_pbe_cm5_charge
 _atom_site_pbe_ddec_charge
 _atom_site_pbe_ddec_spin_density
 _atom_site_pbe_ddec_sum_bond_order
 _atom_site_pbe_magmom
Zn  Zn0  1  0.24999010  0.94238990  0.99997067  1  1.370032  0  0.712475  0.976305  0  2.265299  0
Zn  Zn1  1  0.75001567  0.05761937  0.00003591  1  1.369864  0  0.712498  0.976304  0  2.265302  0
H  H2  1  0.77761223  0.12907593  0.52536114  1  0.085312  0  0.107692  0.124081  0  1.041899  0
H  H3  1  0.72254383  0.65494578  0.47494844  1  0.095339  0  0.107803  0.12376  0  1.041783  0
H  H4  1  0.22238781  0.87092659  0.47464552  1  0.085226  0  0.107703  0.124121  0  1.041887  0
H  H5  1  0.27745479  0.34505537  0.52504511  1  0.095382  0  0.107798  0.12374  0  1.041759  0
H  H6  1  0.88367635  0.35707123  0.29049817  1  0.05955  0  0.092124  0.09105  0  1.037331  0
H  H7  1  0.61613565  0.64749352  0.70985049  1  0.063306  0  0.091909  0.09026  0  1.03839  0
H  H8  1  0.11632794  0.64291644  0.70950840  1  0.059917  0  0.092126  0.091024  0  1.037369  0
H  H9  1  0.38387484  0.35250763  0.29014379  1  0.063322  0  0.091901  0.090266  0  1.038395  0
H  H10  1  0.98145798  0.32785527  0.11816446  1  0.09159  0  0.110252  0.132845  0  0.985822  0
H  H11  1  0.51822006  0.44599261  0.88183047  1  0.101523  0  0.110062  0.132223  0  0.985973  0
H  H12  1  0.01854368  0.67213239  0.88184242  1  0.091496  0  0.110283  0.132871  0  0.98577  0
H  H13  1  0.48177912  0.55401665  0.11816202  1  0.101423  0  0.11009  0.132229  0  0.986016  0
H  H14  1  0.98550120  0.15170008  0.31479613  1  0.054203  0  0.098074  0.10559  0  0.989019  0
H  H15  1  0.51453216  0.46685731  0.68494399  1  0.031275  0  0.098087  0.105183  0  0.987795  0
H  H16  1  0.01450168  0.84828623  0.68520794  1  0.054306  0  0.09801  0.105572  0  0.98909  0
H  H17  1  0.48546071  0.53315599  0.31504873  1  0.031363  0  0.098106  0.105211  0  0.987796  0
C  C18  1  0.46562519  0.02207784  0.34914027  1  0.018302  0  -0.022034  -0.116356  0  3.963971  0
C  C19  1  0.03424514  0.37096449  0.65072689  1  0.017677  0  -0.021519  -0.116518  0  3.964168  0
C  C20  1  0.53437325  0.97792063  0.65086813  1  0.018669  0  -0.021986  -0.116268  0  3.963817  0
C  C21  1  0.96575217  0.62903667  0.34926893  1  0.017593  0  -0.021553  -0.11662  0  3.964227  0
C  C22  1  0.62689784  0.09630097  0.36075735  1  0.496552  0  0.086558  0.228572  0  4.034178  0
C  C23  1  0.87302496  0.45703633  0.63927726  1  0.455265  0  0.086537  0.228103  0  4.035117  0
C  C24  1  0.37310296  0.90369344  0.63924916  1  0.496136  0  0.086579  0.228703  0  4.034028  0
C  C25  1  0.12697075  0.54296077  0.36071819  1  0.455312  0  0.086523  0.228149  0  4.034935  0
C  C26  1  0.65680354  0.07279189  0.51127618  1  -0.005668  0  -0.103161  -0.22432  0  3.986219  0
C  C27  1  0.84328232  0.58436811  0.48886380  1  0.025334  0  -0.103815  -0.224212  0  3.986335  0
C  C28  1  0.34319631  0.92720793  0.48873155  1  -0.005501  0  -0.103132  -0.224426  0  3.986314  0
C  C29  1  0.15671481  0.41563035  0.51113308  1  0.025335  0  -0.103799  -0.224212  0  3.986189  0
C  C30  1  0.41622727  0.04062531  0.19531458  1  1.542887  0  0.220115  0.607919  0  4.133673  0
C  C31  1  0.08367600  0.23556680  0.80447379  1  1.54832  0  0.220617  0.609501  0  4.1313  0
C  C32  1  0.58377550  0.95937856  0.80469230  1  1.542732  0  0.22007  0.607758  0  4.133848  0
C  C33  1  0.91631640  0.76443976  0.19552477  1  1.54886  0  0.220678  0.609512  0  4.131029  0
C  C34  1  0.90869075  0.26039635  0.24005111  1  0.369765  0  -0.140269  -0.165922  0  3.853406  0
C  C35  1  0.59115459  0.50048613  0.75999761  1  0.376553  0  -0.140135  -0.164152  0  3.852428  0
C  C36  1  0.09131231  0.73959267  0.75995509  1  0.369298  0  -0.140249  -0.165948  0  3.853346  0
C  C37  1  0.40884300  0.49951907  0.23999450  1  0.376606  0  -0.140179  -0.164204  0  3.85259  0
O  O38  1  0.26738876  0.96558202  0.20194268  1  -1.151958  0  -0.306885  -0.537924  0  2.309715  0
O  O39  1  0.23255052  0.16705247  0.79776471  1  -1.158424  0  -0.306883  -0.538217  0  2.308583  0
O  O40  1  0.73260919  0.03442859  0.79806110  1  -1.15165  0  -0.306918  -0.537881  0  2.309925  0
O  O41  1  0.76744001  0.83294599  0.20223720  1  -1.158604  0  -0.306916  -0.538162  0  2.308585  0
O  O42  1  0.51718231  0.13099286  0.06186026  1  -1.174941  0  -0.321743  -0.580208  0  2.425593  0
O  O43  1  0.98275664  0.19268222  0.93795095  1  -1.175058  0  -0.322195  -0.581103  0  2.425848  0
O  O44  1  0.48281895  0.86900831  0.93814890  1  -1.175117  0  -0.321695  -0.580126  0  2.425509  0
O  O45  1  0.01724384  0.80734594  0.06204365  1  -1.175573  0  -0.32221  -0.581118  0  2.425543  0
O  O46  1  0.74547685  0.18862235  0.22503251  1  -1.068899  0  -0.177039  -0.153429  0  2.625203  0
O  O47  1  0.75435394  0.41354043  0.77499422  1  -1.06757  0  -0.176677  -0.153052  0  2.626784  0
O  O48  1  0.25452894  0.81136802  0.77497391  1  -1.068927  0  -0.177002  -0.153418  0  2.625058  0
O  O49  1  0.24563896  0.58645396  0.22499835  1  -1.067735  0  -0.176675  -0.153057  0  2.626723  0
