# generated using pymatgen
data_ZnH18C18N4O5
_symmetry_space_group_name_H-M   'P 1'
_cell_length_a   5.36116814
_cell_length_b   18.03543023
_cell_length_c   21.68905504
_cell_angle_alpha   89.99983701
_cell_angle_beta   89.99938398
_cell_angle_gamma   90.00011823
_symmetry_Int_Tables_number   1
_chemical_formula_structural   ZnH18C18N4O5
_chemical_formula_sum   'Zn4 H72 C72 N16 O20'
_cell_volume   2097.13585496
_cell_formula_units_Z   4
loop_
 _symmetry_equiv_pos_site_id
 _symmetry_equiv_pos_as_xyz
  1  'x, y, z'
loop_
 _atom_site_type_symbol
 _atom_site_label
 _atom_site_symmetry_multiplicity
 _atom_site_fract_x
 _atom_site_fract_y
 _atom_site_fract_z
 _atom_site_occupancy
 _atom_site_pbe_bader_charge
 _atom_site_pbe_bader_spin_density
 _atom_site_pbe_cm5_charge
 _atom_site_pbe_ddec_charge
 _atom_site_pbe_ddec_spin_density
 _atom_site_pbe_ddec_sum_bond_order
 _atom_site_pbe_magmom
Zn  Zn0  1  0.18586464  0.83136150  0.29461836  1  1.24264  0  0.69283  0.746154  0  2.372565  0
Zn  Zn1  1  0.18587990  0.16863915  0.70537747  1  1.243049  0  0.692799  0.746002  0  2.372451  0
Zn  Zn2  1  0.81412058  0.66863566  0.79462204  1  1.242906  0  0.692815  0.746088  0  2.372474  0
Zn  Zn3  1  0.81412997  0.33136222  0.20537962  1  1.242687  0  0.692798  0.746074  0  2.372578  0
H  H4  1  0.75643315  0.91355376  0.35166246  1  0.172546  0  0.12124  0.101185  0  1.043599  0
H  H5  1  0.75647127  0.08644240  0.64833611  1  0.17268  0  0.121328  0.101278  0  1.04345  0
H  H6  1  0.24355314  0.58644930  0.85166959  1  0.172673  0  0.121335  0.101315  0  1.043594  0
H  H7  1  0.24355059  0.41355694  0.14833578  1  0.172369  0  0.121279  0.101315  0  1.043555  0
H  H8  1  0.47218140  0.89757493  0.44170640  1  0.101097  0  0.114503  0.129757  0  0.983594  0
H  H9  1  0.47219767  0.10241433  0.55829702  1  0.100848  0  0.114491  0.129763  0  0.983552  0
H  H10  1  0.52779695  0.60243392  0.94171233  1  0.101363  0  0.114403  0.129628  0  0.983596  0
H  H11  1  0.52782093  0.39757978  0.05829603  1  0.100991  0  0.114504  0.129697  0  0.983574  0
H  H12  1  0.17828897  0.73085415  0.40177115  1  0.091138  0  0.119483  0.088208  0  1.01174  0
H  H13  1  0.17827231  0.26915038  0.59822608  1  0.091562  0  0.119449  0.088161  0  1.011712  0
H  H14  1  0.82169871  0.76914875  0.90176905  1  0.091331  0  0.119475  0.08819  0  1.011693  0
H  H15  1  0.82173510  0.23085247  0.09822937  1  0.091604  0  0.119493  0.088156  0  1.011691  0
H  H16  1  0.91638152  0.70662368  0.49346214  1  0.062579  0  0.106392  0.111623  0  1.008501  0
H  H17  1  0.91635432  0.29337651  0.50653789  1  0.062626  0  0.106451  0.111631  0  1.008483  0
H  H18  1  0.08358695  0.79338556  0.99345949  1  0.062503  0  0.106463  0.111777  0  1.008577  0
H  H19  1  0.08365552  0.20662332  0.00654212  1  0.062278  0  0.106508  0.111748  0  1.008467  0
H  H20  1  0.36417836  0.83294860  0.53595507  1  0.13003  0  0.10754  0.116673  0  1.029934  0
H  H21  1  0.36417317  0.16704334  0.46405092  1  0.12984  0  0.107579  0.116792  0  1.029918  0
H  H22  1  0.63578725  0.66705778  0.03596220  1  0.130541  0  0.107536  0.116752  0  1.030008  0
H  H23  1  0.63585632  0.33295104  0.96405097  1  0.129681  0  0.10752  0.116731  0  1.029868  0
H  H24  1  0.61590082  0.68001249  0.55167485  1  0.04294  0  0.100471  0.095192  0  1.009263  0
H  H25  1  0.61589136  0.31997745  0.44832407  1  0.043159  0  0.100408  0.095009  0  1.009149  0
H  H26  1  0.38407897  0.81999993  0.05167163  1  0.044027  0  0.100558  0.095328  0  1.009012  0
H  H27  1  0.38410529  0.18001864  0.94832602  1  0.043059  0  0.100426  0.095103  0  1.009288  0
H  H28  1  0.05895048  0.80448216  0.59714302  1  0.122407  0  0.108595  0.120222  0  1.029186  0
H  H29  1  0.05893894  0.19550340  0.40285404  1  0.122188  0  0.10862  0.120241  0  1.029217  0
H  H30  1  0.94098988  0.69552233  0.09714011  1  0.122346  0  0.108609  0.120329  0  1.029196  0
H  H31  1  0.94107290  0.30448509  0.90285801  1  0.122615  0  0.108633  0.120338  0  1.029185  0
H  H32  1  0.80547028  0.77679960  0.68950577  1  0.143359  0  0.119536  0.095119  0  1.013819  0
H  H33  1  0.80547994  0.22319328  0.31048991  1  0.143332  0  0.119531  0.095073  0  1.013788  0
H  H34  1  0.19449747  0.72319681  0.18950048  1  0.143447  0  0.119482  0.095063  0  1.013762  0
H  H35  1  0.19453807  0.27680273  0.81049210  1  0.143262  0  0.119537  0.095157  0  1.013723  0
H  H36  1  0.52420767  0.61646958  0.64542786  1  0.085052  0  0.10829  0.115712  0  0.997081  0
H  H37  1  0.52421775  0.38351917  0.35457821  1  0.08502  0  0.108335  0.115734  0  0.997165  0
H  H38  1  0.47578825  0.88354196  0.14543256  1  0.08445  0  0.108427  0.115912  0  0.997059  0
H  H39  1  0.47579074  0.11647780  0.85457316  1  0.085039  0  0.10833  0.11571  0  0.997149  0
H  H40  1  0.24936615  0.59671430  0.73628925  1  0.205105  0  0.119932  0.102679  0  1.048894  0
H  H41  1  0.24937683  0.40328252  0.26371702  1  0.205335  0  0.119978  0.102685  0  1.048925  0
H  H42  1  0.75064231  0.90329083  0.23628954  1  0.205118  0  0.119941  0.102686  0  1.048828  0
H  H43  1  0.75063032  0.09671809  0.76371181  1  0.205227  0  0.119948  0.102681  0  1.048935  0
H  H44  1  0.19025987  0.10314379  0.28649023  1  0.0626  0  0.112783  0.081203  0  0.96944  0
H  H45  1  0.19025887  0.89685465  0.71350283  1  0.062554  0  0.112766  0.081206  0  0.969334  0
H  H46  1  0.80974620  0.39685120  0.78649292  1  0.062451  0  0.112714  0.081195  0  0.969341  0
H  H47  1  0.80974506  0.60314280  0.21351013  1  0.062583  0  0.112762  0.081176  0  0.969493  0
H  H48  1  0.56529207  0.03794689  0.19584182  1  0.027619  0  0.09472  0.093575  0  0.991253  0
H  H49  1  0.56530014  0.96204356  0.80415262  1  0.027714  0  0.094752  0.093665  0  0.991125  0
H  H50  1  0.43471637  0.46204841  0.69584298  1  0.027745  0  0.094728  0.093613  0  0.991287  0
H  H51  1  0.43472194  0.53794969  0.30416331  1  0.027714  0  0.094711  0.093574  0  0.991408  0
H  H52  1  0.23965627  0.03109636  0.18180704  1  0.036385  0  0.092383  0.088244  0  0.981411  0
H  H53  1  0.23966557  0.96890156  0.81818866  1  0.036497  0  0.092323  0.08808  0  0.981364  0
H  H54  1  0.76035284  0.46890398  0.68180968  1  0.036406  0  0.092367  0.088232  0  0.981425  0
H  H55  1  0.76036518  0.53110162  0.31819626  1  0.036329  0  0.092412  0.088311  0  0.981395  0
H  H56  1  0.19555030  0.16872876  0.18925124  1  0.114552  0  0.096715  0.129553  0  1.035934  0
H  H57  1  0.19551652  0.83126913  0.81074042  1  0.114271  0  0.096763  0.129539  0  1.035839  0
H  H58  1  0.80449017  0.33127100  0.68924949  1  0.114306  0  0.096761  0.129573  0  1.035786  0
H  H59  1  0.80446795  0.66873352  0.31074712  1  0.114415  0  0.096678  0.129478  0  1.035892  0
H  H60  1  0.38056734  0.13856665  0.12728938  1  -0.004443  0  0.092102  0.101889  0  0.97981  0
H  H61  1  0.38054197  0.86142641  0.87270182  1  -0.004148  0  0.092047  0.101785  0  0.979868  0
H  H62  1  0.61945924  0.36143499  0.62728894  1  -0.004464  0  0.092056  0.101864  0  0.979865  0
H  H63  1  0.61944147  0.63857381  0.37271044  1  -0.004406  0  0.092066  0.101859  0  0.97984  0
H  H64  1  0.71890750  0.05514849  0.29227596  1  0.507111  0  0.302186  0.280762  0  0.992319  0
H  H65  1  0.71891814  0.94485430  0.70772086  1  0.507388  0  0.302145  0.280639  0  0.992389  0
H  H66  1  0.28109085  0.44484925  0.79227754  1  0.507151  0  0.302147  0.280682  0  0.992385  0
H  H67  1  0.28109539  0.55515093  0.20772774  1  0.507072  0  0.302173  0.280776  0  0.992275  0
H  H68  1  0.75022533  0.05808966  0.45092875  1  0.445053  0  0.307563  0.31322  0  0.944245  0
H  H69  1  0.75023405  0.94190705  0.54906431  1  0.444823  0  0.307559  0.313272  0  0.944046  0
H  H70  1  0.24976561  0.44190587  0.95093087  1  0.444959  0  0.307526  0.313223  0  0.944211  0
H  H71  1  0.24975146  0.55810204  0.04907632  1  0.44526  0  0.3076  0.313256  0  0.944092  0
H  H72  1  0.92798665  0.06036260  0.38466008  1  0.482096  0  0.301422  0.32497  0  0.966818  0
H  H73  1  0.92800159  0.93963427  0.61533484  1  0.482055  0  0.301451  0.325035  0  0.966766  0
H  H74  1  0.07200738  0.43963149  0.88466219  1  0.482084  0  0.301501  0.325108  0  0.966731  0
H  H75  1  0.07201067  0.56037349  0.11534545  1  0.482309  0  0.301467  0.325064  0  0.966828  0
C  C76  1  0.78378828  0.86871032  0.38452883  1  0.486944  0  0.05658  0.118852  0  3.903012  0
C  C77  1  0.78381132  0.13128476  0.61546922  1  0.486518  0  0.056507  0.118921  0  3.902896  0
C  C78  1  0.21619461  0.63129208  0.88453407  1  0.48636  0  0.056482  0.118834  0  3.90292  0
C  C79  1  0.21621208  0.36871192  0.11547044  1  0.486941  0  0.056512  0.11864  0  3.903071  0
C  C80  1  0.62689777  0.85911627  0.43485534  1  -0.026095  0  -0.078487  -0.177145  0  3.904808  0
C  C81  1  0.62691387  0.14087646  0.56514678  1  -0.021981  0  -0.078519  -0.177329  0  3.904944  0
C  C82  1  0.37308277  0.64089372  0.93486294  1  -0.025949  0  -0.078254  -0.176834  0  3.904634  0
C  C83  1  0.37310628  0.35911929  0.06514488  1  -0.022223  0  -0.078458  -0.176969  0  3.904913  0
C  C84  1  0.01942975  0.76621002  0.41245042  1  0.49758  0  0.050935  0.099777  0  3.958734  0
C  C85  1  0.01942092  0.23379159  0.58754674  1  0.497324  0  0.050958  0.09979  0  3.958915  0
C  C86  1  0.98054996  0.73379450  0.91244893  1  0.497064  0  0.050993  0.099862  0  3.958784  0
C  C87  1  0.98059073  0.26621018  0.08754863  1  0.4962  0  0.050918  0.099871  0  3.958709  0
C  C88  1  0.86992603  0.75271964  0.46316945  1  -0.023313  0  -0.083874  -0.179544  0  3.940759  0
C  C89  1  0.86992147  0.24727718  0.53682885  1  -0.023842  0  -0.08391  -0.179573  0  3.94099  0
C  C90  1  0.13004573  0.74728914  0.96316955  1  -0.023271  0  -0.083738  -0.179522  0  3.94105  0
C  C91  1  0.13010186  0.25272033  0.03683241  1  -0.022204  0  -0.083942  -0.17969  0  3.941143  0
C  C92  1  0.66371518  0.79899068  0.47505997  1  -0.021794  0  0.010582  0.146628  0  4.024729  0
C  C93  1  0.66372220  0.20100319  0.52494067  1  -0.025039  0  0.010638  0.146914  0  4.024774  0
C  C94  1  0.33625788  0.70101529  0.97506337  1  -0.021878  0  0.010279  0.14633  0  4.025015  0
C  C95  1  0.33630170  0.29899381  0.02494269  1  -0.025193  0  0.010528  0.146619  0  4.025171  0
C  C96  1  0.49088223  0.78696197  0.52585356  1  -0.052275  0  -0.077051  -0.116353  0  3.955432  0
C  C97  1  0.49087488  0.21303008  0.47414982  1  -0.052259  0  -0.077188  -0.116846  0  3.955811  0
C  C98  1  0.50909503  0.71304721  0.02585766  1  -0.05192  0  -0.077006  -0.11645  0  3.955509  0
C  C99  1  0.50914108  0.28696315  0.97415213  1  -0.052151  0  -0.077013  -0.116559  0  3.955489  0
C  C100  1  0.48391640  0.72495728  0.56077033  1  -0.001225  0  -0.083072  -0.125484  0  3.968621  0
C  C101  1  0.48390905  0.27503033  0.43922891  1  -0.001242  0  -0.082917  -0.124961  0  3.96842  0
C  C102  1  0.51605177  0.77505233  0.06077242  1  -0.003029  0  -0.083201  -0.12554  0  3.968376  0
C  C103  1  0.51610108  0.22496026  0.93923089  1  -0.000901  0  -0.083058  -0.125301  0  3.968371  0
C  C104  1  0.31721082  0.71242955  0.61265018  1  -0.094737  0  0.006824  0.148304  0  4.024891  0
C  C105  1  0.31720222  0.28755735  0.38735132  1  -0.093825  0  0.006684  0.1482  0  4.025132  0
C  C106  1  0.68275679  0.78757988  0.11265045  1  -0.095435  0  0.007087  0.148485  0  4.02496  0
C  C107  1  0.68281220  0.21243674  0.88735200  1  -0.094583  0  0.00692  0.148558  0  4.024792  0
C  C108  1  0.10895748  0.75737153  0.62598752  1  -0.053439  0  -0.079821  -0.168014  0  3.900995  0
C  C109  1  0.10895492  0.24261519  0.37401219  1  -0.053701  0  -0.079812  -0.168162  0  3.901009  0
C  C110  1  0.89101511  0.74263508  0.12598369  1  -0.053241  0  -0.080112  -0.168423  0  3.900924  0
C  C111  1  0.89106013  0.25737728  0.87401270  1  -0.053859  0  -0.079906  -0.16838  0  3.901088  0
C  C112  1  0.96485926  0.74217951  0.67750556  1  0.505149  0  0.049243  0.098406  0  3.929115  0
C  C113  1  0.96486663  0.25781352  0.32249204  1  0.504626  0  0.04917  0.098456  0  3.928948  0
C  C114  1  0.03511651  0.75782028  0.17750288  1  0.505333  0  0.049382  0.098681  0  3.9287  0
C  C115  1  0.03515269  0.24218079  0.82249286  1  0.504702  0  0.049201  0.098366  0  3.92885  0
C  C116  1  0.36497548  0.65303031  0.65289399  1  0.017275  0  -0.084977  -0.184042  0  3.940863  0
C  C117  1  0.36497644  0.34695719  0.34710924  1  0.016597  0  -0.084982  -0.184128  0  3.941189  0
C  C118  1  0.63501637  0.84697898  0.15289285  1  0.01809  0  -0.085196  -0.184465  0  3.941015  0
C  C119  1  0.63503240  0.15303759  0.84710741  1  0.016786  0  -0.084996  -0.184087  0  3.941025  0
C  C120  1  0.21396986  0.64159323  0.70390655  1  0.397426  0  0.048945  0.102326  0  3.929463  0
C  C121  1  0.21398631  0.35840024  0.29609613  1  0.397381  0  0.048969  0.10251  0  3.929466  0
C  C122  1  0.78602147  0.85840980  0.20390548  1  0.397118  0  0.048992  0.102561  0  3.929138  0
C  C123  1  0.78601932  0.14159749  0.79609349  1  0.39739  0  0.048913  0.102372  0  3.929504  0
C  C124  1  0.20801327  0.98538779  0.28718583  1  1.553212  0  0.204374  0.551631  0  4.194847  0
C  C125  1  0.20800707  0.01461510  0.71281225  1  1.553855  0  0.204502  0.551843  0  4.194576  0
C  C126  1  0.79199095  0.51460884  0.78718670  1  1.553375  0  0.204373  0.55182  0  4.194874  0
C  C127  1  0.79198566  0.48538680  0.21282008  1  1.552685  0  0.204376  0.551669  0  4.194862  0
C  C128  1  0.32992925  0.06074455  0.27494649  1  0.361643  0  0.010198  0.034847  0  3.863632  0
C  C129  1  0.32991668  0.93925678  0.72505082  1  0.361012  0  0.010195  0.034888  0  3.863418  0
C  C130  1  0.67007737  0.43925159  0.77494805  1  0.361672  0  0.010267  0.034825  0  3.863698  0
C  C131  1  0.67007366  0.56074561  0.22505443  1  0.361553  0  0.010245  0.034862  0  3.863683  0
C  C132  1  0.38388555  0.06428661  0.20508676  1  0.006761  0  -0.155544  -0.150138  0  3.903377  0
C  C133  1  0.38388462  0.93570922  0.79490812  1  0.006408  0  -0.155558  -0.150187  0  3.903315  0
C  C134  1  0.61612620  0.43571143  0.70509031  1  0.00639  0  -0.155533  -0.150185  0  3.903538  0
C  C135  1  0.61612297  0.56428905  0.29491507  1  0.00631  0  -0.155643  -0.150372  0  3.90349  0
C  C136  1  0.37401721  0.14224155  0.17812285  1  -0.032674  0  -0.173781  -0.296211  0  3.93597  0
C  C137  1  0.37399794  0.85775151  0.82186928  1  -0.032487  0  -0.173738  -0.295912  0  3.935526  0
C  C138  1  0.62601445  0.35775492  0.67812102  1  -0.031471  0  -0.173731  -0.296066  0  3.935589  0
C  C139  1  0.62599347  0.64224778  0.32187787  1  -0.032202  0  -0.173661  -0.295989  0  3.935579  0
C  C140  1  0.58788445  0.19271448  0.19615098  1  1.53935  0  0.192603  0.610315  0  4.182601  0
C  C141  1  0.58786024  0.80727488  0.80384248  1  1.539617  0  0.192685  0.610391  0  4.18291  0
C  C142  1  0.41215196  0.30727860  0.69614703  1  1.538703  0  0.19253  0.610106  0  4.182801  0
C  C143  1  0.41212082  0.69271837  0.30384456  1  1.539424  0  0.19266  0.610411  0  4.18268  0
C  C144  1  0.53715604  0.06795417  0.37404875  1  1.82309  0  0.313919  0.685661  0  4.209258  0
C  C145  1  0.53715927  0.93204956  0.62594575  1  1.823129  0  0.314025  0.685544  0  4.209384  0
C  C146  1  0.46285154  0.43204495  0.87405452  1  1.823262  0  0.314006  0.685633  0  4.209349  0
C  C147  1  0.46283571  0.56795705  0.12595354  1  1.823532  0  0.313847  0.685569  0  4.209328  0
N  N148  1  0.97656734  0.82279913  0.37310583  1  -1.271794  0  -0.32732  -0.227261  0  3.556871  0
N  N149  1  0.97657883  0.17720001  0.62689128  1  -1.271866  0  -0.327325  -0.227304  0  3.556891  0
N  N150  1  0.02341795  0.67720276  0.87310914  1  -1.271159  0  -0.327412  -0.227476  0  3.55702  0
N  N151  1  0.02343657  0.32279941  0.12689401  1  -1.271613  0  -0.327319  -0.227234  0  3.556759  0
N  N152  1  0.01589156  0.68527325  0.71616039  1  -1.258132  0  -0.329277  -0.231157  0  3.565806  0
N  N153  1  0.01590095  0.31472392  0.28384093  1  -1.257114  0  -0.3292  -0.23114  0  3.565671  0
N  N154  1  0.98409920  0.81472640  0.21615755  1  -1.257681  0  -0.329259  -0.231296  0  3.565713  0
N  N155  1  0.98410712  0.18527274  0.78383862  1  -1.257588  0  -0.329243  -0.231119  0  3.56557  0
N  N156  1  0.55373040  0.07284799  0.31132216  1  -1.220933  0  -0.439936  -0.441744  0  3.473723  0
N  N157  1  0.55373813  0.92715188  0.68867277  1  -1.220978  0  -0.439939  -0.441574  0  3.473575  0
N  N158  1  0.44625960  0.42714692  0.81132567  1  -1.220836  0  -0.439991  -0.441687  0  3.473593  0
N  N159  1  0.44626883  0.57284898  0.18867966  1  -1.220787  0  -0.439884  -0.441658  0  3.473981  0
N  N160  1  0.75985118  0.06970078  0.40538087  1  -1.253814  0  -0.591813  -0.701749  0  3.284798  0
N  N161  1  0.75986332  0.93029761  0.59461447  1  -1.253821  0  -0.591856  -0.701841  0  3.284525  0
N  N162  1  0.24013629  0.43029436  0.90538120  1  -1.253926  0  -0.591948  -0.701996  0  3.284732  0
N  N163  1  0.24013684  0.56971189  0.09462510  1  -1.254603  0  -0.59193  -0.701932  0  3.284703  0
O  O164  1  0.35629977  0.92929825  0.29186365  1  -1.179799  0  -0.32616  -0.531817  0  2.331188  0
O  O165  1  0.35630892  0.07070144  0.70813360  1  -1.179848  0  -0.326176  -0.531896  0  2.331123  0
O  O166  1  0.64369118  0.57069670  0.79186476  1  -1.179731  0  -0.326069  -0.531807  0  2.331187  0
O  O167  1  0.64369522  0.42929825  0.20813732  1  -1.17915  0  -0.326169  -0.531821  0  2.331243  0
O  O168  1  0.97430893  0.98122743  0.28783868  1  -1.186093  0  -0.310744  -0.558649  0  2.260331  0
O  O169  1  0.97429904  0.01877004  0.71216397  1  -1.186142  0  -0.310737  -0.558684  0  2.260357  0
O  O170  1  0.02568780  0.51876865  0.78784373  1  -1.186246  0  -0.310805  -0.558812  0  2.260368  0
O  O171  1  0.02568812  0.48122521  0.21216356  1  -1.186252  0  -0.310727  -0.558694  0  2.260334  0
O  O172  1  0.53160020  0.26312531  0.19675265  1  -1.181555  0  -0.348004  -0.568789  0  2.311884  0
O  O173  1  0.53155895  0.73686678  0.80324279  1  -1.182008  0  -0.348001  -0.568827  0  2.311943  0
O  O174  1  0.46844365  0.23687221  0.69675241  1  -1.182014  0  -0.34795  -0.568675  0  2.31191  0
O  O175  1  0.46841467  0.76312759  0.30324226  1  -1.181701  0  -0.34807  -0.568902  0  2.311912  0
O  O176  1  0.80091050  0.16760454  0.20659242  1  -1.196086  0  -0.326957  -0.568576  0  2.167028  0
O  O177  1  0.80089806  0.83238612  0.79340097  1  -1.195787  0  -0.327044  -0.56869  0  2.167143  0
O  O178  1  0.19910491  0.33239017  0.70658755  1  -1.1957  0  -0.32698  -0.568553  0  2.166986  0
O  O179  1  0.19909469  0.66760661  0.29340687  1  -1.196027  0  -0.326977  -0.568619  0  2.167092  0
O  O180  1  0.33199300  0.06559257  0.40206590  1  -1.204829  0  -0.346078  -0.605966  0  2.073598  0
O  O181  1  0.33199382  0.93440710  0.59793003  1  -1.204944  0  -0.346173  -0.606013  0  2.073732  0
O  O182  1  0.66800021  0.43440590  0.90206701  1  -1.205047  0  -0.34602  -0.605844  0  2.073884  0
O  O183  1  0.66799500  0.56559795  0.09793639  1  -1.204829  0  -0.346032  -0.60591  0  2.07355  0
