# generated using pymatgen
data_AgH10C14N5O3F2
_symmetry_space_group_name_H-M   'P 1'
_cell_length_a   6.77863642
_cell_length_b   6.77863047
_cell_length_c   18.94865836
_cell_angle_alpha   79.04058330
_cell_angle_beta   79.04062690
_cell_angle_gamma   67.33382986
_symmetry_Int_Tables_number   1
_chemical_formula_structural   AgH10C14N5O3F2
_chemical_formula_sum   'Ag2 H20 C28 N10 O6 F4'
_cell_volume   782.19947243
_cell_formula_units_Z   2
loop_
 _symmetry_equiv_pos_site_id
 _symmetry_equiv_pos_as_xyz
  1  'x, y, z'
loop_
 _atom_site_type_symbol
 _atom_site_label
 _atom_site_symmetry_multiplicity
 _atom_site_fract_x
 _atom_site_fract_y
 _atom_site_fract_z
 _atom_site_occupancy
 _atom_site_hle17_bader_spin_density
 _atom_site_hle17_ddec_charge
 _atom_site_hle17_ddec_spin_density
 _atom_site_hle17_ddec_sum_bond_order
 _atom_site_hle17_magmom
 _atom_site_hse06_10hf_bader_spin_density
 _atom_site_hse06_10hf_ddec_charge
 _atom_site_hse06_10hf_ddec_spin_density
 _atom_site_hse06_10hf_ddec_sum_bond_order
 _atom_site_hse06_10hf_magmom
 _atom_site_hse06_bader_spin_density
 _atom_site_hse06_ddec_charge
 _atom_site_hse06_ddec_spin_density
 _atom_site_hse06_ddec_sum_bond_order
 _atom_site_hse06_magmom
 _atom_site_pbe_bader_spin_density
 _atom_site_pbe_cm5_charge
 _atom_site_pbe_ddec_charge
 _atom_site_pbe_ddec_spin_density
 _atom_site_pbe_ddec_sum_bond_order
 _atom_site_pbe_magmom
Ag  Ag0  1  0.06680214  0.93320405  0.24999675  1  0  0.647381  0  1.477496  0  0  0.535498  0  1.930111  0  0  0.555057  0  1.88474  0  0  0.521889  0.522575  0  1.961031  0
Ag  Ag1  1  0.93319795  0.06679891  0.75000302  1  0  0.647382  0  1.477469  0  0  0.535509  0  1.929972  0  0  0.55505  0  1.884698  0  0  0.521889  0.52256  0  1.960993  0
H  H2  1  0.26167483  0.71834544  0.95477240  1  0  0.142448  0  0.927409  0  0  0.14959  0  0.989424  0  0  0.153918  0  0.985616  0  0  0.114884  0.146177  0  0.992514  0
H  H3  1  0.28164251  0.73829744  0.54523144  1  0  0.142542  0  0.927458  0  0  0.149235  0  0.990177  0  0  0.154005  0  0.985641  0  0  0.114889  0.146269  0  0.992555  0
H  H4  1  0.73831968  0.28166871  0.04523387  1  0  0.142531  0  0.92731  0  0  0.14931  0  0.989776  0  0  0.153961  0  0.985566  0  0  0.114905  0.146229  0  0.992476  0
H  H5  1  0.71836257  0.26168307  0.45476472  1  0  0.1425  0  0.927481  0  0  0.149233  0  0.990149  0  0  0.153993  0  0.98563  0  0  0.114892  0.14626  0  0.992545  0
H  H6  1  0.68191764  0.69908411  0.15947103  1  0  0.12199  0  0.948912  0  0  0.132125  0  1.005544  0  0  0.13575  0  1.004444  0  0  0.107414  0.129589  0  1.006376  0
H  H7  1  0.30093257  0.31806455  0.34053928  1  0  0.122089  0  0.948779  0  0  0.132249  0  1.005375  0  0  0.135872  0  1.00427  0  0  0.107423  0.12971  0  1.006218  0
H  H8  1  0.31807748  0.30092847  0.84053266  1  0  0.121974  0  0.948921  0  0  0.13223  0  1.005313  0  0  0.135772  0  1.004411  0  0  0.107419  0.129612  0  1.006341  0
H  H9  1  0.69907339  0.68193032  0.65946010  1  0  0.12205  0  0.948816  0  0  0.132209  0  1.005423  0  0  0.135833  0  1.004309  0  0  0.107426  0.12967  0  1.006254  0
H  H10  1  0.58971427  0.82615269  0.03553782  1  0  0.101133  0  0.957962  0  0  0.10769  0  1.025438  0  0  0.111177  0  1.022209  0  0  0.101717  0.105462  0  1.027209  0
H  H11  1  0.17387931  0.41023973  0.46447542  1  0  0.101157  0  0.958121  0  0  0.10769  0  1.025601  0  0  0.111203  0  1.022348  0  0  0.10175  0.105473  0  1.027381  0
H  H12  1  0.41028330  0.17386146  0.96446561  1  0  0.10115  0  0.957938  0  0  0.108082  0  1.02474  0  0  0.11119  0  1.02219  0  0  0.101735  0.105466  0  1.027203  0
H  H13  1  0.82612776  0.58973907  0.53552546  1  0  0.101055  0  0.95811  0  0  0.107614  0  1.025572  0  0  0.111108  0  1.022344  0  0  0.101708  0.105392  0  1.027351  0
H  H14  1  0.23882115  0.51153898  0.20428620  1  0  0.323034  0  0.920421  0  0  0.297772  0  1.000184  0  0  0.306816  0  0.99075  0  0  0.290952  0.291549  0  1.006348  0
H  H15  1  0.48845376  0.76116291  0.29571918  1  0  0.323072  0  0.920435  0  0  0.297808  0  1.000182  0  0  0.306855  0  0.990756  0  0  0.290933  0.291584  0  1.006352  0
H  H16  1  0.76117056  0.48847043  0.79571844  1  0  0.323033  0  0.920362  0  0  0.298043  0  0.999466  0  0  0.306785  0  0.990771  0  0  0.290936  0.291499  0  1.00637  0
H  H17  1  0.51154962  0.23883527  0.70427646  1  0  0.322953  0  0.920603  0  0  0.297704  0  1.000347  0  0  0.30675  0  0.990898  0  0  0.290877  0.291482  0  1.006493  0
H  H18  1  0.97793211  0.52086378  0.23615578  1  0  0.328887  0  0.91246  0  0  0.317083  0  0.967608  0  0  0.32383  0  0.962635  0  0  0.299796  0.312271  0  0.971225  0
H  H19  1  0.47914004  0.02207045  0.26384883  1  0  0.328991  0  0.91232  0  0  0.31717  0  0.9675  0  0  0.323919  0  0.962524  0  0  0.299774  0.31236  0  0.971115  0
H  H20  1  0.02206718  0.47914555  0.76384679  1  0  0.328825  0  0.912503  0  0  0.317028  0  0.967696  0  0  0.323775  0  0.962684  0  0  0.299771  0.312217  0  0.971271  0
H  H21  1  0.52085935  0.97792614  0.73614876  1  0  0.329004  0  0.912283  0  0  0.317185  0  0.967492  0  0  0.323935  0  0.962488  0  0  0.299795  0.312373  0  0.971088  0
C  C22  1  0.86344816  0.86686125  0.91553330  1  0  0.312006  0  3.741482  0  0  0.295992  0  4.005823  0  0  0.309855  0  4.024187  0  0  0.202918  0.286192  0  3.994209  0
C  C23  1  0.13315691  0.13651057  0.58447478  1  0  0.311572  0  3.741548  0  0  0.295449  0  4.006096  0  0  0.309408  0  4.024288  0  0  0.202693  0.285745  0  3.994301  0
C  C24  1  0.13655625  0.13315926  0.08446715  1  0  0.311576  0  3.741644  0  0  0.295471  0  4.006261  0  0  0.30943  0  4.024361  0  0  0.202656  0.285762  0  3.994374  0
C  C25  1  0.86684893  0.86346352  0.41552121  1  0  0.311785  0  3.74168  0  0  0.295693  0  4.006213  0  0  0.309654  0  4.024408  0  0  0.202701  0.28599  0  3.994428  0
C  C26  1  0.91678394  0.78588656  0.98641429  1  0  -0.011703  0  3.937469  0  0  0.009286  0  4.177854  0  0  0.001876  0  4.202707  0  0  -0.021027  0.014141  0  4.161151  0
C  C27  1  0.21412097  0.08319014  0.51359139  1  0  -0.011347  0  3.937255  0  0  0.00959  0  4.17756  0  0  0.002196  0  4.202566  0  0  -0.020894  0.014459  0  4.161015  0
C  C28  1  0.08322723  0.21411459  0.01358804  1  0  -0.011508  0  3.937504  0  0  0.009459  0  4.177891  0  0  0.002058  0  4.20272  0  0  -0.020989  0.014315  0  4.161191  0
C  C29  1  0.78588295  0.91679356  0.48640674  1  0  -0.01152  0  3.937075  0  0  0.009368  0  4.177431  0  0  0.001973  0  4.202427  0  0  -0.020984  0.014234  0  4.160885  0
C  C30  1  0.13349355  0.71648522  0.99898481  1  0  -0.180888  0  3.755086  0  0  -0.220589  0  4.020812  0  0  -0.21886  0  4.036783  0  0  -0.087285  -0.221058  0  4.009531  0
C  C31  1  0.28350421  0.86648297  0.50101757  1  0  -0.18128  0  3.755327  0  0  -0.221178  0  4.021854  0  0  -0.219196  0  4.037061  0  0  -0.087282  -0.22141  0  4.00982  0
C  C32  1  0.86650099  0.28352895  0.00101986  1  0  -0.180946  0  3.754574  0  0  -0.220228  0  4.019502  0  0  -0.218848  0  4.036283  0  0  -0.087265  -0.221079  0  4.009065  0
C  C33  1  0.71649354  0.13350568  0.49897694  1  0  -0.180953  0  3.755252  0  0  -0.220874  0  4.021739  0  0  -0.218881  0  4.036932  0  0  -0.08721  -0.221108  0  4.009706  0
C  C34  1  0.17987682  0.64494003  0.06897082  1  0  0.184139  0  3.756375  0  0  0.169417  0  4.04392  0  0  0.174227  0  4.054794  0  0  0.08492  0.166921  0  4.035653  0
C  C35  1  0.35504761  0.82010176  0.43103312  1  0  0.184399  0  3.756431  0  0  0.169566  0  4.044204  0  0  0.174435  0  4.055005  0  0  0.084866  0.167128  0  4.03586  0
C  C36  1  0.82011948  0.35508219  0.93103005  1  0  0.184046  0  3.756282  0  0  0.171048  0  4.04224  0  0  0.17412  0  4.054852  0  0  0.084862  0.166807  0  4.035722  0
C  C37  1  0.64495972  0.17988512  0.56896353  1  0  0.18405  0  3.756681  0  0  0.169315  0  4.044376  0  0  0.174194  0  4.055168  0  0  0.084806  0.166878  0  4.03603  0
C  C38  1  0.02339860  0.63765015  0.12939191  1  0  0.241757  0  3.864172  0  0  0.223614  0  4.122982  0  0  0.235774  0  4.141884  0  0  0.102733  0.215835  0  4.109171  0
C  C39  1  0.36234980  0.97658373  0.37061572  1  0  0.241775  0  3.864074  0  0  0.223516  0  4.123034  0  0  0.235673  0  4.141982  0  0  0.102761  0.215738  0  4.109267  0
C  C40  1  0.97659237  0.36236568  0.87061237  1  0  0.241786  0  3.864069  0  0  0.223883  0  4.121931  0  0  0.235604  0  4.142094  0  0  0.102672  0.215664  0  4.109378  0
C  C41  1  0.63765392  0.02340478  0.62938211  1  0  0.241841  0  3.864094  0  0  0.223514  0  4.123128  0  0  0.23567  0  4.142069  0  0  0.102688  0.215731  0  4.109357  0
C  C42  1  0.80848822  0.70459938  0.11487317  1  0  -0.158162  0  3.688647  0  0  -0.173754  0  3.943512  0  0  -0.181736  0  3.963919  0  0  -0.098972  -0.168553  0  3.929661  0
C  C43  1  0.29541333  0.19148525  0.38513429  1  0  -0.158275  0  3.688757  0  0  -0.173828  0  3.943609  0  0  -0.1818  0  3.964053  0  0  -0.098983  -0.168628  0  3.929804  0
C  C44  1  0.19150580  0.29541645  0.88512879  1  0  -0.158231  0  3.6884  0  0  -0.17364  0  3.943013  0  0  -0.181767  0  3.963733  0  0  -0.099007  -0.168589  0  3.929478  0
C  C45  1  0.70458980  0.80850485  0.61486506  1  0  -0.15824  0  3.688587  0  0  -0.17379  0  3.943497  0  0  -0.181764  0  3.963915  0  0  -0.099016  -0.168589  0  3.929669  0
C  C46  1  0.75621944  0.77723555  0.04509548  1  0  -0.069621  0  3.757728  0  0  -0.102882  0  4.023162  0  0  -0.098808  0  4.040413  0  0  -0.084219  -0.105024  0  4.010695  0
C  C47  1  0.22277210  0.24376165  0.45490864  1  0  -0.069597  0  3.757743  0  0  -0.10286  0  4.023116  0  0  -0.098774  0  4.04041  0  0  -0.084242  -0.10498  0  4.010706  0
C  C48  1  0.24378737  0.22277366  0.95490819  1  0  -0.069551  0  3.757577  0  0  -0.102514  0  4.022186  0  0  -0.098726  0  4.040261  0  0  -0.084171  -0.104932  0  4.010545  0
C  C49  1  0.77723066  0.75622524  0.54509095  1  0  -0.069559  0  3.757625  0  0  -0.102816  0  4.02301  0  0  -0.09871  0  4.040316  0  0  -0.084181  -0.104926  0  4.010592  0
N  N50  1  0.81999971  0.93662476  0.85665502  1  0  -0.440141  0  2.896432  0  0  -0.397666  0  3.194416  0  0  -0.410236  0  3.196723  0  0  -0.362412  -0.389661  0  3.193676  0
N  N51  1  0.06338255  0.17997802  0.64335516  1  0  -0.439904  0  2.896272  0  0  -0.397538  0  3.19453  0  0  -0.409969  0  3.196543  0  0  -0.362276  -0.389386  0  3.193466  0
N  N52  1  0.18001218  0.06336993  0.14334980  1  0  -0.439878  0  2.896289  0  0  -0.397551  0  3.194591  0  0  -0.409972  0  3.196568  0  0  -0.362227  -0.389402  0  3.19352  0
N  N53  1  0.93660872  0.82000745  0.35664368  1  0  -0.440009  0  2.896799  0  0  -0.397667  0  3.195038  0  0  -0.410094  0  3.197055  0  0  -0.362229  -0.389524  0  3.194009  0
N  N54  1  0.07875355  0.57737424  0.19790903  1  0  -0.643438  0  3.196226  0  0  -0.60215  0  3.443104  0  0  -0.622938  0  3.439361  0  0  -0.583616  -0.587254  0  3.444643  0
N  N55  1  0.42261038  0.92123877  0.30209315  1  0  -0.643673  0  3.195851  0  0  -0.602335  0  3.44279  0  0  -0.623131  0  3.439052  0  0  -0.583598  -0.58744  0  3.444355  0
N  N56  1  0.92124387  0.42263192  0.80209334  1  0  -0.643325  0  3.195942  0  0  -0.601582  0  3.441923  0  0  -0.622745  0  3.439133  0  0  -0.583521  -0.587033  0  3.444437  0
N  N57  1  0.57738998  0.07875944  0.69790268  1  0  -0.643551  0  3.196062  0  0  -0.6022  0  3.443065  0  0  -0.622991  0  3.439277  0  0  -0.58353  -0.587313  0  3.444575  0
N  N58  1  0.65266659  0.34732751  0.25000236  1  0  0.698237  0  4.139096  0  0  0.725579  0  4.43831  0  0  0.753009  0  4.446165  0  0  0.096064  0.707275  0  4.432248  0
N  N59  1  0.34733223  0.65267070  0.74999516  1  0  0.697962  0  4.139159  0  0  0.725323  0  4.43836  0  0  0.752724  0  4.446256  0  0  0.096  0.70698  0  4.432358  0
O  O60  1  0.81070283  0.33783463  0.27897253  1  0  -0.475661  0  1.767512  0  0  -0.462483  0  1.98958  0  0  -0.477699  0  1.981842  0  0  -0.195909  -0.451605  0  1.994345  0
O  O61  1  0.66215545  0.18929701  0.22102998  1  0  -0.475773  0  1.767456  0  0  -0.462565  0  1.989504  0  0  -0.47778  0  1.981761  0  0  -0.195943  -0.451693  0  1.994275  0
O  O62  1  0.18929712  0.66216035  0.72102513  1  0  -0.475657  0  1.767508  0  0  -0.462434  0  1.989524  0  0  -0.47765  0  1.981783  0  0  -0.195917  -0.451562  0  1.994295  0
O  O63  1  0.33783962  0.81070769  0.77896577  1  0  -0.475611  0  1.767421  0  0  -0.462321  0  1.989217  0  0  -0.477638  0  1.98174  0  0  -0.195893  -0.451553  0  1.994265  0
O  O64  1  0.48349974  0.51649296  0.25000348  1  0  -0.490576  0  1.813445  0  0  -0.478004  0  2.050168  0  0  -0.492759  0  2.039538  0  0  -0.186354  -0.46747  0  2.056578  0
O  O65  1  0.51649943  0.48350842  0.74999539  1  0  -0.490456  0  1.81352  0  0  -0.477683  0  2.049702  0  0  -0.492638  0  2.039589  0  0  -0.186334  -0.467333  0  2.056612  0
F  F66  1  0.38948028  0.57501662  0.08222881  1  0  -0.203278  0  1.233358  0  0  -0.133453  0  1.38748  0  0  -0.150587  0  1.387283  0  0  -0.087676  -0.126134  0  1.392939  0
F  F67  1  0.42495533  0.61052090  0.41777102  1  0  -0.203313  0  1.233389  0  0  -0.133542  0  1.387768  0  0  -0.150609  0  1.387363  0  0  -0.087679  -0.126151  0  1.393022  0
F  F68  1  0.61051915  0.42500068  0.91777640  1  0  -0.203282  0  1.233325  0  0  -0.13953  0  1.394238  0  0  -0.150557  0  1.387252  0  0  -0.087661  -0.126092  0  1.392903  0
F  F69  1  0.57504508  0.38947735  0.58222217  1  0  -0.203207  0  1.233532  0  0  -0.133482  0  1.387896  0  0  -0.15057  0  1.387505  0  0  -0.087617  -0.126091  0  1.39315  0
