# generated using pymatgen
data_ZnH8C9N3O2
_symmetry_space_group_name_H-M   'P 1'
_cell_length_a   8.84427407
_cell_length_b   9.95679415
_cell_length_c   11.24545472
_cell_angle_alpha   89.99994245
_cell_angle_beta   92.51417337
_cell_angle_gamma   90.00001345
_symmetry_Int_Tables_number   1
_chemical_formula_structural   ZnH8C9N3O2
_chemical_formula_sum   'Zn4 H32 C36 N12 O8'
_cell_volume   989.32842906
_cell_formula_units_Z   4
loop_
 _symmetry_equiv_pos_site_id
 _symmetry_equiv_pos_as_xyz
  1  'x, y, z'
loop_
 _atom_site_type_symbol
 _atom_site_label
 _atom_site_symmetry_multiplicity
 _atom_site_fract_x
 _atom_site_fract_y
 _atom_site_fract_z
 _atom_site_occupancy
 _atom_site_hle17_bader_spin_density
 _atom_site_hle17_ddec_charge
 _atom_site_hle17_ddec_spin_density
 _atom_site_hle17_ddec_sum_bond_order
 _atom_site_hle17_magmom
 _atom_site_hse06_10hf_bader_spin_density
 _atom_site_hse06_10hf_ddec_charge
 _atom_site_hse06_10hf_ddec_spin_density
 _atom_site_hse06_10hf_ddec_sum_bond_order
 _atom_site_hse06_10hf_magmom
 _atom_site_hse06_bader_spin_density
 _atom_site_hse06_ddec_charge
 _atom_site_hse06_ddec_spin_density
 _atom_site_hse06_ddec_sum_bond_order
 _atom_site_hse06_magmom
 _atom_site_pbe_bader_spin_density
 _atom_site_pbe_cm5_charge
 _atom_site_pbe_ddec_charge
 _atom_site_pbe_ddec_spin_density
 _atom_site_pbe_ddec_sum_bond_order
 _atom_site_pbe_magmom
Zn  Zn0  1  0.79035911  0.27331447  0.87376200  1  0  1.011378  0  1.86177  0  0  0.821737  0  2.339807  0  0  0.865358  0  2.288163  0  0  0.725408  0.790854  0  2.375439  0
Zn  Zn1  1  0.70964110  0.77331417  0.12623760  1  0  1.01143  0  1.861739  0  0  0.821806  0  2.339768  0  0  0.865418  0  2.288117  0  0  0.725435  0.79092  0  2.375403  0
Zn  Zn2  1  0.20964075  0.72668566  0.12623763  1  0  1.011403  0  1.861764  0  0  0.821758  0  2.339804  0  0  0.865372  0  2.288151  0  0  0.725424  0.790869  0  2.375435  0
Zn  Zn3  1  0.29035876  0.22668595  0.87376202  1  0  1.011372  0  1.861772  0  0  0.821742  0  2.339793  0  0  0.865346  0  2.28813  0  0  0.725424  0.790856  0  2.375426  0
H  H4  1  0.94071787  0.92320469  0.33700148  1  0  0.100306  0  0.96463  0  0  0.113318  0  1.022404  0  0  0.115524  0  1.022002  0  0  0.103454  0.111683  0  1.022729  0
H  H5  1  0.55928236  0.42320417  0.66299799  1  0  0.100315  0  0.964614  0  0  0.113325  0  1.022386  0  0  0.115529  0  1.021987  0  0  0.103447  0.111685  0  1.022711  0
H  H6  1  0.05928198  0.07679543  0.66299904  1  0  0.10031  0  0.964636  0  0  0.113324  0  1.022407  0  0  0.115529  0  1.022007  0  0  0.103456  0.111691  0  1.022733  0
H  H7  1  0.44071750  0.57679595  0.33700164  1  0  0.100299  0  0.964622  0  0  0.113309  0  1.022395  0  0  0.115514  0  1.021996  0  0  0.103447  0.111669  0  1.022719  0
H  H8  1  0.10753340  0.10590133  0.41761456  1  0  0.085566  0  0.95012  0  0  0.100092  0  1.004592  0  0  0.102646  0  1.003788  0  0  0.099128  0.098279  0  1.005163  0
H  H9  1  0.39246722  0.60590156  0.58238524  1  0  0.085564  0  0.950127  0  0  0.100093  0  1.004594  0  0  0.102646  0  1.003791  0  0  0.099129  0.098279  0  1.005165  0
H  H10  1  0.89246646  0.89409879  0.58238596  1  0  0.085552  0  0.950149  0  0  0.100084  0  1.004614  0  0  0.102638  0  1.00381  0  0  0.099124  0.09827  0  1.005185  0
H  H11  1  0.60753377  0.39409856  0.41761442  1  0  0.085552  0  0.950144  0  0  0.100086  0  1.004611  0  0  0.102638  0  1.003809  0  0  0.099126  0.098271  0  1.005183  0
H  H12  1  0.14341479  0.31573500  0.30561797  1  0  0.081342  0  0.968337  0  0  0.093196  0  1.02984  0  0  0.095036  0  1.030573  0  0  0.096263  0.091784  0  1.029579  0
H  H13  1  0.35658588  0.81573610  0.69438164  1  0  0.081325  0  0.968354  0  0  0.093177  0  1.029865  0  0  0.095021  0  1.030586  0  0  0.096253  0.091766  0  1.029604  0
H  H14  1  0.85658620  0.68426512  0.69438258  1  0  0.081346  0  0.968358  0  0  0.093204  0  1.029853  0  0  0.095041  0  1.030593  0  0  0.096264  0.091793  0  1.029592  0
H  H15  1  0.64341511  0.18426402  0.30561891  1  0  0.081322  0  0.968344  0  0  0.093174  0  1.029853  0  0  0.095015  0  1.030582  0  0  0.096247  0.091763  0  1.029594  0
H  H16  1  0.00780942  0.35532817  0.10828732  1  0  0.1164  0  0.947607  0  0  0.121772  0  1.015132  0  0  0.124803  0  1.013379  0  0  0.107405  0.11979  0  1.015862  0
H  H17  1  0.49219125  0.85532806  0.89171226  1  0  0.116382  0  0.947625  0  0  0.121752  0  1.01515  0  0  0.124785  0  1.013396  0  0  0.107404  0.119771  0  1.015881  0
H  H18  1  0.99219157  0.64466895  0.89171413  1  0  0.116413  0  0.947608  0  0  0.121774  0  1.015137  0  0  0.124807  0  1.013384  0  0  0.107386  0.119793  0  1.015866  0
H  H19  1  0.50780974  0.14467206  0.10828652  1  0  0.116403  0  0.947598  0  0  0.121774  0  1.015123  0  0  0.124807  0  1.013369  0  0  0.107407  0.119793  0  1.015853  0
H  H20  1  0.87942325  0.45294068  0.67947524  1  0  0.094559  0  0.949416  0  0  0.107801  0  1.015966  0  0  0.109414  0  1.016038  0  0  0.09742  0.106403  0  1.016447  0
H  H21  1  0.62057699  0.95294115  0.32052421  1  0  0.094539  0  0.949448  0  0  0.107795  0  1.015985  0  0  0.109408  0  1.016057  0  0  0.097416  0.106396  0  1.016468  0
H  H22  1  0.12057660  0.54705844  0.32052439  1  0  0.094544  0  0.949437  0  0  0.107798  0  1.015976  0  0  0.109411  0  1.016048  0  0  0.097418  0.106399  0  1.016459  0
H  H23  1  0.37942287  0.04705898  0.67947453  1  0  0.094565  0  0.949407  0  0  0.10781  0  1.015952  0  0  0.109423  0  1.016024  0  0  0.097423  0.106412  0  1.016433  0
H  H24  1  0.90519121  0.30744711  0.59541756  1  0  0.113909  0  0.915015  0  0  0.131557  0  0.969557  0  0  0.13393  0  0.968499  0  0  0.106351  0.12966  0  0.970607  0
H  H25  1  0.59480900  0.80744748  0.40458290  1  0  0.113914  0  0.915022  0  0  0.131564  0  0.969568  0  0  0.133938  0  0.968508  0  0  0.106352  0.129665  0  0.970618  0
H  H26  1  0.09480865  0.69255302  0.40458207  1  0  0.113922  0  0.915005  0  0  0.131571  0  0.969551  0  0  0.133944  0  0.968492  0  0  0.106355  0.129673  0  0.970601  0
H  H27  1  0.40519199  0.19255365  0.59541677  1  0  0.113905  0  0.915015  0  0  0.131554  0  0.969559  0  0  0.133926  0  0.968501  0  0  0.106348  0.129656  0  0.970609  0
H  H28  1  0.14045964  0.40844043  0.51164497  1  0  0.064282  0  0.932216  0  0  0.082108  0  0.993322  0  0  0.083273  0  0.993127  0  0  0.087696  0.081284  0  0.9935  0
H  H29  1  0.35953991  0.90844076  0.48835453  1  0  0.064283  0  0.932259  0  0  0.082105  0  0.993359  0  0  0.083268  0  0.993165  0  0  0.08768  0.081281  0  0.993534  0
H  H30  1  0.85954022  0.59155970  0.48835466  1  0  0.064287  0  0.932237  0  0  0.082106  0  0.993338  0  0  0.08327  0  0.993142  0  0  0.087692  0.081281  0  0.993515  0
H  H31  1  0.64045995  0.09155937  0.51164510  1  0  0.064266  0  0.932267  0  0  0.082105  0  0.993379  0  0  0.083267  0  0.993185  0  0  0.087674  0.081281  0  0.993556  0
H  H32  1  0.11344676  0.55518741  0.59564446  1  0  0.063775  0  0.935444  0  0  0.081698  0  0.997021  0  0  0.081951  0  0.998665  0  0  0.088161  0.08167  0  0.99561  0
H  H33  1  0.38655271  0.05518725  0.40435535  1  0  0.063781  0  0.935456  0  0  0.081697  0  0.997027  0  0  0.081951  0  0.998671  0  0  0.088162  0.081671  0  0.995614  0
H  H34  1  0.88655309  0.44481271  0.40435517  1  0  0.063791  0  0.935457  0  0  0.081704  0  0.997028  0  0  0.081958  0  0.998673  0  0  0.088168  0.081677  0  0.995615  0
H  H35  1  0.61344715  0.94481287  0.59564428  1  0  0.06379  0  0.935426  0  0  0.081727  0  0.997007  0  0  0.08198  0  0.998653  0  0  0.088166  0.081701  0  0.995594  0
C  C36  1  0.90217524  0.15779680  0.11182130  1  0  0.131362  0  3.822986  0  0  0.127789  0  4.063284  0  0  0.129557  0  4.087877  0  0  0.093248  0.126319  0  4.046461  0
C  C37  1  0.59782380  0.65779663  0.88817837  1  0  0.131403  0  3.822851  0  0  0.127816  0  4.063175  0  0  0.129584  0  4.087765  0  0  0.093239  0.126347  0  4.046352  0
C  C38  1  0.09782575  0.84220332  0.88817926  1  0  0.131402  0  3.822956  0  0  0.127772  0  4.063333  0  0  0.12954  0  4.087928  0  0  0.093238  0.126303  0  4.04651  0
C  C39  1  0.40217606  0.34220350  0.11182037  1  0  0.131315  0  3.822971  0  0  0.127732  0  4.063292  0  0  0.129498  0  4.087886  0  0  0.093201  0.126262  0  4.046472  0
C  C40  1  0.88322812  0.03651074  0.17486870  1  0  0.125603  0  3.832014  0  0  0.119924  0  4.076382  0  0  0.122257  0  4.100588  0  0  0.088488  0.118107  0  4.060362  0
C  C41  1  0.61676977  0.53650963  0.82513103  1  0  0.125655  0  3.83183  0  0  0.119977  0  4.076204  0  0  0.122315  0  4.10041  0  0  0.088526  0.118161  0  4.060183  0
C  C42  1  0.11677060  0.96348938  0.82513178  1  0  0.125592  0  3.831866  0  0  0.119926  0  4.076254  0  0  0.122259  0  4.10046  0  0  0.088471  0.118109  0  4.060236  0
C  C43  1  0.38323009  0.46348949  0.17486860  1  0  0.125644  0  3.831813  0  0  0.119966  0  4.076179  0  0  0.122302  0  4.100384  0  0  0.08852  0.118149  0  4.060157  0
C  C44  1  0.95536904  0.01573090  0.28728917  1  0  -0.142321  0  3.758939  0  0  -0.160436  0  4.009797  0  0  -0.162857  0  4.030435  0  0  -0.094852  -0.158734  0  3.996096  0
C  C45  1  0.54462998  0.51573091  0.71271061  1  0  -0.142373  0  3.758923  0  0  -0.160482  0  4.009774  0  0  -0.162904  0  4.030414  0  0  -0.094856  -0.158774  0  3.996066  0
C  C46  1  0.04462969  0.98426922  0.71271042  1  0  -0.142339  0  3.758881  0  0  -0.160456  0  4.009742  0  0  -0.16288  0  4.030383  0  0  -0.094852  -0.158756  0  3.996043  0
C  C47  1  0.45536988  0.48426921  0.28728901  1  0  -0.142291  0  3.758936  0  0  -0.160394  0  4.009779  0  0  -0.162816  0  4.03042  0  0  -0.094823  -0.158684  0  3.996068  0
C  C48  1  0.04745236  0.11862334  0.33152734  1  0  -0.070311  0  3.784285  0  0  -0.085505  0  4.036062  0  0  -0.087435  0  4.058329  0  0  -0.094357  -0.084346  0  4.02096  0
C  C49  1  0.45254713  0.61862348  0.66847241  1  0  -0.070271  0  3.784276  0  0  -0.085466  0  4.036044  0  0  -0.087394  0  4.058311  0  0  -0.094342  -0.084305  0  4.02094  0
C  C50  1  0.95254636  0.88137678  0.66847403  1  0  -0.070269  0  3.784327  0  0  -0.085467  0  4.036105  0  0  -0.087396  0  4.058373  0  0  -0.094339  -0.084307  0  4.021004  0
C  C51  1  0.54745273  0.38137764  0.33152721  1  0  -0.070304  0  3.784324  0  0  -0.085512  0  4.036105  0  0  -0.087441  0  4.058375  0  0  -0.094376  -0.084352  0  4.021003  0
C  C52  1  0.06746373  0.23939117  0.26736327  1  0  -0.06895  0  3.776298  0  0  -0.08502  0  4.029203  0  0  -0.087983  0  4.053435  0  0  -0.095085  -0.082852  0  4.012304  0
C  C53  1  0.43253579  0.73939123  0.73263548  1  0  -0.068985  0  3.776269  0  0  -0.085065  0  4.029182  0  0  -0.088026  0  4.053417  0  0  -0.095111  -0.082898  0  4.012287  0
C  C54  1  0.93253726  0.76060795  0.73263728  1  0  -0.06897  0  3.776362  0  0  -0.085039  0  4.029258  0  0  -0.088004  0  4.053489  0  0  -0.095103  -0.082872  0  4.012359  0
C  C55  1  0.56746407  0.26060789  0.26736326  1  0  -0.068941  0  3.776236  0  0  -0.08501  0  4.029142  0  0  -0.087973  0  4.053375  0  0  -0.095063  -0.082844  0  4.012247  0
C  C56  1  0.99458453  0.26205123  0.15743415  1  0  -0.124817  0  3.714394  0  0  -0.143469  0  3.965423  0  0  -0.145533  0  3.985913  0  0  -0.08644  -0.141349  0  3.950259  0
C  C57  1  0.50541454  0.76205108  0.84256542  1  0  -0.124735  0  3.714335  0  0  -0.143379  0  3.96537  0  0  -0.145443  0  3.985861  0  0  -0.086395  -0.14126  0  3.950208  0
C  C58  1  0.00541985  0.73794689  0.84256475  1  0  -0.124861  0  3.71441  0  0  -0.143486  0  3.96545  0  0  -0.145548  0  3.985938  0  0  -0.086409  -0.141365  0  3.950286  0
C  C59  1  0.49458532  0.23794904  0.15743421  1  0  -0.124809  0  3.714383  0  0  -0.143454  0  3.965412  0  0  -0.145518  0  3.985902  0  0  -0.086431  -0.141335  0  3.950251  0
C  C60  1  0.06561388  0.33133616  0.73818085  1  0  0.708332  0  3.806257  0  0  0.659161  0  4.098108  0  0  0.693213  0  4.090832  0  0  0.217262  0.636058  0  4.10186  0
C  C61  1  0.43438566  0.83133676  0.26181782  1  0  0.708284  0  3.806357  0  0  0.659099  0  4.098228  0  0  0.693151  0  4.090958  0  0  0.217236  0.635996  0  4.101979  0
C  C62  1  0.93438485  0.66866397  0.26181874  1  0  0.708307  0  3.806317  0  0  0.659132  0  4.09817  0  0  0.693184  0  4.090901  0  0  0.217265  0.636028  0  4.101923  0
C  C63  1  0.56561420  0.16866437  0.73818092  1  0  0.708305  0  3.80631  0  0  0.659162  0  4.098107  0  0  0.693214  0  4.090839  0  0  0.217296  0.63606  0  4.101858  0
C  C64  1  0.96713086  0.39147514  0.63931239  1  0  -0.274369  0  3.703413  0  0  -0.310136  0  3.95124  0  0  -0.316038  0  3.95978  0  0  -0.164037  -0.305707  0  3.945187  0
C  C65  1  0.53286937  0.89147555  0.36068711  1  0  -0.274376  0  3.703489  0  0  -0.310172  0  3.951332  0  0  -0.316071  0  3.959866  0  0  -0.16406  -0.305741  0  3.945278  0
C  C66  1  0.03286900  0.60852398  0.36068724  1  0  -0.27436  0  3.703458  0  0  -0.310161  0  3.951295  0  0  -0.316059  0  3.959831  0  0  -0.164051  -0.305732  0  3.945241  0
C  C67  1  0.46713049  0.10852458  0.63931252  1  0  -0.274366  0  3.703393  0  0  -0.310125  0  3.951213  0  0  -0.316023  0  3.959747  0  0  -0.164043  -0.305695  0  3.945159  0
C  C68  1  0.05290810  0.47232341  0.54932788  1  0  -0.084336  0  3.713226  0  0  -0.12618  0  3.976381  0  0  -0.12645  0  3.990428  0  0  -0.168739  -0.12587  0  3.96632  0
C  C69  1  0.44709147  0.97232279  0.45067156  1  0  -0.08435  0  3.713243  0  0  -0.126136  0  3.976382  0  0  -0.126406  0  3.99043  0  0  -0.168691  -0.125825  0  3.96632  0
C  C70  1  0.94709176  0.52767672  0.45067264  1  0  -0.084403  0  3.713292  0  0  -0.126192  0  3.976408  0  0  -0.126463  0  3.990455  0  0  -0.16874  -0.125881  0  3.966347  0
C  C71  1  0.55290839  0.02767733  0.54932718  1  0  -0.084375  0  3.713203  0  0  -0.12628  0  3.976442  0  0  -0.126549  0  3.99049  0  0  -0.168751  -0.125967  0  3.966379  0
N  N72  1  0.81606906  0.14561522  0.00782594  1  0  -0.30849  0  3.253868  0  0  -0.237367  0  3.562218  0  0  -0.25407  0  3.572767  0  0  -0.240282  -0.226218  0  3.555109  0
N  N73  1  0.68393112  0.64561494  0.99217377  1  0  -0.308623  0  3.253847  0  0  -0.237502  0  3.562211  0  0  -0.254202  0  3.572756  0  0  -0.240325  -0.226354  0  3.555103  0
N  N74  1  0.18393080  0.85438591  0.99217368  1  0  -0.308511  0  3.253899  0  0  -0.237365  0  3.56225  0  0  -0.254065  0  3.572795  0  0  -0.240303  -0.226216  0  3.555139  0
N  N75  1  0.31606874  0.35438518  0.00782586  1  0  -0.308415  0  3.253903  0  0  -0.23729  0  3.562251  0  0  -0.253986  0  3.572789  0  0  -0.24026  -0.226143  0  3.555143  0
N  N76  1  0.74865269  0.02604762  0.00502021  1  0  -0.024516  0  2.931886  0  0  -0.026609  0  3.211919  0  0  -0.018242  0  3.222789  0  0  -0.08981  -0.031904  0  3.204387  0
N  N77  1  0.75134746  0.52604735  0.99497961  1  0  -0.024464  0  2.931853  0  0  -0.026552  0  3.211881  0  0  -0.018186  0  3.22275  0  0  -0.089804  -0.03185  0  3.204351  0
N  N78  1  0.25134716  0.97395351  0.99498031  1  0  -0.024538  0  2.931955  0  0  -0.026631  0  3.211978  0  0  -0.018263  0  3.22284  0  0  -0.089808  -0.031928  0  3.204448  0
N  N79  1  0.24865353  0.47395177  0.00502006  1  0  -0.02456  0  2.931906  0  0  -0.026654  0  3.211947  0  0  -0.018289  0  3.222812  0  0  -0.089818  -0.031949  0  3.204411  0
N  N80  1  0.78705899  0.95876645  0.10440328  1  0  -0.330622  0  3.268142  0  0  -0.260083  0  3.579597  0  0  -0.277202  0  3.589927  0  0  -0.245564  -0.248243  0  3.572111  0
N  N81  1  0.71294012  0.45876671  0.89559612  1  0  -0.330655  0  3.268147  0  0  -0.260113  0  3.579605  0  0  -0.277234  0  3.589935  0  0  -0.245573  -0.248275  0  3.572119  0
N  N82  1  0.21293973  0.04123367  0.89559631  1  0  -0.330573  0  3.26814  0  0  -0.260025  0  3.579585  0  0  -0.277141  0  3.589906  0  0  -0.245535  -0.248187  0  3.5721  0
N  N83  1  0.28705974  0.54123342  0.10440351  1  0  -0.330647  0  3.268111  0  0  -0.260108  0  3.579571  0  0  -0.277224  0  3.589892  0  0  -0.24558  -0.248268  0  3.572083  0
O  O84  1  0.00935577  0.29611994  0.83606836  1  0  -0.652682  0  2.09489  0  0  -0.584335  0  2.385893  0  0  -0.612085  0  2.37005  0  0  -0.319322  -0.565059  0  2.395718  0
O  O85  1  0.49064375  0.79611966  0.16393123  1  0  -0.652649  0  2.094923  0  0  -0.584311  0  2.385941  0  0  -0.612061  0  2.3701  0  0  -0.319302  -0.565036  0  2.395767  0
O  O86  1  0.99064295  0.70388018  0.16393123  1  0  -0.652662  0  2.0949  0  0  -0.584316  0  2.385901  0  0  -0.612066  0  2.370061  0  0  -0.319321  -0.56504  0  2.395726  0
O  O87  1  0.50935610  0.20387946  0.83606840  1  0  -0.652659  0  2.0949  0  0  -0.584322  0  2.385886  0  0  -0.612071  0  2.370041  0  0  -0.319331  -0.565047  0  2.395712  0
O  O88  1  0.20614340  0.31251185  0.72202917  1  0  -0.615396  0  2.003604  0  0  -0.541027  0  2.260847  0  0  -0.569086  0  2.249126  0  0  -0.311806  -0.521619  0  2.26836  0
O  O89  1  0.29385726  0.81251140  0.27797134  1  0  -0.615378  0  2.003636  0  0  -0.540985  0  2.260867  0  0  -0.569042  0  2.249145  0  0  -0.311798  -0.521577  0  2.268377  0
O  O90  1  0.79385646  0.68748828  0.27797046  1  0  -0.615399  0  2.003624  0  0  -0.54102  0  2.260859  0  0  -0.569078  0  2.249141  0  0  -0.311813  -0.521614  0  2.268374  0
O  O91  1  0.70614260  0.18748772  0.72202829  1  0  -0.615377  0  2.003644  0  0  -0.541014  0  2.260873  0  0  -0.569061  0  2.249128  0  0  -0.311806  -0.521606  0  2.268385  0
