# generated using pymatgen
data_CoH16C18S2(N3O)2
_symmetry_space_group_name_H-M   'P 1'
_cell_length_a   7.48567360
_cell_length_b   7.75632043
_cell_length_c   9.68249649
_cell_angle_alpha   103.32719131
_cell_angle_beta   101.55749359
_cell_angle_gamma   116.69228610
_symmetry_Int_Tables_number   1
_chemical_formula_structural   CoH16C18S2(N3O)2
_chemical_formula_sum   'Co1 H16 C18 S2 N6 O2'
_cell_volume   457.90902268
_cell_formula_units_Z   1
loop_
 _symmetry_equiv_pos_site_id
 _symmetry_equiv_pos_as_xyz
  1  'x, y, z'
loop_
 _atom_site_type_symbol
 _atom_site_label
 _atom_site_symmetry_multiplicity
 _atom_site_fract_x
 _atom_site_fract_y
 _atom_site_fract_z
 _atom_site_occupancy
 _atom_site_hle17_ddec_charge
 _atom_site_hle17_ddec_spin_density
 _atom_site_hle17_ddec_sum_bond_order
 _atom_site_hle17_magmom
 _atom_site_hse06_10hf_ddec_charge
 _atom_site_hse06_10hf_ddec_spin_density
 _atom_site_hse06_10hf_ddec_sum_bond_order
 _atom_site_hse06_10hf_magmom
 _atom_site_hse06_ddec_charge
 _atom_site_hse06_ddec_spin_density
 _atom_site_hse06_ddec_sum_bond_order
 _atom_site_hse06_magmom
 _atom_site_pbe_cm5_charge
 _atom_site_pbe_ddec_charge
 _atom_site_pbe_ddec_spin_density
 _atom_site_pbe_ddec_sum_bond_order
 _atom_site_pbe_magmom
Co  Co0  1  0.50000275  0.50000458  0.00000394  1  0.769419  1.132783  2.631614  1.017  0.756498  1.04508  3.072557  0.969  0.810042  1.043989  3.003769  0.978  0.74237  0.726361  1.036656  3.114563  0.951
H  H1  1  0.04993737  0.23380565  0.80626632  1  0.099026  -1.5e-05  0.932702  0.001  0.106523  -0.000175  0.992106  0.0  0.108628  -0.000141  0.989746  0.0  0.125587  0.104755  -0.000183  0.994254  0.0
H  H2  1  0.95006790  0.76620068  0.19373672  1  0.099137  -1.3e-05  0.932564  0.001  0.106589  -0.000175  0.992001  0.0  0.108695  -0.000141  0.989642  0.0  0.125641  0.104823  -0.000182  0.994157  0.0
H  H3  1  0.74785204  0.28371083  0.71489412  1  0.120913  -0.000523  0.94588  -0.001  0.12991  -0.000133  1.006397  0.0  0.132558  -0.000123  1.005906  0.0  0.108522  0.127843  -0.000147  1.00721  0.0
H  H4  1  0.25214764  0.71628793  0.28511293  1  0.120917  -0.000522  0.945855  -0.001  0.129907  -0.000134  1.006397  0.0  0.132556  -0.000123  1.005905  0.0  0.108513  0.127842  -0.000147  1.007208  0.0
H  H5  1  0.18467218  0.94375999  0.95463369  1  0.134054  -0.000504  0.956553  -0.001  0.140852  -0.000161  1.018814  0.0  0.144239  -0.000167  1.017781  0.0  0.113788  0.138309  -0.000157  1.019748  0.0
H  H6  1  0.81532562  0.05624010  0.04536295  1  0.134108  -0.000506  0.956428  -0.001  0.140913  -0.00016  1.018679  0.0  0.144302  -0.000167  1.017644  0.0  0.113804  0.138369  -0.000157  1.019621  0.0
H  H7  1  0.46978150  0.86482407  0.03257803  1  0.085614  -6.9e-05  0.972584  0.001  0.093139  -0.000183  1.037066  0.0  0.094338  -0.000139  1.035726  0.0  0.122636  0.09211  -0.000207  1.03856  0.0
H  H8  1  0.53021091  0.13517618  0.96741983  1  0.085644  -7.2e-05  0.972492  0.001  0.093198  -0.000183  1.036952  0.0  0.094398  -0.000139  1.035612  0.0  0.122644  0.092164  -0.000207  1.038449  0.0
H  H9  1  0.52746289  0.77885563  0.56411254  1  0.067365  0.000264  0.978754  0.001  0.074326  0.000233  1.057549  0.0  0.074705  0.000143  1.057669  0.0  0.092017  0.074188  0.000312  1.057411  0.001
H  H10  1  0.47253393  0.22114781  0.43589174  1  0.067351  0.000265  0.978718  0.001  0.074317  0.000233  1.057518  0.0  0.0747  0.000143  1.057635  0.0  0.092029  0.074177  0.000312  1.05738  0.001
H  H11  1  0.44687721  0.69346903  0.70901644  1  0.092066  -0.000133  0.944846  0.0  0.10452  -9.1e-05  1.007176  0.0  0.105464  -9e-05  1.00723  0.0  0.112815  0.10384  -0.000105  1.007156  0.0
H  H12  1  0.55312189  0.30651862  0.29098243  1  0.092042  -0.000133  0.944826  0.0  0.104499  -9.1e-05  1.00716  0.0  0.105443  -9e-05  1.007212  0.0  0.112801  0.103818  -0.000105  1.007138  0.0
H  H13  1  0.84417576  0.52073350  0.54930008  1  0.078945  -0.000181  0.953979  0.0  0.094771  -0.000108  1.017433  0.0  0.094833  -7.3e-05  1.018275  0.0  0.106602  0.094948  -0.00013  1.016364  0.0
H  H14  1  0.15582608  0.47926642  0.45069305  1  0.079001  -0.000178  0.953897  0.0  0.094816  -0.000108  1.017349  0.0  0.094876  -7.3e-05  1.018191  0.0  0.106606  0.094996  -0.00013  1.016279  0.0
H  H15  1  0.77052923  0.67266055  0.46829376  1  0.080832  0.000162  0.952372  0.0  0.089516  0.000153  1.026553  0.0  0.089429  8e-05  1.027426  0.0  0.100612  0.089238  0.000188  1.026586  0.0
H  H16  1  0.22946921  0.32733314  0.53169673  1  0.080871  0.000166  0.952272  0.0  0.089549  0.000154  1.026455  0.0  0.08946  8e-05  1.02733  0.0  0.100663  0.089272  0.000188  1.026491  0.0
C  C17  1  0.07361918  0.38825909  0.83447190  1  0.132743  -0.016358  3.645337  -0.011  0.103448  -0.005277  3.900363  -0.003  0.11372  -0.004137  3.915761  -0.003  0.052056  0.096328  -0.006187  3.890656  -0.004
C  C18  1  0.92639420  0.61174714  0.16553448  1  0.132569  -0.01637  3.645606  -0.011  0.103316  -0.00528  3.900592  -0.003  0.113588  -0.00414  3.915989  -0.003  0.051981  0.096187  -0.006191  3.890896  -0.004
C  C19  1  0.90625870  0.41830141  0.78346183  1  -0.131012  0.004504  3.681728  0.007  -0.149211  0.000363  3.927188  0.001  -0.155293  0.000614  3.945599  0.001  -0.078275  -0.145487  0.000294  3.915506  0.001
C  C20  1  0.09373627  0.58170357  0.21654035  1  -0.131044  0.004499  3.682022  0.007  -0.149274  0.000364  3.927469  0.001  -0.155356  0.000615  3.945875  0.001  -0.078309  -0.145548  0.000295  3.915795  0.001
C  C21  1  0.94282175  0.61945969  0.82460830  1  0.025475  -0.017393  3.738265  -0.012  0.038551  -0.005818  3.980139  -0.004  0.041704  -0.004131  3.996826  -0.003  0.011494  0.035575  -0.007645  3.969461  -0.005
C  C22  1  0.05718976  0.38054801  0.17539287  1  0.025582  -0.0174  3.738079  -0.012  0.038656  -0.005825  3.979914  -0.004  0.04182  -0.004136  3.996575  -0.003  0.011531  0.035673  -0.007655  3.969253  -0.005
C  C23  1  0.14918847  0.78439238  0.91543880  1  -0.137608  0.00475  3.687104  0.007  -0.159449  0.000523  3.938343  0.001  -0.166458  0.000712  3.956535  0.001  -0.077958  -0.154896  0.000499  3.927021  0.001
C  C24  1  0.85080869  0.21561404  0.08456088  1  -0.137701  0.00475  3.687117  0.007  -0.159532  0.000524  3.938328  0.001  -0.166543  0.000712  3.956516  0.001  -0.077964  -0.154979  0.0005  3.927011  0.001
C  C25  1  0.30845886  0.74230364  0.96012313  1  0.118163  -0.015899  3.670865  -0.011  0.088497  -0.004999  3.927664  -0.003  0.098558  -0.003961  3.943662  -0.002  0.046366  0.0812  -0.005945  3.918047  -0.004
C  C26  1  0.69155096  0.25770109  0.03988243  1  0.11814  -0.015883  3.67101  -0.011  0.088407  -0.005002  3.927793  -0.003  0.098468  -0.003962  3.943791  -0.002  0.046313  0.081113  -0.005949  3.918174  -0.004
C  C27  1  0.76486575  0.66109395  0.78957923  1  0.489696  0.000562  3.797587  0.002  0.43906  0.003484  4.088536  0.005  0.468785  0.003005  4.087226  0.005  0.250524  0.418695  0.005548  4.088414  0.008
C  C28  1  0.23513306  0.33890307  0.21042015  1  0.489366  0.00056  3.797715  0.002  0.438824  0.003486  4.088577  0.005  0.468557  0.003006  4.087251  0.005  0.250443  0.418461  0.005551  4.088455  0.008
C  C29  1  0.48112907  0.65033217  0.60621083  1  -0.02274  0.000123  3.633506  0.0  -0.081754  0.000409  3.886505  0.0  -0.07743  0.00017  3.897211  0.0  -0.065202  -0.084667  0.000612  3.878803  0.001
C  C30  1  0.51886348  0.34966335  0.39378522  1  -0.022609  0.000122  3.633317  0.0  -0.081627  0.000407  3.886388  0.0  -0.077305  0.00017  3.897093  0.0  -0.065132  -0.084536  0.000612  3.878674  0.001
C  C31  1  0.71406902  0.54811265  0.51387623  1  -0.020551  -9.1e-05  3.634109  0.0  -0.084347  0.00029  3.892695  0.0  -0.080387  9.3e-05  3.905281  0.0  -0.060603  -0.086955  0.000301  3.88383  0.0
C  C32  1  0.28593246  0.45188404  0.48611215  1  -0.020571  -0.000112  3.634043  0.0  -0.084318  0.000289  3.892628  0.0  -0.080353  9.2e-05  3.905204  0.0  -0.060585  -0.086937  0.000301  3.883781  0.0
C  C33  1  0.67244523  0.86292632  0.29308140  1  0.273425  -0.020011  4.061091  -0.015  0.263991  -0.008467  4.371998  -0.006  0.289485  -0.007475  4.381664  -0.005  0.137526  0.247064  -0.008935  4.365276  -0.006
C  C34  1  0.32754357  0.13705990  0.70691350  1  0.273285  -0.019967  4.06105  -0.015  0.263844  -0.008467  4.371986  -0.006  0.289342  -0.007477  4.381666  -0.005  0.137468  0.246915  -0.008938  4.365252  -0.006
S  S35  1  0.76436761  0.06001957  0.44554336  1  -0.368516  -0.007  2.084407  -0.002  -0.355376  -0.004394  2.396577  -0.002  -0.369007  -0.003805  2.391064  -0.001  -0.165676  -0.34609  -0.004548  2.400615  -0.001
S  S36  1  0.23561892  0.93998251  0.55446006  1  -0.368383  -0.006999  2.084867  -0.002  -0.355237  -0.004396  2.397042  -0.002  -0.368867  -0.003808  2.391531  -0.001  -0.165624  -0.345951  -0.004552  2.401076  -0.001
N  N37  1  0.27284608  0.54759454  0.92193293  1  -0.244242  -0.015501  3.364715  -0.01  -0.199291  -0.010936  3.648339  -0.008  -0.225276  -0.010156  3.666232  -0.008  -0.327576  -0.183051  -0.010392  3.636588  -0.008
N  N38  1  0.72715329  0.45241343  0.07806840  1  -0.244164  -0.015496  3.364526  -0.01  -0.199117  -0.010934  3.648024  -0.008  -0.2251  -0.010154  3.665915  -0.008  -0.327499  -0.182878  -0.010392  3.636276  -0.008
N  N39  1  0.66041334  0.61864603  0.64458293  1  -0.175463  0.007874  3.385744  0.013  -0.085022  0.006351  3.614909  0.011  -0.107114  0.00446  3.637848  0.008  -0.26088  -0.069302  0.008222  3.598502  0.013
N  N40  1  0.33958801  0.38135552  0.35541246  1  -0.175326  0.007877  3.385832  0.013  -0.084999  0.006354  3.615069  0.011  -0.107093  0.004462  3.638003  0.008  -0.260945  -0.069279  0.008223  3.598666  0.013
N  N41  1  0.60333785  0.71643033  0.18132187  1  -0.530136  -0.003104  3.234599  0.002  -0.509044  -0.004388  3.553213  -0.003  -0.533647  -0.004593  3.553038  -0.003  -0.431154  -0.493749  -0.003402  3.552814  -0.002
N  N42  1  0.39666710  0.28357314  0.81869096  1  -0.53008  -0.003131  3.234134  0.002  -0.508994  -0.004388  3.552765  -0.003  -0.533585  -0.004591  3.552561  -0.003  -0.431107  -0.493693  -0.0034  3.552359  -0.002
O  O43  1  0.72000355  0.73400194  0.89876737  1  -0.552878  0.012152  2.011226  0.019  -0.521979  0.010791  2.263837  0.015  -0.54699  0.007724  2.25524  0.011  -0.284455  -0.503192  0.013688  2.268063  0.019
O  O44  1  0.27999999  0.26600102  0.10122448  1  -0.552724  0.01215  2.011037  0.019  -0.521864  0.010788  2.263648  0.015  -0.54689  0.007721  2.255068  0.011  -0.284409  -0.503074  0.013688  2.267866  0.019
