# generated using pymatgen
data_CuAgH12C12N3O7
_symmetry_space_group_name_H-M   'P 1'
_cell_length_a   7.72304784
_cell_length_b   8.41138452
_cell_length_c   13.45217517
_cell_angle_alpha   91.32329632
_cell_angle_beta   97.73835574
_cell_angle_gamma   117.24370484
_symmetry_Int_Tables_number   1
_chemical_formula_structural   CuAgH12C12N3O7
_chemical_formula_sum   'Cu2 Ag2 H24 C24 N6 O14'
_cell_volume   766.28824016
_cell_formula_units_Z   2
loop_
 _symmetry_equiv_pos_site_id
 _symmetry_equiv_pos_as_xyz
  1  'x, y, z'
loop_
 _atom_site_type_symbol
 _atom_site_label
 _atom_site_symmetry_multiplicity
 _atom_site_fract_x
 _atom_site_fract_y
 _atom_site_fract_z
 _atom_site_occupancy
 _atom_site_hle17_ddec_charge
 _atom_site_hle17_ddec_spin_density
 _atom_site_hle17_ddec_sum_bond_order
 _atom_site_hle17_magmom
 _atom_site_hse06_10hf_ddec_charge
 _atom_site_hse06_10hf_ddec_spin_density
 _atom_site_hse06_10hf_ddec_sum_bond_order
 _atom_site_hse06_10hf_magmom
 _atom_site_hse06_ddec_charge
 _atom_site_hse06_ddec_spin_density
 _atom_site_hse06_ddec_sum_bond_order
 _atom_site_hse06_magmom
 _atom_site_pbe_cm5_charge
 _atom_site_pbe_ddec_charge
 _atom_site_pbe_ddec_spin_density
 _atom_site_pbe_ddec_sum_bond_order
 _atom_site_pbe_magmom
Cu  Cu0  1  0.39755125  0.94072119  0.66716361  1  0.93972  -0.677707  1.777204  -0.503  0.936172  -0.776713  2.171482  -0.626  1.027617  -0.848501  2.104395  -0.723  0.711608  0.875143  -0.724142  2.227801  -0.563
Cu  Cu1  1  0.60244628  0.05927718  0.33283407  1  0.939705  -0.677707  1.777214  -0.503  0.936163  -0.77671  2.171471  -0.626  1.027608  -0.8485  2.104387  -0.723  0.71157  0.875069  -0.724141  2.227877  -0.563
Ag  Ag2  1  0.41751567  0.40039091  0.18214923  1  0.6691  -0.001374  1.490101  -0.001  0.547529  -0.00054  1.946633  0.0  0.56981  -0.000118  1.900762  0.0  0.548569  0.532487  -0.001418  1.978448  -0.001
Ag  Ag3  1  0.58248989  0.59961552  0.81784695  1  0.669033  -0.001367  1.48985  -0.001  0.547438  -0.00054  1.946354  0.0  0.569722  -0.000117  1.900476  0.0  0.548533  0.532392  -0.001416  1.978174  -0.001
H  H4  1  0.89756046  0.99804627  0.74922844  1  0.149913  0.000519  0.953123  0.001  0.165275  7e-06  1.016807  0.0  0.169278  2.9e-05  1.013758  0.0  0.099376  0.162327  -4.2e-05  1.019041  0.0
H  H5  1  0.10242974  0.00194539  0.25077527  1  0.149883  0.000519  0.953163  0.001  0.165253  7e-06  1.016844  0.0  0.169258  2.9e-05  1.013791  0.0  0.099353  0.162296  -4.2e-05  1.019089  0.0
H  H6  1  0.96588197  0.96629804  0.87663873  1  0.139707  -0.000497  0.938185  -0.001  0.158209  -0.000697  1.001043  -0.001  0.159974  -0.000482  1.000874  -0.001  0.100471  0.156763  -0.000885  1.001381  -0.001
H  H7  1  0.03412000  0.03369364  0.12336514  1  0.139675  -0.000498  0.938163  -0.001  0.158172  -0.000697  1.001033  -0.001  0.159937  -0.000482  1.000864  -0.001  0.100458  0.156729  -0.000885  1.001367  -0.001
H  H8  1  0.03540908  0.18693206  0.84159475  1  0.153896  0.000499  0.962771  0.0  0.172443  0.00025  1.021162  0.0  0.174518  0.000318  1.020979  0.0  0.103779  0.17087  0.000177  1.021366  0.0
H  H9  1  0.96458834  0.81306095  0.15840954  1  0.15384  0.000498  0.962797  0.0  0.172402  0.00025  1.021174  0.0  0.17448  0.000318  1.020991  0.0  0.103754  0.170832  0.000177  1.021377  0.0
H  H10  1  0.87603934  0.33014586  0.90404156  1  0.155538  0.000783  0.954117  0.001  0.170557  0.000177  1.015975  0.0  0.174395  0.000143  1.012929  0.0  0.102266  0.16761  0.000183  1.01835  0.0
H  H11  1  0.12395613  0.66984848  0.09595665  1  0.155511  0.000783  0.954062  0.001  0.170456  0.000177  1.015994  0.0  0.174291  0.000143  1.012953  0.0  0.102251  0.167513  0.000183  1.018371  0.0
H  H12  1  0.72621187  0.37222653  0.98033272  1  0.137818  -0.000223  0.970658  0.0  0.151385  -0.000316  1.038319  0.0  0.153261  -0.000171  1.038052  0.0  0.096898  0.149916  -0.00043  1.038679  -0.001
H  H13  1  0.27378560  0.62776915  0.01966567  1  0.137758  -0.000223  0.97068  0.0  0.151328  -0.000316  1.038331  0.0  0.153202  -0.000171  1.038066  0.0  0.09688  0.149861  -0.00043  1.038692  -0.001
H  H14  1  0.75226964  0.17416254  0.98928114  1  0.145147  0.000156  0.92207  0.0  0.165563  -0.000142  0.977952  0.0  0.166944  -5.9e-05  0.97922  0.0  0.101994  0.164413  -0.000224  0.977251  0.0
H  H15  1  0.24772385  0.82583045  0.01071690  1  0.14508  0.000155  0.922168  0.0  0.165499  -0.000142  0.978036  0.0  0.166878  -5.9e-05  0.979306  0.0  0.101987  0.164351  -0.000224  0.977337  0.0
H  H16  1  0.95101345  0.67115529  0.39530076  1  0.143208  0.000497  0.934119  0.0  0.167154  3.1e-05  0.984271  0.0  0.169829  2.8e-05  0.983334  0.0  0.102815  0.165167  2.1e-05  0.985074  0.0
H  H17  1  0.04898477  0.32884442  0.60469997  1  0.143235  0.000494  0.934107  0.0  0.167175  3.1e-05  0.98426  0.0  0.16985  2.8e-05  0.983325  0.0  0.102822  0.165189  2e-05  0.985062  0.0
H  H18  1  0.12534557  0.69579630  0.31392671  1  0.156076  0.000162  0.935493  0.0  0.174435  -5e-05  0.995723  0.0  0.177108  3.3e-05  0.995609  0.0  0.109103  0.172433  -0.000118  0.995959  0.0
H  H19  1  0.87465003  0.30420341  0.68607158  1  0.156092  0.00016  0.935465  0.0  0.174458  -5e-05  0.995684  0.0  0.177132  3.3e-05  0.995569  0.0  0.109104  0.172456  -0.000118  0.995919  0.0
H  H20  1  0.02085185  0.49827119  0.37612606  1  0.150576  5.9e-05  0.932356  0.0  0.168863  -0.00015  0.99106  0.0  0.17054  -6.6e-05  0.991912  0.0  0.106077  0.167467  -0.000221  0.990683  0.0
H  H21  1  0.97914768  0.50172853  0.62387551  1  0.150538  5.8e-05  0.932398  0.0  0.16883  -0.00015  0.9911  0.0  0.170507  -6.6e-05  0.991951  0.0  0.106065  0.167434  -0.000221  0.990722  0.0
H  H22  1  0.88280255  0.83655283  0.59415731  1  0.159812  0.000419  0.94047  0.001  0.177695  -5e-06  0.997828  0.0  0.18192  3e-05  0.994988  0.0  0.105032  0.174625  -5.9e-05  0.999882  0.0
H  H23  1  0.11719766  0.16344824  0.40584507  1  0.159822  0.000423  0.940483  0.001  0.177707  -5e-06  0.997836  0.0  0.181932  2.9e-05  0.994996  0.0  0.105044  0.174634  -5.9e-05  0.999893  0.0
H  H24  1  0.73481649  0.65263972  0.49960758  1  0.122945  -0.00038  0.966216  0.0  0.142757  -0.000494  1.027162  0.0  0.143497  -0.000343  1.029033  0.0  0.094092  0.14208  -0.000614  1.026057  -0.001
H  H25  1  0.26518372  0.34736134  0.50039481  1  0.122919  -0.00038  0.966233  0.0  0.142728  -0.000494  1.027178  0.0  0.143467  -0.000343  1.029051  0.0  0.094073  0.142054  -0.000615  1.026071  -0.001
H  H26  1  0.83509643  0.87545101  0.46574042  1  0.150822  0.000593  0.939812  0.0  0.16994  0.000286  1.001377  0.0  0.172723  0.000312  1.000267  0.0  0.10679  0.167834  0.000254  1.002318  0.0
H  H27  1  0.16490248  0.12455005  0.53426112  1  0.1508  0.000593  0.939836  0.0  0.169938  0.000286  1.001366  0.0  0.17272  0.000312  1.000257  0.0  0.106794  0.167831  0.000254  1.002309  0.0
C  C28  1  0.01342799  0.05334076  0.81545691  1  -0.430871  -0.012602  3.639786  -0.014  -0.508618  -0.0075  3.868529  -0.009  -0.517138  -0.004697  3.871813  -0.006  -0.24684  -0.502356  -0.009732  3.866318  -0.011
C  C29  1  0.98657204  0.94665225  0.18454609  1  -0.430764  -0.012599  3.639705  -0.014  -0.508502  -0.0075  3.868463  -0.009  -0.517015  -0.004697  3.87173  -0.006  -0.246771  -0.502238  -0.009732  3.866269  -0.011
C  C30  1  0.20224101  0.06444213  0.79216328  1  0.534931  0.009999  3.698395  0.009  0.51715  0.002568  3.974497  0.003  0.549535  0.003422  3.97618  0.003  0.15321  0.495032  0.001164  3.972677  0.002
C  C31  1  0.79775646  0.93555356  0.20783510  1  0.53502  0.010003  3.698184  0.009  0.517139  0.002567  3.974421  0.003  0.549519  0.003423  3.976107  0.003  0.1532  0.495022  0.001165  3.9726  0.002
C  C32  1  0.37428911  0.14166976  0.86895058  1  -0.370914  -0.006609  3.832552  -0.01  -0.36515  -0.002929  4.096864  -0.005  -0.392492  -0.001039  4.117988  -0.003  -0.058379  -0.346844  -0.004605  4.082648  -0.007
C  C33  1  0.62570643  0.85832726  0.13104767  1  -0.370912  -0.006611  3.832326  -0.01  -0.365038  -0.00293  4.096621  -0.005  -0.392378  -0.001041  4.117746  -0.003  -0.058382  -0.346727  -0.004605  4.082394  -0.007
C  C34  1  0.56586593  0.16624195  0.85534966  1  0.516985  0.010312  3.712754  0.009  0.498728  0.003148  3.991072  0.003  0.530604  0.00394  3.993983  0.003  0.148004  0.477141  0.002  3.988159  0.003
C  C35  1  0.43413029  0.83375642  0.14464791  1  0.516982  0.010312  3.712862  0.009  0.498642  0.003149  3.991256  0.003  0.530515  0.00394  3.994171  0.003  0.148003  0.477054  0.002  3.988339  0.003
C  C36  1  0.73987663  0.26816876  0.93652100  1  -0.42814  -0.012867  3.64656  -0.014  -0.502558  -0.00758  3.875983  -0.009  -0.510963  -0.00479  3.879616  -0.006  -0.246956  -0.496471  -0.009765  3.873688  -0.011
C  C37  1  0.26011959  0.73182960  0.06347584  1  -0.427942  -0.012869  3.646579  -0.014  -0.502265  -0.007581  3.876012  -0.009  -0.510667  -0.004789  3.879651  -0.006  -0.246901  -0.496183  -0.009765  3.87372  -0.011
C  C38  1  0.35684934  0.20806122  0.96190455  1  0.367004  0.003849  3.820799  0.003  0.35438  0.001226  4.080087  0.001  0.371619  0.00099  4.101863  0.001  0.207727  0.342311  0.001322  4.066086  0.001
C  C39  1  0.64315410  0.79193848  0.03808617  1  0.36668  0.003788  3.821393  0.003  0.35402  0.001226  4.080672  0.001  0.371252  0.000986  4.102445  0.001  0.207664  0.341954  0.001321  4.066675  0.001
C  C40  1  0.07306584  0.64420415  0.38431280  1  -0.420003  -0.010636  3.621715  -0.012  -0.494776  -0.006343  3.844445  -0.008  -0.503531  -0.004166  3.849292  -0.005  -0.243369  -0.488543  -0.008069  3.8413  -0.009
C  C41  1  0.92693637  0.35579826  0.61568753  1  -0.41997  -0.01063  3.621679  -0.012  -0.494776  -0.006343  3.844446  -0.008  -0.503529  -0.004165  3.849291  -0.005  -0.243385  -0.488545  -0.00807  3.841299  -0.009
C  C42  1  0.23844712  0.73129481  0.47131738  1  0.527011  0.010306  3.706719  0.009  0.506761  0.003998  3.984671  0.003  0.538092  0.004367  3.987169  0.003  0.149985  0.485454  0.003565  3.981955  0.003
C  C43  1  0.76155446  0.26870893  0.52868068  1  0.526838  0.010306  3.706828  0.009  0.506616  0.003998  3.984765  0.003  0.537944  0.004366  3.987274  0.003  0.149992  0.485311  0.003564  3.982042  0.003
C  C44  1  0.41699158  0.71870793  0.46832480  1  -0.385136  -0.003791  3.848287  -0.007  -0.383304  -0.00094  4.128231  -0.004  -0.409033  0.000511  4.146337  -0.002  -0.062348  -0.365673  -0.002347  4.115351  -0.006
C  C45  1  0.58301205  0.28129984  0.53167274  1  -0.384968  -0.003793  3.848093  -0.007  -0.383114  -0.00094  4.127977  -0.004  -0.408846  0.000509  4.1461  -0.002  -0.062307  -0.365489  -0.002347  4.115094  -0.006
C  C46  1  0.59153130  0.80407644  0.54311259  1  0.519004  0.010357  3.723104  0.009  0.497266  0.003999  4.004688  0.003  0.528164  0.004447  4.007571  0.003  0.147077  0.476291  0.003476  4.001768  0.003
C  C47  1  0.40847159  0.19592730  0.45688707  1  0.518853  0.010362  3.723296  0.009  0.497083  0.003999  4.004937  0.003  0.527982  0.004447  4.007821  0.003  0.146993  0.476109  0.003475  4.002012  0.003
C  C48  1  0.77214105  0.79075667  0.52578944  1  -0.426079  -0.010613  3.646493  -0.012  -0.505206  -0.00636  3.876925  -0.008  -0.513247  -0.004126  3.880274  -0.005  -0.24536  -0.499399  -0.008144  3.874719  -0.009
C  C49  1  0.22785854  0.20924573  0.47421217  1  -0.426034  -0.010619  3.646544  -0.012  -0.505153  -0.00636  3.876965  -0.008  -0.51319  -0.004127  3.880314  -0.005  -0.245362  -0.499346  -0.008145  3.87476  -0.009
C  C50  1  0.42243663  0.62138354  0.38347452  1  0.356694  0.003367  3.839665  0.002  0.33543  0.001483  4.1121  0.001  0.351727  0.001308  4.132994  0.0  0.203453  0.324107  0.001538  4.098389  0.001
C  C51  1  0.57756974  0.37862962  0.61652851  1  0.356731  0.003313  3.840005  0.002  0.335449  0.001485  4.112432  0.001  0.351741  0.0013  4.133328  0.0  0.203531  0.324128  0.001537  4.098719  0.001
N  N52  1  0.34392765  0.26309251  0.03974779  1  -0.460072  -0.002603  2.992294  -0.003  -0.408216  -0.000816  3.301227  -0.001  -0.427245  -0.000182  3.304351  0.0  -0.372579  -0.395884  -0.001519  3.299757  -0.002
N  N53  1  0.65608333  0.73692200  0.96025486  1  -0.459711  -0.002559  2.992921  -0.003  -0.407811  -0.000815  3.301763  -0.001  -0.426831  -0.000178  3.304873  0.0  -0.372439  -0.395487  -0.001517  3.300314  -0.002
N  N54  1  0.42176293  0.53771857  0.31271153  1  -0.448114  -0.001499  3.00767  -0.002  -0.391702  -0.000273  3.325302  -0.001  -0.408663  0.000185  3.327724  0.0  -0.370436  -0.38073  -0.000825  3.324296  -0.001
N  N55  1  0.57824045  0.46227845  0.68728287  1  -0.448107  -0.001459  3.008295  -0.002  -0.39168  -0.000274  3.325918  -0.001  -0.408639  0.000191  3.328339  0.0  -0.370457  -0.380707  -0.000824  3.324908  -0.001
N  N56  1  0.81372884  0.38690728  0.18881676  1  0.701209  0.000252  4.142615  0.0  0.750066  0.000188  4.405257  0.0  0.77881  0.000165  4.411297  0.0  0.094362  0.730635  0.000183  4.400187  0.0
N  N57  1  0.18627996  0.61309783  0.81118709  1  0.701142  0.000255  4.142597  0.0  0.750073  0.000189  4.405151  0.0  0.778812  0.000164  4.411199  0.0  0.094385  0.730641  0.000183  4.400085  0.0
O  O58  1  0.20213530  0.00727974  0.70393372  1  -0.513079  -0.083922  2.115223  -0.115  -0.486587  -0.055068  2.394954  -0.083  -0.528127  -0.040322  2.386971  -0.067  -0.286926  -0.458771  -0.064534  2.400536  -0.092
O  O59  1  0.79785825  0.99271594  0.29606436  1  -0.513146  -0.083932  2.115152  -0.115  -0.48665  -0.055071  2.394961  -0.083  -0.528199  -0.040323  2.386997  -0.067  -0.286955  -0.458819  -0.064536  2.400551  -0.092
O  O60  1  0.59786278  0.10436718  0.77666200  1  -0.504533  -0.087194  2.10496  -0.119  -0.473042  -0.056876  2.379286  -0.086  -0.515689  -0.041658  2.374187  -0.069  -0.284847  -0.44449  -0.066615  2.382838  -0.095
O  O61  1  0.40213475  0.89563118  0.22333493  1  -0.50456  -0.087197  2.104905  -0.119  -0.473044  -0.056879  2.379259  -0.086  -0.515683  -0.041659  2.37415  -0.069  -0.284858  -0.444476  -0.066616  2.382813  -0.095
O  O62  1  0.21268097  0.81346593  0.54353932  1  -0.511448  -0.070379  2.104175  -0.097  -0.473002  -0.047266  2.375281  -0.071  -0.511093  -0.035567  2.367308  -0.059  -0.285257  -0.4471  -0.054906  2.380607  -0.078
O  O63  1  0.78731718  0.18653111  0.45646062  1  -0.511417  -0.070375  2.104183  -0.097  -0.472954  -0.047263  2.375233  -0.071  -0.511034  -0.035564  2.367249  -0.059  -0.285266  -0.447039  -0.054904  2.380562  -0.078
O  O64  1  0.60431265  0.89609785  0.62229453  1  -0.506074  -0.07153  2.108628  -0.098  -0.466032  -0.048501  2.379113  -0.073  -0.503623  -0.036497  2.370531  -0.06  -0.280599  -0.440667  -0.056356  2.385178  -0.08
O  O65  1  0.39568357  0.10390052  0.37770602  1  -0.506029  -0.071528  2.10868  -0.098  -0.46598  -0.048499  2.37917  -0.073  -0.503573  -0.036495  2.370596  -0.06  -0.280568  -0.440598  -0.056355  2.385231  -0.08
O  O66  1  0.67674925  0.30188324  0.24208627  1  -0.557201  0.001861  1.891156  0.0  -0.55733  0.001731  2.166057  0.0  -0.579355  0.002065  2.152325  0.001  -0.235296  -0.540986  0.001287  2.175319  0.0
O  O67  1  0.32326161  0.69812590  0.75792002  1  -0.557171  0.001873  1.891167  0.0  -0.557295  0.001728  2.166017  0.0  -0.579322  0.002074  2.152287  0.001  -0.235286  -0.540966  0.001287  2.175283  0.0
O  O68  1  0.94542914  0.34182982  0.18253549  1  -0.447672  0.000162  1.733194  0.0  -0.443856  0.000148  1.938087  0.0  -0.456265  0.000146  1.932662  0.0  -0.182435  -0.434754  0.00016  1.941378  0.0
O  O69  1  0.05457699  0.65817260  0.81746886  1  -0.447602  0.000163  1.733128  0.0  -0.443809  0.000148  1.937999  0.0  -0.456219  0.000143  1.932578  0.0  -0.182428  -0.434705  0.00016  1.94129  0.0
O  O70  1  0.80758997  0.51586022  0.14434729  1  -0.487778  0.000292  1.793466  0.0  -0.468397  0.000317  2.002598  0.0  -0.483535  0.000349  1.995784  0.0  -0.191056  -0.457452  0.000241  2.007079  0.0
O  O71  1  0.19241348  0.48413951  0.85565459  1  -0.487806  0.000272  1.793466  0.0  -0.468476  0.000318  2.002585  0.0  -0.483594  0.000343  1.995746  0.0  -0.191097  -0.457524  0.000241  2.007058  0.0
