# generated using pymatgen
data_PrH12C12NO6
_symmetry_space_group_name_H-M   'P 1'
_cell_length_a   7.75498368
_cell_length_b   9.60722147
_cell_length_c   11.43706110
_cell_angle_alpha   95.59440884
_cell_angle_beta   105.48206596
_cell_angle_gamma   103.57574415
_symmetry_Int_Tables_number   1
_chemical_formula_structural   PrH12C12NO6
_chemical_formula_sum   'Pr2 H24 C24 N2 O12'
_cell_volume   786.49168501
_cell_formula_units_Z   2
loop_
 _symmetry_equiv_pos_site_id
 _symmetry_equiv_pos_as_xyz
  1  'x, y, z'
loop_
 _atom_site_type_symbol
 _atom_site_label
 _atom_site_symmetry_multiplicity
 _atom_site_fract_x
 _atom_site_fract_y
 _atom_site_fract_z
 _atom_site_occupancy
 _atom_site_pbe_bader_spin_density
 _atom_site_pbe_cm5_charge
 _atom_site_pbe_ddec_charge
 _atom_site_pbe_ddec_spin_density
 _atom_site_pbe_ddec_sum_bond_order
 _atom_site_pbe_magmom
Pr  Pr0  1  0.29015435  0.58409090  0.52112724  1  0  1.494081  2.058259  0  2.167342  0
Pr  Pr1  1  0.70984311  0.41590923  0.47887147  1  0  1.494075  2.058264  0  2.167274  0
H  H2  1  0.04179346  0.73212533  0.69291212  1  0  0.121615  0.082102  0  1.054072  0
H  H3  1  0.95819768  0.26787596  0.30708900  1  0  0.121615  0.082104  0  1.053897  0
H  H4  1  0.95570369  0.95575758  0.75990492  1  0  0.109787  0.113189  0  0.996553  0
H  H5  1  0.04429381  0.04424276  0.24009907  1  0  0.109783  0.113165  0  0.996555  0
H  H6  1  0.08584992  0.18745050  0.69058455  1  0  0.113106  0.113435  0  1.040796  0
H  H7  1  0.91414488  0.81254974  0.30941718  1  0  0.113146  0.113487  0  1.040826  0
H  H8  1  0.36648323  0.95162068  0.49975207  1  0  0.126199  0.094881  0  1.027855  0
H  H9  1  0.63351418  0.04837539  0.50025341  1  0  0.126216  0.094903  0  1.02784  0
H  H10  1  0.71840923  0.58491219  0.19971100  1  0  0.112664  0.132064  0  0.977961  0
H  H11  1  0.28159503  0.41509223  0.80028657  1  0  0.112656  0.13205  0  0.978002  0
H  H12  1  0.77348859  0.43197437  0.14238850  1  0  0.108201  0.126554  0  0.972398  0
H  H13  1  0.22651423  0.56802578  0.85761032  1  0  0.108193  0.126535  0  0.97247  0
H  H14  1  0.01355517  0.60155861  0.06293615  1  0  0.089839  0.08418  0  1.002122  0
H  H15  1  0.98645410  0.39844477  0.93706229  1  0  0.089863  0.084227  0  1.002145  0
H  H16  1  0.93134712  0.74683099  0.10791803  1  0  0.090295  0.08457  0  0.987432  0
H  H17  1  0.06865434  0.25316903  0.89207792  1  0  0.090296  0.084599  0  0.987417  0
H  H18  1  0.68463824  0.46974311  0.92682756  1  0  0.091931  0.083484  0  0.975969  0
H  H19  1  0.31536751  0.53025377  0.07317076  1  0  0.091937  0.083504  0  0.97593  0
H  H20  1  0.61161256  0.62347879  0.96775916  1  0  0.094163  0.090908  0  0.985232  0
H  H21  1  0.38839284  0.37651705  0.03223991  1  0  0.094121  0.090833  0  0.985307  0
H  H22  1  0.84112202  0.77644737  0.87988227  1  0  0.103522  0.115702  0  0.970046  0
H  H23  1  0.15888816  0.22355078  0.12012042  1  0  0.103515  0.115693  0  0.970129  0
H  H24  1  0.90068162  0.61755900  0.83012831  1  0  0.100523  0.111881  0  1.007541  0
H  H25  1  0.09931435  0.38243658  0.16986464  1  0  0.10055  0.111915  0  1.007551  0
C  C26  1  0.09620140  0.83534821  0.66654643  1  0  0.057384  0.109267  0  3.956844  0
C  C27  1  0.90378954  0.16464452  0.33345681  1  0  0.057407  0.109299  0  3.956965  0
C  C28  1  0.05019982  0.96023244  0.70406463  1  0  -0.086036  -0.137669  0  3.989222  0
C  C29  1  0.94979582  0.03977434  0.29593849  1  0  -0.086013  -0.137619  0  3.989303  0
C  C30  1  0.12329473  0.08881368  0.66652113  1  0  -0.059982  -0.038923  0  3.928846  0
C  C31  1  0.87670631  0.91118117  0.33348058  1  0  -0.060043  -0.039012  0  3.928646  0
C  C32  1  0.24317280  0.08916464  0.59450107  1  0  -0.009988  -0.08176  0  3.927222  0
C  C33  1  0.75681799  0.91083564  0.40550167  1  0  -0.010036  -0.0818  0  3.927154  0
C  C34  1  0.27867701  0.95755695  0.55910324  1  0  0.067347  0.100744  0  3.904942  0
C  C35  1  0.72132000  0.04243790  0.44089861  1  0  0.06733  0.100717  0  3.905148  0
C  C36  1  0.33036699  0.22678531  0.55513373  1  0  0.232683  0.637432  0  4.17462  0
C  C37  1  0.66963694  0.77320608  0.44486220  1  0  0.232693  0.637286  0  4.17503  0
C  C38  1  0.98483986  0.57056041  0.29458853  1  0  0.208906  0.647778  0  4.161095  0
C  C39  1  0.01515956  0.42943761  0.70541130  1  0  0.208909  0.647773  0  4.161128  0
C  C40  1  0.83182887  0.54976862  0.17538618  1  0  -0.160151  -0.315628  0  3.938166  0
C  C41  1  0.16817772  0.45023474  0.82461176  1  0  -0.160108  -0.31557  0  3.938222  0
C  C42  1  0.88909230  0.62844054  0.07651990  1  0  -0.16535  -0.125458  0  3.962474  0
C  C43  1  0.11091149  0.37155846  0.92347729  1  0  -0.165439  -0.12563  0  3.962553  0
C  C44  1  0.73204718  0.58891105  0.95522410  1  0  -0.160588  -0.124348  0  3.93828  0
C  C45  1  0.26795758  0.41108684  0.04477233  1  0  -0.16056  -0.124242  0  3.938245  0
C  C46  1  0.78910615  0.65763510  0.85102049  1  0  -0.15625  -0.284268  0  3.89521  0
C  C47  1  0.21089460  0.34236283  0.14897696  1  0  -0.156274  -0.284358  0  3.895289  0
C  C48  1  0.62516237  0.62696656  0.73615992  1  0  0.216566  0.678754  0  4.109247  0
C  C49  1  0.37484384  0.37303571  0.26383790  1  0  0.21672  0.678938  0  4.109105  0
N  N50  1  0.20653176  0.83242212  0.59351477  1  0  -0.362892  -0.334364  0  3.447598  0
N  N51  1  0.79346269  0.16757707  0.40648772  1  0  -0.362896  -0.334366  0  3.44772  0
O  O52  1  0.95638711  0.48462012  0.37270127  1  0  -0.446991  -0.754826  0  2.382567  0
O  O53  1  0.04361535  0.51537894  0.62729743  1  0  -0.447001  -0.754817  0  2.38248  0
O  O54  1  0.13744258  0.66642417  0.31844827  1  0  -0.351727  -0.592338  0  2.145037  0
O  O55  1  0.86255903  0.33358044  0.68155408  1  0  -0.351716  -0.592319  0  2.145135  0
O  O56  1  0.62705859  0.55355275  0.63643756  1  0  -0.437171  -0.747537  0  2.385431  0
O  O57  1  0.37293943  0.44645703  0.36355917  1  0  -0.43723  -0.747635  0  2.385356  0
O  O58  1  0.48608874  0.67280380  0.74060228  1  0  -0.379815  -0.627053  0  2.152732  0
O  O59  1  0.51390760  0.32720501  0.25939758  1  0  -0.379902  -0.627094  0  2.152819  0
O  O60  1  0.46332193  0.22489847  0.51011451  1  0  -0.385009  -0.645177  0  2.274867  0
O  O61  1  0.53666825  0.77510400  0.48988912  1  0  -0.385088  -0.645144  0  2.274226  0
O  O62  1  0.26533262  0.33472494  0.57087031  1  0  -0.376832  -0.655842  0  2.29436  0
O  O63  1  0.73465898  0.66528177  0.42913119  1  0  -0.376748  -0.655682  0  2.295279  0
