# generated using pymatgen
data_MnH32C54S2(N5O4)2
_symmetry_space_group_name_H-M   'P 1'
_cell_length_a   13.24301920
_cell_length_b   15.58016763
_cell_length_c   15.62791826
_cell_angle_alpha   102.14097749
_cell_angle_beta   115.08129805
_cell_angle_gamma   90.02669912
_symmetry_Int_Tables_number   1
_chemical_formula_structural   MnH32C54S2(N5O4)2
_chemical_formula_sum   'Mn2 H64 C108 S4 N20 O16'
_cell_volume   2840.45527368
_cell_formula_units_Z   2
loop_
 _symmetry_equiv_pos_site_id
 _symmetry_equiv_pos_as_xyz
  1  'x, y, z'
loop_
 _atom_site_type_symbol
 _atom_site_label
 _atom_site_symmetry_multiplicity
 _atom_site_fract_x
 _atom_site_fract_y
 _atom_site_fract_z
 _atom_site_occupancy
 _atom_site_pbe_bader_charge
 _atom_site_pbe_bader_spin_density
 _atom_site_pbe_cm5_charge
 _atom_site_pbe_ddec_charge
 _atom_site_pbe_ddec_spin_density
 _atom_site_pbe_ddec_sum_bond_order
 _atom_site_pbe_magmom
Mn  Mn0  1  0.22987469  0.24982139  0.99994040  1  1.54531  -4.098986  0.7265  0.796001  -4.335883  2.879032  -4.049
Mn  Mn1  1  0.77013193  0.75017497  0.00005937  1  1.54534  4.098648  0.726605  0.795947  4.335585  2.879448  4.049
H  H2  1  0.05880796  0.17086667  0.06087696  1  0.170858  -0.001273  0.119449  0.10077  -0.000777  1.043812  0.0
H  H3  1  0.99804259  0.32913693  0.93911361  1  0.158589  -0.001289  0.119118  0.100314  -0.000783  1.0448  0.0
H  H4  1  0.94121684  0.82913223  0.93913544  1  0.170872  0.001272  0.11947  0.100739  0.000777  1.043985  0.0
H  H5  1  0.00196896  0.67086602  0.06088862  1  0.159  0.001287  0.119123  0.100339  0.000782  1.044824  0.0
H  H6  1  0.65189219  0.39584329  0.16963289  1  0.096892  -0.000613  0.112757  0.125649  -0.000344  1.00728  0.0
H  H7  1  0.48230853  0.10390393  0.83032226  1  0.091648  -0.000623  0.112975  0.125725  -0.000349  1.00655  0.0
H  H8  1  0.34810758  0.60416114  0.83034947  1  0.096961  0.000615  0.112738  0.125602  0.000345  1.00722  0.0
H  H9  1  0.51769154  0.89607530  0.16967036  1  0.091489  0.000624  0.113058  0.125912  0.000349  1.00645  0.0
H  H10  1  0.78542669  0.92566888  0.85395644  1  0.11331  0.000228  0.115591  0.105717  -8.9e-05  1.021424  0.0
H  H11  1  0.93159886  0.57420576  0.14587480  1  0.125118  0.000227  0.115762  0.1052  -8.6e-05  1.021676  0.0
H  H12  1  0.21458713  0.07434786  0.14605820  1  0.113386  -0.000228  0.115571  0.105658  8.9e-05  1.021555  0.0
H  H13  1  0.06838538  0.42577483  0.85411221  1  0.124614  -0.000228  0.115749  0.105238  8.6e-05  1.021717  0.0
H  H14  1  0.70487615  0.00402517  0.79131539  1  0.140115  -0.000291  0.12467  0.122337  -0.000194  0.967508  0.0
H  H15  1  0.91372929  0.49570172  0.20841273  1  0.145766  -0.000283  0.124608  0.122084  -0.00019  0.967776  0.0
H  H16  1  0.29514132  0.99599084  0.20870696  1  0.140302  0.000292  0.12466  0.122405  0.000194  0.967322  0.0
H  H17  1  0.08626221  0.50428617  0.79157167  1  0.145704  0.000284  0.124613  0.122178  0.000191  0.967816  0.0
H  H18  1  0.40303796  0.57695370  0.07557262  1  0.1244  -0.000481  0.111786  0.132374  -0.000259  0.996417  0.0
H  H19  1  0.32759665  0.92247604  0.92422033  1  0.133401  -0.000493  0.111572  0.13193  -0.000267  0.99735  0.0
H  H20  1  0.59699236  0.42303856  0.92444441  1  0.124298  0.000483  0.111762  0.132316  0.00026  0.99632  0.0
H  H21  1  0.67244116  0.07751912  0.07576544  1  0.134392  0.000494  0.111544  0.131969  0.000267  0.997073  0.0
H  H22  1  0.88891087  0.06502332  0.99197696  1  0.080464  -0.000587  0.110473  0.122326  -0.000357  0.984183  0.0
H  H23  1  0.89724599  0.43512821  0.00793043  1  0.074176  -0.000596  0.110762  0.122644  -0.000365  0.983371  0.0
H  H24  1  0.11111517  0.93496575  0.00802540  1  0.08086  0.000587  0.110484  0.122317  0.000358  0.98402  0.0
H  H25  1  0.10277637  0.56488128  0.99208094  1  0.074054  0.000597  0.110747  0.122652  0.000366  0.983239  0.0
H  H26  1  0.48874359  0.84704061  0.29165778  1  0.143667  0.000216  0.114126  0.11983  0.000107  0.990151  0.0
H  H27  1  0.19687349  0.65283349  0.70812116  1  0.113165  0.000239  0.114556  0.119758  0.000108  0.990213  0.0
H  H28  1  0.51124873  0.15295571  0.70834604  1  0.143723  -0.000214  0.114107  0.119843  -0.000106  0.990121  0.0
H  H29  1  0.80313546  0.34717082  0.29187700  1  0.113347  -0.000238  0.114507  0.119662  -0.000107  0.99035  0.0
H  H30  1  0.49710559  0.27666933  0.10799369  1  0.137231  -0.001434  0.11688  0.089114  -0.000917  1.029186  0.0
H  H31  1  0.38885238  0.22283485  0.89172685  1  0.107381  -0.001462  0.116751  0.088218  -0.000928  1.030114  0.0
H  H32  1  0.50291366  0.72332569  0.89200851  1  0.137276  0.001434  0.116896  0.089119  0.000916  1.029198  0.0
H  H33  1  0.61113467  0.77715174  0.10825460  1  0.107229  0.001461  0.116756  0.088265  0.000927  1.030249  0.0
H  H34  1  0.25617452  0.44820523  0.01371198  1  0.077805  -0.001669  0.115946  0.078497  -0.00088  1.01738  0.0
H  H35  1  0.24218602  0.05099059  0.98574218  1  0.077899  -0.001661  0.115747  0.07779  -0.000885  1.016587  0.0
H  H36  1  0.74383834  0.55179697  0.98630227  1  0.077487  0.001668  0.115858  0.078376  0.000879  1.017394  0.0
H  H37  1  0.75782423  0.94899064  0.01424839  1  0.077745  0.001662  0.115712  0.077766  0.000884  1.016607  0.0
H  H38  1  0.90513962  0.02005350  0.71567009  1  0.073038  -0.000638  0.111516  0.12168  -0.000379  0.99195  0.0
H  H39  1  0.18984636  0.48009309  0.28428194  1  0.073141  -0.000646  0.11163  0.122182  -0.000385  0.992561  0.0
H  H40  1  0.09483060  0.97998051  0.28433498  1  0.073322  0.000638  0.111527  0.121662  0.000379  0.991857  0.0
H  H41  1  0.81010777  0.51988875  0.71571347  1  0.072312  0.000646  0.111543  0.122209  0.000385  0.992354  0.0
H  H42  1  0.07353276  0.12802529  0.79502837  1  0.112997  -0.001152  0.111952  0.07699  -0.000491  1.043148  0.0
H  H43  1  0.27865406  0.37194229  0.20501743  1  0.119139  -0.001155  0.111505  0.076256  -0.000492  1.043801  0.0
H  H44  1  0.92644341  0.87200219  0.20496512  1  0.112734  0.001151  0.111893  0.076962  0.000489  1.043121  0.0
H  H45  1  0.72132635  0.62804196  0.79500702  1  0.1191  0.001153  0.111641  0.076374  0.000491  1.043637  0.0
H  H46  1  0.71069928  0.54667150  0.17428555  1  0.090789  6e-06  0.115903  0.10453  -3.9e-05  0.990648  0.0
H  H47  1  0.53671140  0.95323121  0.82582342  1  0.099907  7e-06  0.115595  0.104426  -4e-05  0.991243  0.0
H  H48  1  0.28931005  0.45333470  0.82572405  1  0.090288  -6e-06  0.115921  0.104641  3.9e-05  0.990526  0.0
H  H49  1  0.46329808  0.04677710  0.17417079  1  0.098755  -7e-06  0.115566  0.104515  4e-05  0.991272  0.0
H  H50  1  0.60817939  0.61488925  0.11323953  1  0.09733  1.3e-05  0.115673  0.10448  -0.00018  1.008728  0.0
H  H51  1  0.49526388  0.88484453  0.88675565  1  0.093598  1.7e-05  0.115463  0.104336  -0.00018  1.008843  0.0
H  H52  1  0.39182620  0.38510968  0.88676870  1  0.097259  -1.3e-05  0.115675  0.104561  0.00018  1.00866  0.0
H  H53  1  0.50475031  0.11516310  0.11324067  1  0.093671  -1.7e-05  0.11553  0.104622  0.00018  1.008723  0.0
H  H54  1  0.53087075  0.94865886  0.44956340  1  0.134823  6.6e-05  0.112056  0.118412  3.7e-05  1.040371  0.0
H  H55  1  0.08122266  0.55117275  0.55019620  1  0.170043  4.2e-05  0.111925  0.118304  3.7e-05  1.040058  0.0
H  H56  1  0.46912445  0.05133750  0.55043580  1  0.134879  -6.6e-05  0.112059  0.118364  -3.6e-05  1.040324  0.0
H  H57  1  0.91877315  0.44882486  0.44981209  1  0.170051  -4.1e-05  0.11195  0.11839  -3.6e-05  1.040112  0.0
H  H58  1  0.87019464  0.58500920  0.51874653  1  0.139992  0.000291  0.108946  0.115624  0.000251  1.035781  0.0
H  H59  1  0.35176770  0.91501837  0.48136383  1  0.133253  0.000294  0.108776  0.115126  0.000251  1.036648  0.0
H  H60  1  0.12980901  0.41499433  0.48126537  1  0.140115  -0.00029  0.108909  0.115526  -0.00025  1.035908  0.0
H  H61  1  0.64820996  0.08497948  0.51861474  1  0.132744  -0.000293  0.108779  0.115126  -0.00025  1.036522  0.0
H  H62  1  0.91110639  0.68617606  0.67853064  1  0.126555  0.000252  0.110778  0.117785  0.000128  0.996405  0.0
H  H63  1  0.23274921  0.81392281  0.32150347  1  0.122451  0.000256  0.110597  0.117588  0.000129  0.996566  0.0
H  H64  1  0.08888864  0.31383015  0.32147801  1  0.126301  -0.000252  0.110763  0.117791  -0.000127  0.996356  0.0
H  H65  1  0.76721785  0.18607631  0.67848051  1  0.122445  -0.000255  0.110552  0.117514  -0.000128  0.996578  0.0
C  C66  1  0.71272546  0.79591123  0.53049820  1  0.062871  -0.002066  0.003153  0.035061  -0.001831  3.992939  -0.002
C  C67  1  0.18244334  0.70392748  0.46944285  1  -0.023533  -0.002019  0.003528  0.036323  -0.001838  3.99355  -0.002
C  C68  1  0.28726801  0.20408976  0.46950155  1  0.063048  0.002061  0.003059  0.035069  0.001828  3.992975  0.002
C  C69  1  0.81755447  0.29606365  0.53054909  1  -0.023505  0.002014  0.003526  0.036307  0.001833  3.993504  0.002
C  C70  1  0.68903431  0.73801117  0.43908211  1  -0.025363  -0.001634  0.003827  0.037502  -0.001526  3.991567  -0.002
C  C71  1  0.25007297  0.76186163  0.56088050  1  -0.033284  -0.001608  0.003489  0.036847  -0.00152  3.99261  -0.002
C  C72  1  0.31096222  0.26197989  0.56091854  1  -0.026348  0.001631  0.003855  0.037502  0.001525  3.991829  0.002
C  C73  1  0.74992289  0.23813810  0.43911147  1  -0.033783  0.001605  0.003536  0.036848  0.001516  3.992329  0.002
C  C74  1  0.02140864  0.13718378  0.98416999  1  0.447242  -0.005395  0.048456  0.085685  -0.004454  3.940279  -0.003
C  C75  1  0.03741734  0.36286002  0.01580154  1  0.47057  -0.005271  0.049142  0.086026  -0.004384  3.94198  -0.003
C  C76  1  0.97860190  0.86281383  0.01583800  1  0.447135  0.005396  0.048316  0.085619  0.004455  3.940323  0.003
C  C77  1  0.96257982  0.63715352  0.98419940  1  0.46924  0.005281  0.049152  0.085942  0.004392  3.94158  0.003
C  C78  1  0.53969255  0.49651249  0.12740435  1  0.030948  -0.003841  0.014059  0.15004  -0.002995  3.929248  -0.002
C  C79  1  0.41244085  0.00312658  0.87254881  1  -0.004081  -0.003765  0.013751  0.149031  -0.002923  3.928435  -0.002
C  C80  1  0.46031459  0.50347717  0.87260586  1  0.032587  0.003851  0.014229  0.150382  0.003003  3.928254  0.002
C  C81  1  0.58758225  0.99686058  0.12744454  1  -0.003229  0.003771  0.013677  0.149218  0.002928  3.928001  0.002
C  C82  1  0.56542105  0.41084499  0.13569173  1  0.004415  -0.000164  -0.077165  -0.167707  5.5e-05  3.91176  0.0
C  C83  1  0.42968274  0.08880379  0.86416310  1  -0.008057  -0.000246  -0.077344  -0.16726  -1e-06  3.90908  0.0
C  C84  1  0.43458861  0.58915343  0.86429802  1  0.003952  0.000162  -0.077253  -0.167904  -5.6e-05  3.91122  0.0
C  C85  1  0.57031913  0.91117614  0.13582475  1  -0.008255  0.000243  -0.07731  -0.167385  -1e-06  3.908832  0.0
C  C86  1  0.65567328  0.87272133  0.53329984  1  -0.031949  0.014154  -0.009904  -0.072507  0.01152  3.997208  0.008
C  C87  1  0.12252768  0.62707364  0.46656089  1  -0.000761  0.014111  -0.009638  -0.073423  0.011537  3.998512  0.008
C  C88  1  0.34432925  0.12728358  0.46670613  1  -0.03115  -0.014141  -0.00984  -0.072353  -0.011509  3.997067  -0.008
C  C89  1  0.87747417  0.37291816  0.53343101  1  -0.000591  -0.014088  -0.009676  -0.073368  -0.011517  3.998672  -0.008
C  C90  1  0.74703311  0.66190809  0.43597185  1  -0.026959  0.012151  -0.009919  -0.067357  0.009885  3.997628  0.007
C  C91  1  0.31138455  0.83792317  0.56405510  1  0.027419  0.012078  -0.009099  -0.06501  0.009852  3.995456  0.007
C  C92  1  0.25297523  0.33808819  0.56403793  1  -0.027228  -0.012139  -0.009845  -0.067307  -0.009876  3.997992  -0.007
C  C93  1  0.68860510  0.16207718  0.43594158  1  0.028109  -0.012061  -0.009196  -0.065304  -0.009839  3.995594  -0.007
C  C94  1  0.77915271  0.96767606  0.80400956  1  0.259753  0.0003  -0.052694  -0.115627  9.1e-05  3.915018  0.0
C  C95  1  0.97530720  0.53223178  0.19584497  1  0.251648  0.000297  -0.052592  -0.114428  9e-05  3.915496  0.0
C  C96  1  0.22085486  0.03233214  0.19599771  1  0.259181  -0.0003  -0.052547  -0.115486  -9.1e-05  3.914819  0.0
C  C97  1  0.02468250  0.46775936  0.80414555  1  0.252294  -0.000297  -0.052531  -0.114509  -9e-05  3.915683  0.0
C  C98  1  0.79380881  0.77617671  0.61650738  1  -0.064067  0.01599  -0.010953  -0.075656  0.013004  4.010052  0.009
C  C99  1  0.17746365  0.72378361  0.38347510  1  -0.006696  0.015889  -0.010967  -0.075841  0.013029  4.011658  0.01
C  C100  1  0.20618593  0.22383218  0.38349634  1  -0.064089  -0.015978  -0.011084  -0.075914  -0.012994  4.010316  -0.009
C  C101  1  0.82252222  0.27621481  0.61651505  1  -0.007554  -0.015859  -0.011053  -0.076117  -0.013005  4.011742  -0.009
C  C102  1  0.42636666  0.51098244  0.08344081  1  -0.03454  0.000163  -0.084981  -0.18201  0.00029  3.929723  0.0
C  C103  1  0.34287985  0.98846119  0.91626321  1  -0.101035  5.7e-05  -0.084408  -0.18111  0.000227  3.929875  0.0
C  C104  1  0.57365664  0.48901653  0.91656345  1  -0.034293  -0.000164  -0.084891  -0.181977  -0.000291  3.929185  0.0
C  C105  1  0.65714058  0.01153000  0.08372300  1  -0.101857  -5.9e-05  -0.084344  -0.18125  -0.000229  3.929498  0.0
C  C106  1  0.68334712  0.93518717  0.62667429  1  1.313349  0.009697  0.242177  0.427278  0.008222  4.102753  0.005
C  C107  1  0.05665675  0.56464458  0.37315571  1  1.308512  0.009698  0.243064  0.428081  0.008203  4.10246  0.005
C  C108  1  0.31664412  0.06482102  0.37333417  1  1.313547  -0.00969  0.242051  0.426956  -0.008215  4.103324  -0.005
C  C109  1  0.94334583  0.43535119  0.62683412  1  1.30887  -0.009689  0.243025  0.428195  -0.008195  4.102369  -0.005
C  C110  1  0.92641844  0.07729135  0.94501489  1  -0.031723  8.4e-05  -0.083338  -0.179946  0.000244  3.940782  0.0
C  C111  1  0.98168888  0.42279646  0.05491559  1  -0.028445  6e-06  -0.083937  -0.180531  0.000183  3.940618  0.0
C  C112  1  0.07359601  0.92270765  0.05498636  1  -0.032637  -8.3e-05  -0.083305  -0.179869  -0.000243  3.940479  0.0
C  C113  1  0.01831313  0.57720444  0.94509433  1  -0.028101  -8e-06  -0.083966  -0.180587  -0.000185  3.94019  0.0
C  C114  1  0.55136277  0.83278270  0.35817833  1  -0.037744  0.012099  -0.062139  -0.055959  0.009827  3.908953  0.006
C  C115  1  0.19315738  0.66707844  0.64166678  1  -0.040228  0.012354  -0.06216  -0.054768  0.009852  3.908582  0.006
C  C116  1  0.44863196  0.16722286  0.64182827  1  -0.038263  -0.012089  -0.062317  -0.056219  -0.009819  3.909362  -0.006
C  C117  1  0.80685419  0.33292389  0.35833123  1  -0.040708  -0.012342  -0.062169  -0.054794  -0.009843  3.908915  -0.006
C  C118  1  0.47872133  0.34376944  0.10140401  1  0.457657  -0.00516  0.054506  0.101878  -0.004359  3.930529  -0.003
C  C119  1  0.37704251  0.15572041  0.89829985  1  0.513987  -0.005051  0.05461  0.102668  -0.004308  3.931733  -0.003
C  C120  1  0.52130016  0.65622562  0.89859294  1  0.457518  0.00517  0.0545  0.10211  0.004368  3.930076  0.003
C  C121  1  0.62297258  0.84426346  0.10169090  1  0.513909  0.005055  0.054658  0.102654  0.004311  3.931586  0.003
C  C122  1  0.34517260  0.44028709  0.05018945  1  0.402925  -0.004639  0.047123  0.090234  -0.00354  3.974234  -0.003
C  C123  1  0.29480169  0.05905365  0.94941466  1  0.487468  -0.004548  0.047158  0.091172  -0.003491  3.973305  -0.003
C  C124  1  0.65484319  0.55972435  0.94982729  1  0.402461  0.004649  0.047224  0.09048  0.003548  3.973948  0.003
C  C125  1  0.70521829  0.94092358  0.05058007  1  0.487245  0.004553  0.047175  0.091186  0.003496  3.973385  0.003
C  C126  1  0.93577725  0.05192923  0.79240880  1  0.012391  -0.000127  -0.084086  -0.176724  1.6e-05  3.937759  0.0
C  C127  1  0.14364418  0.44813679  0.20756240  1  -0.00654  -0.000197  -0.084848  -0.17896  -4.7e-05  3.940218  0.0
C  C128  1  0.06420268  0.94809357  0.20759198  1  0.012202  0.000127  -0.084029  -0.176703  -1.5e-05  3.937678  0.0
C  C129  1  0.85632979  0.55185226  0.79244128  1  -0.001402  0.000193  -0.084715  -0.179021  4.5e-05  3.939758  0.0
C  C130  1  0.88190691  0.03277983  0.84707611  1  -0.055511  -0.004707  0.017952  0.155478  -0.003691  3.939023  -0.003
C  C131  1  0.03513050  0.46731335  0.15284961  1  -0.028094  -0.004589  0.017925  0.156259  -0.0036  3.938272  -0.003
C  C132  1  0.11809398  0.96722312  0.15292713  1  -0.054959  0.004708  0.01779  0.155237  0.003691  3.93896  0.003
C  C133  1  0.96486686  0.53269360  0.84714898  1  -0.028027  0.004599  0.017905  0.15629  0.003608  3.938072  0.003
C  C134  1  0.81939771  0.83584135  0.71127480  1  1.332762  0.008732  0.239165  0.430837  0.007409  4.106704  0.005
C  C135  1  0.10820175  0.66415424  0.28870211  1  1.301207  0.008797  0.239754  0.431199  0.00739  4.10775  0.005
C  C136  1  0.18060080  0.16416286  0.28873622  1  1.333324  -0.008726  0.239314  0.430926  -0.007405  4.106629  -0.005
C  C137  1  0.89176975  0.33585010  0.71129115  1  1.301759  -0.008788  0.239799  0.431449  -0.007382  4.107646  -0.005
C  C138  1  0.03036533  0.11251903  0.83661750  1  0.490965  -0.005161  0.052074  0.103618  -0.004029  3.948034  -0.003
C  C139  1  0.19394355  0.38750114  0.16338150  1  0.471392  -0.005075  0.052132  0.104583  -0.003969  3.947853  -0.003
C  C140  1  0.96962040  0.88749522  0.16337711  1  0.490832  0.00516  0.052163  0.103657  0.004028  3.948099  0.003
C  C141  1  0.80604821  0.61250039  0.83663242  1  0.467159  0.005083  0.051998  0.104339  0.003976  3.947835  0.003
C  C142  1  0.58531477  0.70059809  0.25780598  1  1.301362  0.009575  0.240362  0.431165  0.008112  4.104384  0.005
C  C143  1  0.32760206  0.79927199  0.74213083  1  1.290709  0.009593  0.240757  0.432551  0.008119  4.105405  0.005
C  C144  1  0.41468543  0.29940283  0.74220296  1  1.301173  -0.009571  0.240384  0.431212  -0.008108  4.104312  -0.005
C  C145  1  0.67241913  0.20072971  0.25786254  1  1.299755  -0.009555  0.240629  0.432127  -0.008114  4.105915  -0.005
C  C146  1  0.63020523  0.57177152  0.16416219  1  0.290661  0.000244  -0.056911  -0.110833  -4.4e-05  3.90919  0.0
C  C147  1  0.46634468  0.92801824  0.83590344  1  0.284826  0.000244  -0.056313  -0.109975  -4.4e-05  3.908796  0.0
C  C148  1  0.36979279  0.42821626  0.83583451  1  0.290759  -0.000243  -0.05709  -0.111259  4.4e-05  3.909414  0.0
C  C149  1  0.53367002  0.07197561  0.16407991  1  0.286233  -0.000244  -0.056416  -0.11064  4.4e-05  3.908936  0.0
C  C150  1  0.15214509  0.26629068  0.79087446  1  0.412762  -0.038874  0.149302  0.269721  -0.035455  4.31757  -0.034
C  C151  1  0.36122966  0.23370329  0.20910288  1  0.43455  -0.038546  0.149103  0.2684  -0.03551  4.319476  -0.034
C  C152  1  0.84784603  0.73369966  0.20913400  1  0.41219  0.038862  0.149251  0.269606  0.035445  4.317706  0.033
C  C153  1  0.63876401  0.76630180  0.79088013  1  0.434016  0.038565  0.148873  0.26806  0.035518  4.319386  0.034
C  C154  1  0.57540532  0.89020975  0.44776189  1  -0.015192  0.011309  -0.062885  -0.059928  0.00918  3.91374  0.006
C  C155  1  0.12757857  0.60966757  0.55204909  1  0.019987  0.011102  -0.063628  -0.060453  0.009167  3.913528  0.006
C  C156  1  0.42459444  0.10979182  0.55224753  1  -0.015618  -0.011305  -0.062804  -0.059816  -0.009177  3.913478  -0.006
C  C157  1  0.87241302  0.39033605  0.44795162  1  0.019799  -0.011086  -0.063606  -0.060576  -0.009154  3.913973  -0.006
C  C158  1  0.72448603  0.60250881  0.34167600  1  1.300434  0.00863  0.238251  0.427236  0.007163  4.109985  0.004
C  C159  1  0.38309919  0.89734125  0.65837277  1  1.283216  0.008659  0.237479  0.425751  0.007181  4.111656  0.004
C  C160  1  0.27550587  0.39749146  0.65833040  1  1.300642  -0.008627  0.238191  0.427149  -0.007161  4.110096  -0.004
C  C161  1  0.61689109  0.10265918  0.34161458  1  1.28312  -0.008651  0.237568  0.425887  -0.007173  4.111382  -0.004
C  C162  1  0.60813754  0.75806307  0.35300151  1  0.038742  0.013424  -0.009793  -0.074541  0.01103  4.006541  0.008
C  C163  1  0.25522186  0.74179656  0.64693103  1  -0.011168  0.013397  -0.010376  -0.07607  0.011016  4.009147  0.008
C  C164  1  0.39185589  0.24193588  0.64700458  1  0.039775  -0.01341  -0.009658  -0.074344  -0.011018  4.006411  -0.008
C  C165  1  0.74477986  0.25821436  0.35306744  1  -0.020653  -0.013408  -0.010184  -0.075539  -0.010998  4.008982  -0.008
C  C166  1  0.82603834  0.64364198  0.52179753  1  -0.032292  0.013235  -0.070514  -0.071052  0.010679  3.919337  0.007
C  C167  1  0.30458185  0.85629731  0.47828050  1  -0.024409  0.013186  -0.07018  -0.070501  0.01068  3.919739  0.007
C  C168  1  0.17396569  0.35636281  0.47822158  1  -0.032351  -0.013225  -0.070502  -0.070975  -0.01067  3.919559  -0.007
C  C169  1  0.69540214  0.14370308  0.52171137  1  -0.02254  -0.013164  -0.070156  -0.070379  -0.010665  3.919432  -0.007
C  C170  1  0.84936031  0.70052451  0.61155639  1  0.025549  0.009996  -0.068305  -0.069017  0.008215  3.928554  0.005
C  C171  1  0.23804393  0.79946909  0.38846594  1  0.032743  0.01002  -0.068435  -0.070045  0.00819  3.929795  0.005
C  C172  1  0.15063737  0.29948629  0.38845633  1  0.025996  -0.009992  -0.068199  -0.068887  -0.008213  3.928334  -0.005
C  C173  1  0.76193723  0.20053725  0.61152556  1  0.032076  -0.010014  -0.068424  -0.069904  -0.008183  3.929472  -0.005
S  S174  1  0.11839524  0.23020103  0.67748084  1  0.187897  -0.03862  -0.149977  -0.28081  -0.029694  2.200921  -0.018
S  S175  1  0.44081874  0.26994666  0.32250060  1  0.193656  -0.038855  -0.149873  -0.280405  -0.029871  2.201659  -0.018
S  S176  1  0.88158578  0.76980986  0.32252028  1  0.188398  0.038611  -0.149953  -0.280742  0.029686  2.200965  0.018
S  S177  1  0.55917369  0.73003121  0.67749588  1  0.193673  0.038869  -0.149641  -0.280068  0.02989  2.202082  0.018
N  N178  1  0.37031866  0.35788562  0.05912285  1  -1.261485  -0.04505  -0.318075  -0.237579  -0.032903  3.533648  -0.018
N  N179  1  0.31089554  0.14150434  0.94051560  1  -1.252195  -0.045897  -0.318511  -0.239183  -0.033718  3.533949  -0.019
N  N180  1  0.62971777  0.64213180  0.94089029  1  -1.26161  0.045082  -0.318187  -0.237941  0.032916  3.533221  0.018
N  N181  1  0.68911108  0.85847365  0.05946592  1  -1.252343  0.045854  -0.318552  -0.23909  0.033697  3.533664  0.019
N  N182  1  0.75876090  0.90997288  0.71044197  1  -1.16173  -0.000826  -0.248179  -0.18235  -0.001395  3.614313  -0.002
N  N183  1  0.04839969  0.58993578  0.28945985  1  -1.171359  -0.000808  -0.248137  -0.182435  -0.001393  3.614763  -0.002
N  N184  1  0.24124114  0.09003468  0.28956219  1  -1.161677  0.000825  -0.248248  -0.18223  0.001394  3.61428  0.002
N  N185  1  0.95157538  0.41006334  0.71052462  1  -1.172153  0.000805  -0.248271  -0.182825  0.00139  3.61501  0.002
N  N186  1  0.64545285  0.62668709  0.25834043  1  -1.141165  -0.001009  -0.245452  -0.175503  -0.001564  3.587653  -0.002
N  N187  1  0.38742727  0.87310652  0.74166395  1  -1.144171  -0.001013  -0.245455  -0.176074  -0.001559  3.589544  -0.002
N  N188  1  0.35454559  0.37331191  0.74165985  1  -1.141352  0.001008  -0.245416  -0.175379  0.001562  3.587968  0.002
N  N189  1  0.61257572  0.12690114  0.25832869  1  -1.144147  0.001011  -0.24539  -0.17588  0.001557  3.589315  0.002
N  N190  1  0.07338922  0.15452742  0.93104087  1  -1.27297  -0.047163  -0.318616  -0.24359  -0.034759  3.523983  -0.02
N  N191  1  0.14245882  0.34538801  0.06898521  1  -1.284157  -0.047849  -0.318662  -0.244302  -0.035489  3.522493  -0.021
N  N192  1  0.92660445  0.84547755  0.06895711  1  -1.272469  0.04716  -0.318582  -0.243532  0.034765  3.523892  0.02
N  N193  1  0.85752393  0.65461484  0.93102823  1  -1.283629  0.04783  -0.318671  -0.24395  0.035473  3.522477  0.021
N  N194  1  0.17643330  0.29289992  0.87569178  1  -1.31624  -0.027866  -0.424617  -0.516333  -0.01486  3.268726  0.012
N  N195  1  0.30080050  0.20691097  0.12427157  1  -1.34405  -0.02838  -0.424363  -0.515218  -0.014845  3.269981  0.012
N  N196  1  0.82356338  0.70709375  0.12431269  1  -1.316203  0.027852  -0.42459  -0.516253  0.014849  3.268577  -0.012
N  N197  1  0.69920257  0.79308673  0.87572565  1  -1.343402  0.028334  -0.42433  -0.515189  0.014822  3.269304  -0.012
O  O198  1  0.64545524  0.00751854  0.63412305  1  -1.117921  0.011119  -0.265082  -0.434589  0.008613  2.164588  0.009
O  O199  1  0.01117513  0.49232594  0.36566373  1  -1.116552  0.011108  -0.26565  -0.434921  0.008598  2.164683  0.009
O  O200  1  0.35455021  0.99249627  0.36588465  1  -1.118198  -0.011111  -0.264974  -0.434455  -0.008607  2.164939  -0.009
O  O201  1  0.98882512  0.50767310  0.63433254  1  -1.116099  -0.011091  -0.26565  -0.434932  -0.008586  2.16464  -0.009
O  O202  1  0.77066918  0.53456509  0.33291295  1  -1.117028  0.012781  -0.268426  -0.437977  0.009998  2.164577  0.011
O  O203  1  0.43795446  0.96539473  0.66716963  1  -1.11541  0.01277  -0.268364  -0.437989  0.009994  2.165599  0.011
O  O204  1  0.22933843  0.46544507  0.66709795  1  -1.11721  -0.012774  -0.268407  -0.437974  -0.009992  2.164576  -0.011
O  O205  1  0.56205189  0.03459644  0.33281752  1  -1.115335  -0.012756  -0.268374  -0.437931  -0.009983  2.165453  -0.011
O  O206  1  0.51720430  0.71544662  0.17984059  1  -1.134239  0.010297  -0.283741  -0.464692  0.007814  2.128512  0.008
O  O207  1  0.33726493  0.78449644  0.82006281  1  -1.126658  0.010256  -0.283428  -0.464955  0.007774  2.129124  0.008
O  O208  1  0.48280716  0.28455959  0.82016780  1  -1.134318  -0.010288  -0.283728  -0.464725  -0.007807  2.128518  -0.008
O  O209  1  0.66276076  0.21550461  0.17993080  1  -1.12636  -0.01024  -0.283413  -0.46489  -0.007761  2.129403  -0.008
O  O210  1  0.89143028  0.82428704  0.78899159  1  -1.126956  0.012277  -0.276034  -0.446233  0.009299  2.141226  0.01
O  O211  1  0.10245440  0.67580812  0.21100986  1  -1.113009  0.012293  -0.276559  -0.446325  0.009309  2.141289  0.01
O  O212  1  0.10856545  0.17571716  0.21101998  1  -1.127125  -0.012268  -0.276138  -0.446306  -0.009291  2.141024  -0.01
O  O213  1  0.89748466  0.32421871  0.78898231  1  -1.113126  -0.012274  -0.276426  -0.446207  -0.009294  2.141209  -0.01
