# generated using pymatgen
data_Zn4H55C64NO18
_symmetry_space_group_name_H-M   'P 1'
_cell_length_a   15.82728679
_cell_length_b   18.10394332
_cell_length_c   17.85183211
_cell_angle_alpha   62.70410801
_cell_angle_beta   74.73770343
_cell_angle_gamma   79.42141820
_symmetry_Int_Tables_number   1
_chemical_formula_structural   Zn4H55C64NO18
_chemical_formula_sum   'Zn4 H55 C64 N1 O18'
_cell_volume   4373.49460871
_cell_formula_units_Z   1
loop_
 _symmetry_equiv_pos_site_id
 _symmetry_equiv_pos_as_xyz
  1  'x, y, z'
loop_
 _atom_site_type_symbol
 _atom_site_label
 _atom_site_symmetry_multiplicity
 _atom_site_fract_x
 _atom_site_fract_y
 _atom_site_fract_z
 _atom_site_occupancy
 _atom_site_pbe_bader_charge
 _atom_site_pbe_bader_spin_density
 _atom_site_pbe_cm5_charge
 _atom_site_pbe_ddec_charge
 _atom_site_pbe_ddec_spin_density
 _atom_site_pbe_ddec_sum_bond_order
 _atom_site_pbe_magmom
Zn  Zn0  1  0.58538560  0.41439432  0.57489224  1  1.319386  0  0.677627  0.975904  0  2.340432  0
Zn  Zn1  1  0.42194162  0.55073590  0.56832954  1  1.315452  0  0.673615  0.970893  0  2.351413  0
Zn  Zn2  1  0.46872657  0.44965290  0.44474748  1  1.31165  0  0.673572  0.955148  0  2.407088  0
Zn  Zn3  1  0.56955903  0.59774432  0.40356081  1  1.314387  0  0.674819  0.959497  0  2.377521  0
H  H4  1  0.02143037  0.60063048  0.39248087  1  0.104648  0  0.120863  0.123493  0  0.963276  0
H  H5  1  0.58148350  0.57777957  0.82819743  1  0.060572  0  0.103672  0.102226  0  1.012405  0
H  H6  1  0.45316687  0.38861178  0.17694276  1  0.124596  0  0.106424  0.112599  0  1.035191  0
H  H7  1  0.40462582  0.25107549  0.02215741  1  0.080745  0  0.103703  0.103328  0  0.995257  0
H  H8  1  0.47628789  0.79264422  0.56002910  1  0.070971  0  0.100828  0.108212  0  1.01798  0
H  H9  1  0.42494037  0.84510071  0.31522979  1  0.083175  0  0.106152  0.125734  0  1.007805  0
H  H10  1  0.40838158  0.11255060  0.31137108  1  0.086683  0  0.098205  0.099858  0  1.020215  0
H  H11  1  0.53237049  0.00685773  0.75828593  1  0.078711  0  0.104843  0.124432  0  1.028039  0
H  H12  1  0.28232203  0.07243581  0.23009451  1  0.055236  0  0.098251  0.059766  0  0.967612  0
H  H13  1  0.27231685  0.96926864  0.31392338  1  0.037662  0  0.099793  0.059678  0  0.981459  0
H  H14  1  0.35979207  0.01228344  0.12510368  1  0.01276  0  0.093845  0.090886  0  0.97151  0
H  H15  1  0.48176549  0.83710465  0.64099617  1  0.02949  0  0.101419  0.113448  0  1.041313  0
H  H16  1  0.33999895  0.91112224  0.20763107  1  0.020948  0  0.088784  0.077532  0  0.998544  0
H  H17  1  0.17577480  0.94936283  0.22538086  1  0.026385  0  0.086118  0.110878  0  1.001818  0
H  H18  1  0.22368808  0.96360625  0.11839878  1  0.006583  0  0.088298  0.116167  0  1.000341  0
H  H19  1  0.19564807  0.05103428  0.14225794  1  0.026912  0  0.085969  0.109242  0  1.00473  0
H  H20  1  0.62485786  0.77303733  0.18058934  1  0.063704  0  0.108752  0.083876  0  0.947317  0
H  H21  1  0.52938771  0.73494361  0.18105193  1  0.059918  0  0.095465  0.062852  0  1.012851  0
H  H22  1  0.64602704  0.86005581  0.02299485  1  0.019356  0  0.089369  0.082267  0  0.981867  0
H  H23  1  0.56161124  0.81259099  0.01638715  1  0.005016  0  0.086876  0.078751  0  1.006245  0
H  H24  1  0.44973362  0.86993802  0.10837435  1  -0.01891  0  0.082284  0.1027  0  1.021191  0
H  H25  1  0.50497997  0.95215851  0.01701125  1  0.048345  0  0.085203  0.110508  0  1.035215  0
H  H26  1  0.45142633  0.16546691  0.39959415  1  0.137246  0  0.103084  0.104609  0  1.045339  0
H  H27  1  0.53180315  0.91724186  0.11895080  1  0.013057  0  0.088525  0.115217  0  0.999757  0
H  H28  1  0.31399457  0.46805407  0.24057933  1  0.042479  0  0.10979  0.08144  0  0.952302  0
H  H29  1  0.35476104  0.54066126  0.13291238  1  0.06264  0  0.095645  0.054197  0  1.010048  0
H  H30  1  0.32653166  0.56756719  0.29601192  1  0.025984  0  0.089324  0.093837  0  0.999448  0
H  H31  1  0.37365797  0.63958984  0.19131603  1  0.010547  0  0.085621  0.074815  0  1.000717  0
H  H32  1  0.23371055  0.65545386  0.14107590  1  0.019881  0  0.084751  0.108976  0  1.012071  0
H  H33  1  0.21306319  0.67964413  0.23033705  1  0.031147  0  0.086986  0.113972  0  1.001585  0
H  H34  1  0.18580923  0.58235829  0.24526956  1  0.030826  0  0.085597  0.109382  0  1.005256  0
H  H35  1  0.50113622  0.76119840  0.78522361  1  0.027383  0  0.094707  0.056523  0  0.982386  0
H  H36  1  0.40032792  0.82517036  0.78067263  1  0.049276  0  0.100802  0.063663  0  0.971049  0
H  H37  1  0.64778545  0.66045143  0.87136613  1  0.079214  0  0.106544  0.109159  0  0.98399  0
H  H38  1  0.51727895  0.77485798  0.91195973  1  0.029142  0  0.086883  0.076575  0  1.014249  0
H  H39  1  0.42571232  0.84847441  0.90321793  1  0.020671  0  0.093527  0.08834  0  0.965831  0
H  H40  1  0.32512570  0.73933796  0.94002112  1  0.032128  0  0.084867  0.109913  0  1.002927  0
H  H41  1  0.38804249  0.70517384  0.02062114  1  0.01029  0  0.085911  0.116167  0  1.01236  0
H  H42  1  0.41597799  0.66455224  0.94317446  1  0.009615  0  0.081786  0.109285  0  1.038453  0
H  H43  1  0.64432645  0.19051185  0.74428295  1  0.058895  0  0.100529  0.068103  0  0.964869  0
H  H44  1  0.64520579  0.08770719  0.75415868  1  0.061386  0  0.099106  0.058343  0  0.98845  0
H  H45  1  0.52191581  0.15768735  0.87462526  1  0.013811  0  0.090894  0.084534  0  0.990926  0
H  H46  1  0.52555549  0.05511807  0.88550057  1  0.011758  0  0.087426  0.075252  0  0.998419  0
H  H47  1  0.68297145  0.02988082  0.90622270  1  0.013043  0  0.084246  0.10708  0  1.008507  0
H  H48  1  0.51042847  0.52362627  0.79485857  1  0.070874  0  0.104808  0.107103  0  1.013273  0
H  H49  1  0.61132782  0.05945985  0.98429020  1  0.027223  0  0.088805  0.118102  0  1.007069  0
H  H50  1  0.67873769  0.13321620  0.89473753  1  0.031988  0  0.087826  0.11351  0  1.000471  0
H  H51  1  0.53985170  0.27616368  0.41865180  1  0.463048  0  0.30137  0.25246  0  0.978235  0
H  H52  1  0.61588659  0.24505359  0.30484384  1  0.049914  0  0.105928  0.115439  0  0.97558  0
H  H53  1  0.60572033  0.13672749  0.36932872  1  0.076589  0  0.099128  0.107437  0  1.02413  0
H  H54  1  0.67990814  0.18851582  0.38595310  1  0.026158  0  0.091051  0.090481  0  0.99124  0
H  H55  1  0.42665365  0.28348009  0.86676067  1  0.069466  0  0.106902  0.109015  0  0.997592  0
H  H56  1  0.41488100  0.29021123  0.13456289  1  0.047206  0  0.102809  0.104092  0  0.993851  0
H  H57  1  0.66756661  0.69725015  0.97936022  1  0.057655  0  0.109945  0.12775  0  0.992237  0
H  H58  1  0.99887660  0.44772600  0.57018194  1  0.123814  0  0.129122  0.13426  0  0.944692  0
C  C59  1  0.46480683  0.72120887  0.46124667  1  1.533906  0  0.224592  0.607488  0  4.158232  0
C  C60  1  0.51393557  0.07579496  0.54757108  1  0.000341  0  -0.012027  -0.064267  0  3.9053  0
C  C61  1  0.52017843  0.02071402  0.63464359  1  -0.006149  0  -0.013295  0.023251  0  4.034285  0
C  C62  1  0.53941355  0.28126286  0.54912428  1  1.548467  0  0.229071  0.637886  0  4.14541  0
C  C63  1  0.48515234  0.04446871  0.49723364  1  -0.002284  0  -0.009706  0.030195  0  3.959694  0
C  C64  1  0.47868076  0.95734640  0.52934932  1  -0.002059  0  -0.007683  0.050819  0  3.974832  0
C  C65  1  0.49015509  0.90326290  0.61485479  1  0.038051  0  -0.119654  -0.288782  0  4.039979  0
C  C66  1  0.50703583  0.93395783  0.66652015  1  0.420357  0  0.081501  0.21063  0  4.070954  0
C  C67  1  0.45515005  0.09868947  0.41946327  1  -0.056857  0  -0.096064  -0.127114  0  4.03478  0
C  C68  1  0.43053134  0.06949650  0.37054203  1  -0.080428  0  -0.104023  -0.13602  0  4.055843  0
C  C69  1  0.43636779  0.98274954  0.39432040  1  0.065256  0  -0.015729  -0.015963  0  4.009683  0
C  C70  1  0.89941406  0.54315982  0.45689405  1  -0.418894  0  -0.025437  0.009398  0  4.15476  0
C  C71  1  0.45836833  0.92526984  0.47543388  1  -0.006356  0  -0.006152  0.044798  0  3.953584  0
C  C72  1  0.42070119  0.95224112  0.33882995  1  0.446976  0  0.080398  0.208462  0  4.068281  0
C  C73  1  0.43113536  0.86806849  0.36010565  1  -0.063527  0  -0.105554  -0.237306  0  3.999723  0
C  C74  1  0.47869517  0.43098293  0.72914718  1  1.587817  0  0.232751  0.618462  0  4.159866  0
C  C75  1  0.46109470  0.83905574  0.49864418  1  -0.031467  0  -0.090819  -0.158194  0  3.951136  0
C  C76  1  0.55397606  0.57641351  0.17909770  1  -0.015994  0  -0.031062  -0.252091  0  3.910655  0
C  C77  1  0.46975055  0.40643089  0.82280607  1  -0.020831  0  -0.013933  -0.015255  0  3.99844  0
C  C78  1  0.62530081  0.64902952  0.02905196  1  -0.019031  0  -0.106186  -0.275328  0  4.000477  0
C  C79  1  0.60965954  0.63910691  0.11286655  1  0.532845  0  0.088862  0.265067  0  4.068315  0
C  C80  1  0.51017914  0.53162635  0.15543241  1  0.569956  0  0.103315  0.236189  0  3.961407  0
C  C81  1  0.12090472  0.50374053  0.50927359  1  -0.453071  0  -0.014082  0.02254  0  4.123082  0
C  C82  1  0.53115561  0.53609171  0.07081743  1  -0.021054  0  -0.012372  -0.094137  0  3.928131  0
C  C83  1  0.58828129  0.59859534  0.00688557  1  0.003044  0  -0.003963  0.117489  0  4.053859  0
C  C84  1  0.50053975  0.48049313  0.04676245  1  -0.048187  0  -0.002092  0.050737  0  3.947756  0
C  C85  1  0.51625842  0.49803530  0.95825853  1  0.042996  0  -0.005701  0.023333  0  3.957504  0
C  C86  1  0.54516254  0.55440800  0.27196639  1  1.550558  0  0.224536  0.631303  0  4.150953  0
C  C87  1  0.56764476  0.56559994  0.89574423  1  -0.045218  0  -0.088494  -0.125774  0  4.030304  0
C  C88  1  0.60487078  0.61190450  0.91940367  1  -0.08014  0  -0.089637  -0.133979  0  4.013242  0
C  C89  1  0.46221708  0.40425907  0.10902423  1  -0.032052  0  -0.096488  -0.141449  0  4.021498  0
C  C90  1  0.44072379  0.34925284  0.08523271  1  -0.054278  0  -0.090028  -0.128806  0  4.024837  0
C  C91  1  0.45152326  0.36682382  0.99712823  1  0.014587  0  -0.008824  0.072385  0  4.028012  0
C  C92  1  0.82213210  0.53658046  0.46352701  1  0.113505  0  -0.039792  -0.193413  0  3.952313  0
C  C93  1  0.48631805  0.44370130  0.93278791  1  -0.06955  0  -0.001161  0.042915  0  3.953786  0
C  C94  1  0.43006058  0.30994441  0.97204034  1  -0.039692  0  -0.087518  -0.127512  0  3.998663  0
C  C95  1  0.44146701  0.32788298  0.88620895  1  -0.037428  0  -0.088312  -0.110341  0  4.007953  0
C  C96  1  0.49069631  0.46317247  0.84580429  1  -0.018573  0  -0.085507  -0.153676  0  3.955632  0
C  C97  1  0.28919958  0.50950954  0.50438332  1  1.658048  0  0.237253  0.679873  0  4.23277  0
C  C98  1  0.73130611  0.52651091  0.47324283  1  1.69322  0  0.231901  0.682353  0  4.229533  0
C  C99  1  0.19743493  0.50765607  0.50812501  1  0.201392  0  -0.028684  -0.179596  0  3.912746  0
C  C100  1  0.03287302  0.49774693  0.51279890  1  0.079138  0  -0.052528  -0.044766  0  4.046394  0
C  C101  1  0.98806613  0.55039976  0.45000923  1  0.110935  0  -0.064027  -0.061208  0  4.064773  0
C  C102  1  0.31205483  0.00787735  0.25105760  1  0.394971  0  -0.06392  0.041757  0  3.897165  0
C  C103  1  0.53540323  0.19083108  0.57701939  1  0.009123  0  -0.037233  -0.251644  0  3.942187  0
C  C104  1  0.31382174  0.97669238  0.18469248  1  0.013468  0  -0.170399  -0.140561  0  3.991295  0
C  C105  1  0.22228599  0.98561212  0.16673187  1  -0.05431  0  -0.242272  -0.352213  0  3.986803  0
C  C106  1  0.59371155  0.75741879  0.14198701  1  0.39762  0  -0.069468  0.040863  0  3.872406  0
C  C107  1  0.58265611  0.83262019  0.05793688  1  0.000551  0  -0.173653  -0.14392  0  3.995321  0
C  C108  1  0.51378379  0.89662567  0.07640858  1  -0.037271  0  -0.243354  -0.352658  0  3.983697  0
C  C109  1  0.35630845  0.52010845  0.20107940  1  0.369646  0  -0.063047  0.034102  0  3.870625  0
C  C110  1  0.32613919  0.59129226  0.22728090  1  0.032305  0  -0.175209  -0.142273  0  3.981481  0
C  C111  1  0.23470336  0.62923137  0.20996922  1  -0.079285  0  -0.242733  -0.348997  0  3.983782  0
C  C112  1  0.46436422  0.81285637  0.79958239  1  0.411157  0  -0.062856  0.041489  0  3.889629  0
C  C113  1  0.45247930  0.79174566  0.89438067  1  0.012371  0  -0.168191  -0.130779  0  3.98386  0
C  C114  1  0.45034334  0.81132056  0.44120656  1  0.006215  0  -0.023495  -0.017216  0  4.035755  0
C  C115  1  0.39202750  0.72126199  0.95258241  1  -0.047864  0  -0.246462  -0.35677  0  3.971741  0
C  C116  1  0.60372541  0.13771529  0.76801236  1  0.396771  0  -0.063002  0.046642  0  3.880624  0
C  C117  1  0.56613920  0.10737970  0.86386028  1  0.010986  0  -0.169484  -0.135614  0  3.996359  0
C  C118  1  0.63873395  0.08102897  0.91508994  1  -0.0658  0  -0.242477  -0.353844  0  3.982871  0
C  C119  1  0.61534205  0.19491674  0.36990951  1  0.258561  0  -0.137503  -0.216223  0  3.969516  0
C  C120  1  0.53212467  0.05025565  0.69149639  1  0.082167  0  -0.122932  -0.287438  0  4.034387  0
C  C121  1  0.53538708  0.13473166  0.66408347  1  0.440098  0  0.082296  0.257663  0  4.116021  0
C  C122  1  0.53032105  0.16154786  0.51728129  1  0.43023  0  0.11318  0.208694  0  3.957686  0
N  N123  1  0.54373106  0.21544541  0.42984511  1  -1.193514  0  -0.453954  -0.306002  0  3.533756  0
O  O124  1  0.51118347  0.50205393  0.50110767  1  -1.237097  0  -0.577073  -1.038128  0  2.551134  0
O  O125  1  0.30708970  0.53592944  0.55297642  1  -1.141466  0  -0.304146  -0.533352  0  2.258903  0
O  O126  1  0.69156613  0.58413312  0.41647849  1  -1.152001  0  -0.311829  -0.539535  0  2.272427  0
O  O127  1  0.34206938  0.48419750  0.45188584  1  -1.14788  0  -0.301176  -0.531166  0  2.290369  0
O  O128  1  0.70058533  0.46096531  0.53770736  1  -1.155273  0  -0.31227  -0.544689  0  2.268986  0
O  O129  1  0.39890537  0.01030314  0.26177875  1  -1.074659  0  -0.209263  -0.246726  0  2.50031  0
O  O130  1  0.65016967  0.68923099  0.12943481  1  -1.070829  0  -0.210739  -0.243122  0  2.467329  0
O  O131  1  0.44385071  0.48443498  0.21613905  1  -1.065174  0  -0.197371  -0.228025  0  2.528181  0
O  O132  1  0.51142869  0.88703132  0.75121072  1  -1.081464  0  -0.1863  -0.206042  0  2.561938  0
O  O133  1  0.53453280  0.16770052  0.71977909  1  -1.078322  0  -0.201098  -0.230171  0  2.519482  0
O  O134  1  0.53283998  0.38614234  0.69739938  1  -1.168622  0  -0.311359  -0.542334  0  2.300832  0
O  O135  1  0.55374441  0.61101459  0.29260582  1  -1.160777  0  -0.304545  -0.541898  0  2.405152  0
O  O136  1  0.43483382  0.66803934  0.53773740  1  -1.168372  0  -0.318749  -0.548519  0  2.297363  0
O  O137  1  0.48377891  0.32871364  0.50264438  1  -1.180926  0  -0.318528  -0.555025  0  2.341458  0
O  O138  1  0.50685813  0.70371883  0.39893508  1  -1.176415  0  -0.318864  -0.550447  0  2.327339  0
O  O139  1  0.59519425  0.30630858  0.57077813  1  -1.159384  0  -0.309687  -0.53851  0  2.320559  0
O  O140  1  0.43226936  0.49612499  0.68928119  1  -1.172398  0  -0.314019  -0.542939  0  2.317721  0
O  O141  1  0.53228600  0.47862686  0.32599827  1  -1.16415  0  -0.323449  -0.553931  0  2.337798  0
