# generated using pymatgen
data_CdH7C3N(ClO)2
_symmetry_space_group_name_H-M   'P 1'
_cell_length_a   6.98236301
_cell_length_b   8.26584954
_cell_length_c   12.44876531
_cell_angle_alpha   90.00011941
_cell_angle_beta   90.00005281
_cell_angle_gamma   89.99997829
_symmetry_Int_Tables_number   1
_chemical_formula_structural   CdH7C3N(ClO)2
_chemical_formula_sum   'Cd4 H28 C12 N4 Cl8 O8'
_cell_volume   718.48250747
_cell_formula_units_Z   4
loop_
 _symmetry_equiv_pos_site_id
 _symmetry_equiv_pos_as_xyz
  1  'x, y, z'
loop_
 _atom_site_type_symbol
 _atom_site_label
 _atom_site_symmetry_multiplicity
 _atom_site_fract_x
 _atom_site_fract_y
 _atom_site_fract_z
 _atom_site_occupancy
 _atom_site_hle17_bader_spin_density
 _atom_site_hle17_ddec_charge
 _atom_site_hle17_ddec_spin_density
 _atom_site_hle17_ddec_sum_bond_order
 _atom_site_hle17_magmom
 _atom_site_hse06_10hf_bader_spin_density
 _atom_site_hse06_10hf_ddec_charge
 _atom_site_hse06_10hf_ddec_spin_density
 _atom_site_hse06_10hf_ddec_sum_bond_order
 _atom_site_hse06_10hf_magmom
 _atom_site_hse06_bader_spin_density
 _atom_site_hse06_ddec_charge
 _atom_site_hse06_ddec_spin_density
 _atom_site_hse06_ddec_sum_bond_order
 _atom_site_hse06_magmom
 _atom_site_pbe_bader_spin_density
 _atom_site_pbe_cm5_charge
 _atom_site_pbe_ddec_charge
 _atom_site_pbe_ddec_spin_density
 _atom_site_pbe_ddec_sum_bond_order
 _atom_site_pbe_magmom
Cd  Cd0  1  0.18476982  0.24999760  0.22344089  1  0  1.043465  0  1.872053  0  0  0.890963  0  2.322637  0  0  0.941717  0  2.27346  0  0  0.602385  0.854819  0  2.35636  0
Cd  Cd1  1  0.68477105  0.24999759  0.27655804  1  0  1.043798  0  1.871995  0  0  0.891293  0  2.322566  0  0  0.942038  0  2.273386  0  0  0.602484  0.855156  0  2.356288  0
Cd  Cd2  1  0.31523569  0.74999899  0.72344350  1  0  1.043676  0  1.872077  0  0  0.891209  0  2.322639  0  0  0.941958  0  2.273465  0  0  0.602462  0.85507  0  2.356368  0
Cd  Cd3  1  0.81522832  0.75000139  0.77655823  1  0  1.04357  0  1.872051  0  0  0.891039  0  2.322625  0  0  0.941796  0  2.273444  0  0  0.602401  0.854895  0  2.356352  0
H  H4  1  0.92846510  0.35536052  0.62830074  1  0  0.118802  0  0.945374  0  0  0.126703  0  1.014347  0  0  0.129195  0  1.01372  0  0  0.092498  0.124855  0  1.014937  0
H  H5  1  0.42845963  0.35536341  0.87169332  1  0  0.118815  0  0.945269  0  0  0.126735  0  1.014199  0  0  0.129221  0  1.013575  0  0  0.092515  0.124893  0  1.014784  0
H  H6  1  0.92846084  0.14464654  0.62830220  1  0  0.118787  0  0.945262  0  0  0.126645  0  1.014306  0  0  0.129129  0  1.013687  0  0  0.092462  0.124802  0  1.014891  0
H  H7  1  0.57154134  0.85534229  0.12831238  1  0  0.118794  0  0.94525  0  0  0.126714  0  1.014225  0  0  0.12921  0  1.013594  0  0  0.092515  0.124864  0  1.014813  0
H  H8  1  0.07153161  0.64464816  0.37169116  1  0  0.118834  0  0.945257  0  0  0.126741  0  1.01419  0  0  0.129229  0  1.013567  0  0  0.092496  0.12489  0  1.014781  0
H  H9  1  0.57153995  0.64463558  0.12830902  1  0  0.118802  0  0.945299  0  0  0.126734  0  1.01425  0  0  0.129227  0  1.013623  0  0  0.09249  0.124881  0  1.014841  0
H  H10  1  0.07153301  0.85536213  0.37169372  1  0  0.11884  0  0.945228  0  0  0.126752  0  1.014155  0  0  0.129249  0  1.013523  0  0  0.092507  0.124904  0  1.014742  0
H  H11  1  0.42845394  0.14465186  0.87168755  1  0  0.118817  0  0.945263  0  0  0.12672  0  1.014215  0  0  0.129204  0  1.013591  0  0  0.092523  0.124874  0  1.014804  0
H  H12  1  0.24551723  0.35641687  0.66900245  1  0  0.065572  0  0.970438  0  0  0.077088  0  1.03947  0  0  0.077919  0  1.039696  0  0  0.088997  0.07638  0  1.039496  0
H  H13  1  0.74551131  0.35641944  0.83099947  1  0  0.065439  0  0.970421  0  0  0.077046  0  1.03947  0  0  0.077877  0  1.039694  0  0  0.08899  0.076337  0  1.039502  0
H  H14  1  0.24551440  0.14357970  0.66900150  1  0  0.065544  0  0.970477  0  0  0.077098  0  1.039474  0  0  0.077928  0  1.039699  0  0  0.089001  0.076386  0  1.039503  0
H  H15  1  0.25448393  0.85641672  0.16899900  1  0  0.065469  0  0.970368  0  0  0.077012  0  1.039445  0  0  0.077842  0  1.03967  0  0  0.088981  0.076305  0  1.039469  0
H  H16  1  0.75448665  0.64357729  0.33099346  1  0  0.065511  0  0.970347  0  0  0.077128  0  1.039379  0  0  0.07796  0  1.039604  0  0  0.088956  0.076415  0  1.03941  0
H  H17  1  0.25447681  0.64357592  0.16900046  1  0  0.065429  0  0.970477  0  0  0.077111  0  1.039387  0  0  0.077942  0  1.03961  0  0  0.089012  0.076397  0  1.039423  0
H  H18  1  0.75448518  0.85643139  0.33099522  1  0  0.06544  0  0.970414  0  0  0.077132  0  1.039364  0  0  0.077965  0  1.039587  0  0  0.08896  0.076414  0  1.0394  0
H  H19  1  0.74550705  0.14358106  0.83100253  1  0  0.065432  0  0.970452  0  0  0.077025  0  1.039517  0  0  0.077855  0  1.03974  0  0  0.088988  0.076317  0  1.039547  0
H  H20  1  0.49298503  0.25000048  0.55887269  1  0  0.337448  0  0.838267  0  0  0.315009  0  0.907325  0  0  0.322688  0  0.90061  0  0  0.30735  0.309418  0  0.912315  0
H  H21  1  0.99297915  0.25000219  0.94113091  1  0  0.337398  0  0.838309  0  0  0.314976  0  0.907357  0  0  0.322678  0  0.90064  0  0  0.307313  0.309334  0  0.91238  0
H  H22  1  0.00701900  0.74999680  0.05886580  1  0  0.337388  0  0.838347  0  0  0.314984  0  0.907408  0  0  0.322685  0  0.900696  0  0  0.307344  0.309342  0  0.912434  0
H  H23  1  0.50701026  0.75000214  0.44112402  1  0  0.337363  0  0.838377  0  0  0.314981  0  0.907413  0  0  0.322657  0  0.900706  0  0  0.307297  0.309367  0  0.912411  0
H  H24  1  0.34093332  0.34859885  0.47928086  1  0  0.326095  0  0.864051  0  0  0.306962  0  0.926599  0  0  0.314316  0  0.920773  0  0  0.296438  0.301645  0  0.930958  0
H  H25  1  0.84092872  0.34860408  0.02072317  1  0  0.326106  0  0.864021  0  0  0.307064  0  0.926518  0  0  0.314419  0  0.92069  0  0  0.29641  0.30174  0  0.93088  0
H  H26  1  0.34093478  0.15140072  0.47927992  1  0  0.326108  0  0.864085  0  0  0.306977  0  0.926629  0  0  0.314331  0  0.920803  0  0  0.296446  0.301659  0  0.930988  0
H  H27  1  0.15907082  0.84859787  0.97927449  1  0  0.326142  0  0.864015  0  0  0.307136  0  0.926482  0  0  0.314494  0  0.920651  0  0  0.296471  0.301813  0  0.930843  0
H  H28  1  0.65907772  0.65139410  0.52072147  1  0  0.326116  0  0.863963  0  0  0.307092  0  0.926457  0  0  0.314446  0  0.920628  0  0  0.296434  0.301768  0  0.930827  0
H  H29  1  0.15906942  0.65139612  0.97927355  1  0  0.32609  0  0.864036  0  0  0.307076  0  0.926511  0  0  0.314434  0  0.920681  0  0  0.296456  0.301755  0  0.930864  0
H  H30  1  0.65907768  0.84860916  0.52072402  1  0  0.326071  0  0.86397  0  0  0.307048  0  0.926466  0  0  0.314402  0  0.920637  0  0  0.296403  0.301726  0  0.930832  0
H  H31  1  0.84092589  0.15140354  0.02072303  1  0  0.326106  0  0.864031  0  0  0.307034  0  0.926545  0  0  0.31439  0  0.920715  0  0  0.296428  0.301711  0  0.930909  0
C  C32  1  0.93479533  0.24999905  0.47362267  1  0  0.72342  0  3.836389  0  0  0.679647  0  4.126004  0  0  0.714534  0  4.118667  0  0  0.202858  0.65585  0  4.130069  0
C  C33  1  0.43476109  0.25000209  0.02638532  1  0  0.722959  0  3.836055  0  0  0.679351  0  4.125501  0  0  0.714241  0  4.118162  0  0  0.202696  0.655549  0  4.12957  0
C  C34  1  0.56522990  0.74999328  0.97361541  1  0  0.723014  0  3.836077  0  0  0.67943  0  4.125494  0  0  0.714319  0  4.118156  0  0  0.202801  0.65563  0  4.129562  0
C  C35  1  0.06523146  0.75000115  0.52639252  1  0  0.722943  0  3.836428  0  0  0.679371  0  4.125815  0  0  0.714259  0  4.11848  0  0  0.202762  0.655572  0  4.129886  0
C  C36  1  0.99757638  0.25000164  0.59061985  1  0  -0.294729  0  3.594089  0  0  -0.322531  0  3.833343  0  0  -0.329772  0  3.84066  0  0  -0.168734  -0.317415  0  3.828272  0
C  C37  1  0.49754801  0.25000587  0.90938858  1  0  -0.294951  0  3.59367  0  0  -0.322666  0  3.832839  0  0  -0.329902  0  3.840156  0  0  -0.168923  -0.317557  0  3.827772  0
C  C38  1  0.50244011  0.74998708  0.09061135  1  0  -0.294797  0  3.593574  0  0  -0.322683  0  3.832902  0  0  -0.329939  0  3.840216  0  0  -0.168928  -0.317558  0  3.82783  0
C  C39  1  0.00244897  0.75000461  0.40939614  1  0  -0.294939  0  3.593722  0  0  -0.322672  0  3.832863  0  0  -0.329923  0  3.840175  0  0  -0.168932  -0.317546  0  3.827787  0
C  C40  1  0.21221476  0.24999942  0.62011478  1  0  0.105219  0  3.50239  0  0  0.046641  0  3.75431  0  0  0.051064  0  3.764918  0  0  -0.072084  0.043693  0  3.747154  0
C  C41  1  0.71218881  0.24999973  0.87988214  1  0  0.105984  0  3.500982  0  0  0.047098  0  3.753356  0  0  0.051525  0  3.763959  0  0  -0.071894  0.044141  0  3.746201  0
C  C42  1  0.28780074  0.74999443  0.12011779  1  0  0.10579  0  3.501203  0  0  0.047049  0  3.75345  0  0  0.051478  0  3.764061  0  0  -0.071879  0.044094  0  3.746287  0
C  C43  1  0.78779914  0.75000441  0.37988033  1  0  0.105572  0  3.501024  0  0  0.046674  0  3.753326  0  0  0.051093  0  3.763934  0  0  -0.071881  0.043731  0  3.74615  0
N  N44  1  0.35408505  0.24999926  0.53018946  1  0  -0.48334  0  3.245389  0  0  -0.435228  0  3.452924  0  0  -0.448763  0  3.449867  0  0  -0.614152  -0.425926  0  3.455484  0
N  N45  1  0.85407346  0.25000226  0.96981160  1  0  -0.483676  0  3.244686  0  0  -0.435657  0  3.452238  0  0  -0.449233  0  3.449171  0  0  -0.614248  -0.426288  0  3.45485  0
N  N46  1  0.14592469  0.74999673  0.03018350  1  0  -0.483564  0  3.244836  0  0  -0.435746  0  3.452462  0  0  -0.449332  0  3.4494  0  0  -0.614353  -0.426372  0  3.455078  0
N  N47  1  0.64591309  0.75000216  0.46981448  1  0  -0.483362  0  3.244711  0  0  -0.43553  0  3.452321  0  0  -0.449068  0  3.449269  0  0  -0.614147  -0.42619  0  3.454893  0
Cl  Cl48  1  0.41260385  0.46870601  0.31636201  1  0  -0.554513  0  1.009139  0  0  -0.491319  0  1.282264  0  0  -0.510281  0  1.260098  0  0  -0.263465  -0.477603  0  1.297484  0
Cl  Cl49  1  0.91259788  0.46870329  0.18364065  1  0  -0.554507  0  1.009187  0  0  -0.49132  0  1.282326  0  0  -0.51027  0  1.260144  0  0  -0.263473  -0.477603  0  1.297537  0
Cl  Cl50  1  0.41260249  0.03129302  0.31636331  1  0  -0.554523  0  1.009169  0  0  -0.491308  0  1.28228  0  0  -0.510268  0  1.260115  0  0  -0.263448  -0.477591  0  1.297499  0
Cl  Cl51  1  0.08739876  0.96870507  0.81635959  1  0  -0.554542  0  1.009192  0  0  -0.491347  0  1.282292  0  0  -0.510306  0  1.260129  0  0  -0.263476  -0.477629  0  1.29751  0
Cl  Cl52  1  0.58739430  0.53129419  0.68363631  1  0  -0.554504  0  1.009188  0  0  -0.491305  0  1.282299  0  0  -0.510273  0  1.260148  0  0  -0.263453  -0.477582  0  1.297528  0
Cl  Cl53  1  0.08739740  0.53129329  0.81635687  1  0  -0.55452  0  1.009214  0  0  -0.491321  0  1.282306  0  0  -0.510278  0  1.260142  0  0  -0.263467  -0.477603  0  1.29752  0
Cl  Cl54  1  0.58739566  0.96870597  0.68363983  1  0  -0.55452  0  1.0092  0  0  -0.491309  0  1.282294  0  0  -0.510271  0  1.260132  0  0  -0.263474  -0.477586  0  1.297523  0
Cl  Cl55  1  0.91259795  0.03129392  0.18363793  1  0  -0.554528  0  1.009183  0  0  -0.491327  0  1.282288  0  0  -0.51029  0  1.260134  0  0  -0.263471  -0.477611  0  1.297505  0
O  O56  1  0.05942117  0.25000032  0.40033870  1  0  -0.685505  0  2.133674  0  0  -0.616954  0  2.381424  0  0  -0.647386  0  2.373978  0  0  -0.343265  -0.595551  0  2.385721  0
O  O57  1  0.55943666  0.24999734  0.09966895  1  0  -0.685485  0  2.133243  0  0  -0.616929  0  2.380821  0  0  -0.647382  0  2.373405  0  0  -0.343249  -0.595521  0  2.385115  0
O  O58  1  0.44055576  0.75000166  0.90032696  1  0  -0.685492  0  2.133238  0  0  -0.616946  0  2.380807  0  0  -0.647398  0  2.373384  0  0  -0.343305  -0.595539  0  2.385104  0
O  O59  1  0.94056552  0.75000109  0.59966926  1  0  -0.685412  0  2.133531  0  0  -0.61686  0  2.381085  0  0  -0.647311  0  2.373667  0  0  -0.343253  -0.595454  0  2.385388  0
O  O60  1  0.75347848  0.24999906  0.45650443  1  0  -0.658045  0  1.995116  0  0  -0.596597  0  2.249994  0  0  -0.626537  0  2.239423  0  0  -0.343333  -0.57563  0  2.256579  0
O  O61  1  0.25345141  0.24999973  0.04347448  1  0  -0.657471  0  1.99498  0  0  -0.596244  0  2.249889  0  0  -0.626177  0  2.239317  0  0  -0.343046  -0.575278  0  2.256457  0
O  O62  1  0.74653814  0.74999927  0.95652946  1  0  -0.657669  0  1.995265  0  0  -0.596337  0  2.250078  0  0  -0.626268  0  2.239508  0  0  -0.343093  -0.575373  0  2.256647  0
O  O63  1  0.24654831  0.75000235  0.54348104  1  0  -0.657575  0  1.995125  0  0  -0.596351  0  2.250005  0  0  -0.626282  0  2.239429  0  0  -0.343103  -0.575383  0  2.256583  0
