# generated using pymatgen
data_Co3H18C28(N2O9)2
_symmetry_space_group_name_H-M   'P 1'
_cell_length_a   8.81307026
_cell_length_b   9.50319597
_cell_length_c   10.00979019
_cell_angle_alpha   79.15961754
_cell_angle_beta   87.49320275
_cell_angle_gamma   73.28471507
_symmetry_Int_Tables_number   1
_chemical_formula_structural   Co3H18C28(N2O9)2
_chemical_formula_sum   'Co3 H18 C28 N4 O18'
_cell_volume   788.54382841
_cell_formula_units_Z   1
loop_
 _symmetry_equiv_pos_site_id
 _symmetry_equiv_pos_as_xyz
  1  'x, y, z'
loop_
 _atom_site_type_symbol
 _atom_site_label
 _atom_site_symmetry_multiplicity
 _atom_site_fract_x
 _atom_site_fract_y
 _atom_site_fract_z
 _atom_site_occupancy
 _atom_site_hse06_10hf_bader_charge
 _atom_site_hse06_10hf_bader_spin_density
 _atom_site_hse06_10hf_ddec_charge
 _atom_site_hse06_10hf_ddec_spin_density
 _atom_site_hse06_10hf_ddec_sum_bond_order
 _atom_site_hse06_10hf_magmom
 _atom_site_hse06_ddec_charge
 _atom_site_hse06_ddec_spin_density
 _atom_site_hse06_ddec_sum_bond_order
 _atom_site_hse06_magmom
 _atom_site_pbe_cm5_charge
 _atom_site_pbe_ddec_charge
 _atom_site_pbe_ddec_spin_density
 _atom_site_pbe_ddec_sum_bond_order
 _atom_site_pbe_magmom
Co  Co0  1  0.00021256  0.50008822  0.49971847  1  1.394143  -2.667254  1.115273  -2.863236  2.316496  -2.653  1.193247  -2.916172  2.240427  -2.732  0.660839  1.048159  -2.797691  2.379288  -2.56
Co  Co1  1  0.89282498  0.41534765  0.82947682  1  1.173053  0.976512  0.805043  1.074354  2.673351  0.954  0.885613  1.075015  2.584221  0.962  0.62568  0.760146  1.081236  2.729136  0.944
Co  Co2  1  0.10697086  0.58466892  0.17052693  1  1.174574  -0.988076  0.807236  -1.036136  2.676502  -0.966  0.886752  -1.02105  2.588127  -0.965  0.630583  0.768427  -1.077038  2.727616  -0.989
H  H3  1  0.69480387  0.78543502  0.48144504  1  0.208908  0.000107  0.139378  0.000186  1.029071  0.0  0.144018  0.000178  1.024787  0.0  0.118397  0.13573  0.000219  1.032795  0.0
H  H4  1  0.30503852  0.21479070  0.51865226  1  0.207779  7.3e-05  0.139583  0.000223  1.02954  0.0  0.144228  0.000236  1.025215  0.0  0.118617  0.135986  0.000245  1.033252  0.0
H  H5  1  0.73375326  0.23469229  0.39479052  1  0.169372  -8.4e-05  0.12838  -1.4e-05  1.023358  0.0  0.132538  5e-06  1.01957  0.0  0.114259  0.125053  -5.4e-05  1.026573  0.0
H  H6  1  0.26627796  0.76548912  0.60522210  1  0.170053  -0.0002  0.128333  -4.5e-05  1.023646  0.0  0.13247  -1e-06  1.019892  0.0  0.114488  0.125195  -8.5e-05  1.026596  0.0
H  H7  1  0.92746110  0.94496501  0.76879852  1  0.106838  0.000182  0.113192  0.000137  1.009024  0.0  0.118348  7.6e-05  1.003939  0.0  0.10903  0.109251  0.000226  1.013018  0.0
H  H8  1  0.07277441  0.05514069  0.23107957  1  0.10845  -0.000224  0.113064  -0.000153  1.009095  0.0  0.118205  -8.4e-05  1.00401  0.0  0.109155  0.109221  -0.000217  1.012971  0.0
H  H9  1  0.38397024  0.30322608  0.99484145  1  0.152466  -0.000201  0.135317  -5.3e-05  1.007058  0.0  0.140009  -4.5e-05  1.003925  0.0  0.114636  0.131582  -4.9e-05  1.009989  0.0
H  H10  1  0.61635484  0.69615886  0.00517232  1  0.162492  0.000115  0.135058  3.1e-05  1.007174  0.0  0.139697  3.6e-05  1.004083  0.0  0.114811  0.131778  4e-05  1.009519  0.0
H  H11  1  0.65805238  0.31932361  0.02065815  1  0.164916  -0.000161  0.103811  -0.000117  1.020853  0.0  0.106637  -6.5e-05  1.017561  0.0  0.119222  0.101343  -0.000132  1.024113  0.0
H  H12  1  0.34208704  0.68034509  0.97927601  1  0.164432  5e-05  0.104234  8.4e-05  1.020793  0.0  0.107035  4.1e-05  1.017554  0.0  0.119747  0.102073  9.4e-05  1.023604  0.0
H  H13  1  0.66356314  0.53160744  0.61854065  1  0.125417  -1e-05  0.098692  -2e-06  1.046427  0.0  0.101709  6.2e-05  1.042881  0.0  0.12095  0.096195  -1.7e-05  1.049814  0.0
H  H14  1  0.33607841  0.46875519  0.38160734  1  0.12459  0.000321  0.098384  0.000349  1.046842  0.0  0.101345  0.000276  1.043356  0.0  0.121116  0.096197  0.0004  1.049888  0.0
H  H15  1  0.39329934  0.51445058  0.57547332  1  0.111695  -0.000158  0.117896  3.5e-05  1.04067  0.0  0.120645  5.7e-05  1.040367  0.0  0.110145  0.115988  -7e-06  1.040689  0.0
H  H16  1  0.60637182  0.48567665  0.42474835  1  0.109861  3.2e-05  0.117803  5.9e-05  1.040711  0.0  0.120484  0.000106  1.040482  0.0  0.110451  0.116349  -6e-06  1.040227  0.0
H  H17  1  0.01742742  0.27125484  0.05122806  1  0.676482  -0.000289  0.410426  2.8e-05  0.918604  0.0  0.42175  1.6e-05  0.902591  0.0  0.305352  0.402354  2.8e-05  0.930043  0.0
H  H18  1  0.98268437  0.72826560  0.94837545  1  0.673056  -0.000161  0.410074  -0.000373  0.919392  0.0  0.421381  -0.000237  0.903405  0.0  0.30504  0.402235  -0.000412  0.930526  0.0
H  H19  1  0.97199847  0.17155568  0.95541822  1  0.626213  -0.000328  0.416678  -0.000318  0.855402  0.0  0.426581  -8.5e-05  0.845168  0.0  0.329322  0.409369  -0.000343  0.863135  0.0
H  H20  1  0.02790494  0.82828548  0.04405287  1  0.631038  0.000173  0.41655  0.000224  0.855635  0.0  0.426369  2.8e-05  0.845534  0.0  0.329372  0.40966  0.000303  0.862772  0.0
C  C21  1  0.85034132  0.70097677  0.72922263  1  1.545591  -0.004756  0.611462  -0.002632  4.098994  -0.004  0.650125  -0.001181  4.091783  -0.002  0.226234  0.583872  -0.00391  4.103814  -0.006
C  C22  1  0.14977819  0.29911782  0.27065885  1  1.544596  -0.001739  0.61087  -0.001657  4.099705  -0.002  0.649473  -0.001627  4.092528  -0.002  0.22632  0.583663  -0.001793  4.104192  -0.002
C  C23  1  0.81646130  0.84802314  0.63546242  1  0.05909  -0.001152  -0.023752  -0.00061  3.971307  -0.001  -0.03413  -0.000291  3.99245  -0.001  -0.00736  -0.017508  -0.000699  3.95938  -0.001
C  C24  1  0.18360198  0.15210551  0.36449064  1  0.059088  0.001029  -0.023744  0.000908  3.969945  0.001  -0.03409  0.000692  3.990997  0.001  -0.007574  -0.017512  0.000694  3.957788  0.0
C  C25  1  0.73285125  0.87314709  0.51361957  1  -0.023415  0.001166  -0.117873  0.000714  3.906537  0.001  -0.112389  0.000566  3.921491  0.001  -0.066543  -0.12153  0.001197  3.897592  0.001
C  C26  1  0.26713798  0.12704588  0.48639225  1  -0.027274  0.000304  -0.118173  0.000365  3.905627  0.0  -0.112694  0.000252  3.92073  0.0  -0.066674  -0.121647  0.001871  3.896335  0.002
C  C27  1  0.70122432  0.01410472  0.43134837  1  0.202273  0.000215  0.056151  9.1e-05  3.961751  0.0  0.050617  2.3e-05  3.984308  0.0  0.073116  0.05939  0.000299  3.946197  0.0
C  C28  1  0.29872316  0.98607531  0.56867497  1  0.20568  -0.000253  0.056247  -0.000127  3.961133  0.0  0.05072  -7.8e-05  3.983604  0.0  0.073254  0.05962  -0.000264  3.94526  -0.001
C  C29  1  0.75543813  0.12763044  0.46344536  1  -0.028306  0.000656  -0.117079  0.00042  3.92556  0.001  -0.112095  0.000482  3.941712  0.001  -0.066348  -0.119093  -0.000387  3.914105  0.0
C  C30  1  0.24453636  0.87255152  0.53654987  1  -0.027605  -0.000155  -0.117619  -3.1e-05  3.926649  0.0  -0.112625  -0.000138  3.942843  0.0  -0.066477  -0.119239  0.000301  3.91458  0.0
C  C31  1  0.83841487  0.10175537  0.58577034  1  0.017803  -0.000286  -0.025506  -4.1e-05  3.958859  0.0  -0.036794  -0.000114  3.982662  0.0  -0.009782  -0.018346  0.000326  3.943969  0.0
C  C32  1  0.16174622  0.89833214  0.41413215  1  0.027497  -0.007394  -0.024966  -0.003957  3.95836  -0.006  -0.036254  -0.00282  3.982239  -0.004  -0.009395  -0.017993  -0.00511  3.943466  -0.007
C  C33  1  0.86482093  0.96350559  0.67282187  1  -0.058279  -0.001208  -0.064727  -0.000641  3.883432  -0.001  -0.059066  -0.000486  3.898202  -0.001  -0.057676  -0.070152  0.000479  3.875802  0.0
C  C34  1  0.13533710  0.03658864  0.32707652  1  -0.061997  -0.000641  -0.064562  -0.000349  3.883052  -0.001  -0.05886  -0.000431  3.897847  -0.001  -0.057902  -0.069923  0.001089  3.875316  0.001
C  C35  1  0.20679731  0.39918540  0.75026579  1  1.613179  -0.006526  0.623167  -0.004585  4.107053  -0.005  0.664709  -0.003257  4.095287  -0.004  0.229844  0.591993  -0.006339  4.117218  -0.006
C  C36  1  0.79301950  0.60063962  0.25013485  1  1.617567  9.7e-05  0.622708  -0.000243  4.1062  -0.001  0.664403  -0.000867  4.094382  -0.001  0.22988  0.591166  0.001636  4.116101  0.002
C  C37  1  0.36818314  0.40570950  0.78089131  1  -0.026754  -0.010643  0.02159  -0.00551  3.944569  -0.007  0.024781  -0.003185  3.956804  -0.004  0.004408  0.017236  -0.008454  3.941254  -0.01
C  C38  1  0.63176084  0.59406722  0.21926134  1  -0.025718  0.007018  0.022002  0.003841  3.943569  0.004  0.024999  0.002313  3.956014  0.003  0.005089  0.018771  0.005834  3.938785  0.006
C  C39  1  0.44256503  0.35305041  0.90841245  1  -0.005072  -0.000573  -0.12626  -0.000414  3.912165  0.0  -0.130945  -8.9e-05  3.926013  0.0  -0.06932  -0.124582  -0.000947  3.906509  0.0
C  C40  1  0.55757641  0.64655370  0.09161098  1  -0.013573  -0.003282  -0.126382  -0.001473  3.911117  -0.002  -0.1311  -0.001466  3.925198  -0.002  -0.06826  -0.124124  -0.001041  3.903512  -0.002
C  C41  1  0.59506591  0.36293299  0.92394219  1  0.448059  -0.00627  0.090931  -0.003208  3.90024  -0.004  0.101811  -0.001881  3.915232  -0.003  0.046548  0.082515  -0.004879  3.892557  -0.006
C  C42  1  0.40501267  0.63682551  0.07602886  1  0.449111  0.007625  0.090948  0.004086  3.900783  0.005  0.101645  0.002735  3.916006  0.003  0.047202  0.083473  0.005674  3.891677  0.007
C  C43  1  0.59869547  0.48022488  0.69843603  1  0.479162  -0.006777  0.079099  -0.0036  3.935474  -0.004  0.090893  -0.002305  3.948366  -0.003  0.033436  0.069411  -0.004865  3.931441  -0.005
C  C44  1  0.40103178  0.51993179  0.30168587  1  0.478738  0.007093  0.079245  0.004041  3.935459  0.005  0.09091  0.002857  3.948493  0.003  0.034206  0.070315  0.005135  3.930161  0.006
C  C45  1  0.44932621  0.47036091  0.67512848  1  -0.034152  -0.000347  -0.141021  -0.000201  3.965618  0.0  -0.147248  9.5e-05  3.982898  0.0  -0.080806  -0.138311  -0.000716  3.958179  0.0
C  C46  1  0.55046420  0.52964136  0.32502083  1  -0.033873  -0.00213  -0.140872  -0.000989  3.965375  -0.001  -0.147105  -0.001204  3.982853  -0.002  -0.080332  -0.137759  -0.000538  3.956269  -0.001
C  C47  1  0.89908781  0.22328588  0.62046208  1  1.632353  0.003493  0.611134  0.002277  4.187662  0.002  0.648171  0.001379  4.182827  0.001  0.213677  0.584311  0.003932  4.189778  0.004
C  C48  1  0.10126704  0.77671053  0.37942879  1  1.623802  -0.003693  0.611077  -0.003143  4.186862  -0.002  0.648155  -0.002874  4.181873  -0.003  0.213618  0.583989  -0.001652  4.189216  0.0
N  N49  1  0.67402426  0.42506736  0.82070882  1  -1.222148  -0.0126  -0.222916  -0.006414  3.646328  -0.01  -0.250613  -0.005606  3.66065  -0.009  -0.343604  -0.207683  -0.007158  3.638494  -0.011
N  N50  1  0.32594371  0.57496871  0.17933036  1  -1.221997  0.010636  -0.222605  0.00573  3.645063  0.008  -0.250233  0.004822  3.65971  0.007  -0.342704  -0.207516  0.006838  3.635592  0.01
N  N51  1  0.60793437  0.04361562  0.30517442  1  0.389111  0.000122  0.527313  6e-05  4.209433  0.0  0.548306  6e-05  4.217992  0.0  0.05712  0.51298  0.000285  4.203769  0.0
N  N52  1  0.39195512  0.95661631  0.69491340  1  0.392349  -0.00011  0.527171  -6e-05  4.208633  0.0  0.548183  -2.4e-05  4.217161  0.0  0.057251  0.512779  4.2e-05  4.202899  0.0
O  O53  1  0.85826456  0.69148331  0.85567456  1  -1.180957  0.015342  -0.540177  0.008959  2.234249  0.01  -0.566161  0.007582  2.221024  0.008  -0.282238  -0.52231  0.010814  2.243125  0.013
O  O54  1  0.14195357  0.30856689  0.14426680  1  -1.181656  -0.028501  -0.539236  -0.014956  2.23469  -0.021  -0.565307  -0.011962  2.221656  -0.017  -0.281083  -0.520817  -0.018719  2.243007  -0.027
O  O55  1  0.86650196  0.58137119  0.67724013  1  -1.145931  -0.035489  -0.580105  -0.019771  2.58383  -0.031  -0.62883  -0.018537  2.572626  -0.029  -0.290475  -0.544936  -0.021463  2.59156  -0.034
O  O56  1  0.13342483  0.41885569  0.32259771  1  -1.14482  -0.018903  -0.580683  -0.011897  2.587619  -0.016  -0.629436  -0.008541  2.576429  -0.009  -0.290696  -0.545826  -0.014975  2.595169  -0.021
O  O57  1  0.56160709  0.94095999  0.27750785  1  -0.466973  7.5e-05  -0.330022  5.3e-05  1.931079  0.0  -0.341578  2.3e-05  1.928926  0.0  -0.12573  -0.323113  0.000181  1.934018  0.0
O  O58  1  0.43868272  0.05911725  0.72232370  1  -0.469069  -0.00014  -0.330061  -6e-05  1.932258  0.0  -0.341617  -3.5e-05  1.930108  0.0  -0.125372  -0.322714  -0.000139  1.93502  0.0
O  O59  1  0.57944698  0.17090166  0.23424673  1  -0.491393  1.6e-05  -0.350941  4e-05  1.944711  0.0  -0.364586  2e-05  1.941754  0.0  -0.131277  -0.342225  0.000296  1.947989  0.0
O  O60  1  0.41991082  0.82945284  0.76609992  1  -0.4922  -9.1e-05  -0.350738  -6.8e-05  1.942968  0.0  -0.364445  -5.4e-05  1.940079  0.0  -0.131311  -0.341952  8.3e-05  1.946156  0.0
O  O61  1  0.10829293  0.40554131  0.84804533  1  -1.130595  -0.017506  -0.504194  -0.008639  2.432972  -0.016  -0.546711  -0.00702  2.421952  -0.014  -0.291039  -0.474966  -0.009892  2.440359  -0.018
O  O62  1  0.89167822  0.59461654  0.15235988  1  -1.133946  -0.000573  -0.505177  -0.000118  2.433832  -0.001  -0.547749  0.001294  2.422806  0.002  -0.291114  -0.475428  -0.003239  2.44007  -0.006
O  O63  1  0.94153642  0.21327098  0.74229405  1  -1.195153  0.042439  -0.58886  0.023212  2.298571  0.037  -0.622756  0.018097  2.287134  0.028  -0.308926  -0.563076  0.030399  2.304135  0.048
O  O64  1  0.05866194  0.78680276  0.25758179  1  -1.194711  -0.048216  -0.589461  -0.024619  2.296932  -0.043  -0.622991  -0.018684  2.285306  -0.033  -0.309202  -0.564079  -0.032036  2.302184  -0.055
O  O65  1  0.90052987  0.32932287  0.52144473  1  -1.19936  -0.044161  -0.611587  -0.024976  2.416625  -0.037  -0.648368  -0.020276  2.407264  -0.029  -0.312753  -0.580917  -0.029889  2.422375  -0.045
O  O66  1  0.09992709  0.67057215  0.47837411  1  -1.199058  -0.049355  -0.611584  -0.027294  2.417947  -0.042  -0.648211  -0.021825  2.408343  -0.032  -0.312345  -0.580469  -0.033088  2.423976  -0.052
O  O67  1  0.17946465  0.39088983  0.62886376  1  -1.187565  -0.053675  -0.594224  -0.029732  2.458508  -0.043  -0.630172  -0.022869  2.444282  -0.031  -0.305666  -0.565674  -0.037778  2.468674  -0.056
O  O68  1  0.82008900  0.60884314  0.37159290  1  -1.188515  -0.049563  -0.593339  -0.027645  2.460642  -0.04  -0.629284  -0.021693  2.446179  -0.03  -0.304672  -0.564271  -0.033878  2.471109  -0.05
O  O69  1  0.92880994  0.25943553  0.99775842  1  -1.203887  -0.002758  -0.708572  -0.001202  2.166731  -0.004  -0.741234  -0.001103  2.134818  -0.004  -0.539318  -0.686143  -4.2e-05  2.188607  -0.002
O  O70  1  0.07117161  0.74013104  0.00211953  1  -1.204926  0.001719  -0.708499  0.000799  2.16781  0.003  -0.741284  0.000834  2.13621  0.003  -0.53844  -0.685939  -0.000253  2.188107  0.001
