# generated using pymatgen
data_CdHgH10C8S4(N3O)2
_symmetry_space_group_name_H-M   'P 1'
_cell_length_a   7.55101243
_cell_length_b   15.25589637
_cell_length_c   16.20359336
_cell_angle_alpha   89.99996306
_cell_angle_beta   89.99974835
_cell_angle_gamma   90.00027678
_symmetry_Int_Tables_number   1
_chemical_formula_structural   CdHgH10C8S4(N3O)2
_chemical_formula_sum   'Cd4 Hg4 H40 C32 S16 N24 O8'
_cell_volume   1866.61284827
_cell_formula_units_Z   4
loop_
 _symmetry_equiv_pos_site_id
 _symmetry_equiv_pos_as_xyz
  1  'x, y, z'
loop_
 _atom_site_type_symbol
 _atom_site_label
 _atom_site_symmetry_multiplicity
 _atom_site_fract_x
 _atom_site_fract_y
 _atom_site_fract_z
 _atom_site_occupancy
 _atom_site_hle17_bader_spin_density
 _atom_site_hle17_ddec_charge
 _atom_site_hle17_ddec_spin_density
 _atom_site_hle17_ddec_sum_bond_order
 _atom_site_hle17_magmom
 _atom_site_hse06_10hf_bader_spin_density
 _atom_site_hse06_10hf_ddec_charge
 _atom_site_hse06_10hf_ddec_spin_density
 _atom_site_hse06_10hf_ddec_sum_bond_order
 _atom_site_hse06_10hf_magmom
 _atom_site_hse06_bader_spin_density
 _atom_site_hse06_ddec_charge
 _atom_site_hse06_ddec_spin_density
 _atom_site_hse06_ddec_sum_bond_order
 _atom_site_hse06_magmom
 _atom_site_pbe_bader_spin_density
 _atom_site_pbe_cm5_charge
 _atom_site_pbe_ddec_charge
 _atom_site_pbe_ddec_spin_density
 _atom_site_pbe_ddec_sum_bond_order
 _atom_site_pbe_magmom
Cd  Cd0  1  0.49058417  0.24649065  0.61659784  1  0  1.229024  0  1.808173  0  0  1.050233  0  2.294916  0  0  1.10071  0  2.23938  0  0  0.837592  1.014531  0  2.332998  0
Cd  Cd1  1  0.50941564  0.74649546  0.38340988  1  0  1.22899  0  1.808112  0  0  1.050156  0  2.29485  0  0  1.100637  0  2.239319  0  0  0.837544  1.014448  0  2.332929  0
Cd  Cd2  1  0.99058187  0.74648931  0.88340466  1  0  1.229049  0  1.808084  0  0  1.050256  0  2.294829  0  0  1.100733  0  2.239293  0  0  0.837572  1.014553  0  2.33291  0
Cd  Cd3  1  0.00941528  0.24649548  0.11659381  1  0  1.229103  0  1.808095  0  0  1.050343  0  2.294835  0  0  1.100816  0  2.239299  0  0  0.837612  1.01464  0  2.33291  0
Hg  Hg4  1  0.03306326  0.44043682  0.42390148  1  0  0.475518  0  2.202146  0  0  0.357028  0  2.685854  0  0  0.388015  0  2.669896  0  0  0.425883  0.336376  0  2.696266  0
Hg  Hg5  1  0.96692783  0.94043800  0.57609439  1  0  0.475446  0  2.202257  0  0  0.356955  0  2.685968  0  0  0.387938  0  2.670011  0  0  0.425857  0.336305  0  2.696379  0
Hg  Hg6  1  0.53306386  0.94043634  0.07609401  1  0  0.475486  0  2.202181  0  0  0.35699  0  2.685889  0  0  0.387974  0  2.669936  0  0  0.425866  0.336338  0  2.696305  0
Hg  Hg7  1  0.46692856  0.44044045  0.92390556  1  0  0.475448  0  2.202182  0  0  0.356953  0  2.685883  0  0  0.387936  0  2.66993  0  0  0.425877  0.3363  0  2.696306  0
H  H8  1  0.13453318  0.20144006  0.72307028  1  0  0.287758  0  0.934824  0  0  0.267493  0  1.002357  0  0  0.274796  0  0.997801  0  0  0.304438  0.262369  0  1.00559  0
H  H9  1  0.86547678  0.70144318  0.27693068  1  0  0.287738  0  0.934969  0  0  0.267484  0  1.002447  0  0  0.274786  0  0.99789  0  0  0.30445  0.262359  0  1.005681  0
H  H10  1  0.63452924  0.70144011  0.77692865  1  0  0.287803  0  0.934828  0  0  0.267501  0  1.002368  0  0  0.274805  0  0.997812  0  0  0.304448  0.262377  0  1.005602  0
H  H11  1  0.36547278  0.20144182  0.22307045  1  0  0.287808  0  0.934844  0  0  0.267531  0  1.002364  0  0  0.274831  0  0.997812  0  0  0.304466  0.262407  0  1.005596  0
H  H12  1  0.45430601  0.03825890  0.87289294  1  0  0.251769  0  0.961502  0  0  0.230079  0  1.038021  0  0  0.236374  0  1.035042  0  0  0.284564  0.225597  0  1.040238  0
H  H13  1  0.54570368  0.53826462  0.12710688  1  0  0.251708  0  0.961501  0  0  0.230032  0  1.038037  0  0  0.23632  0  1.035065  0  0  0.284567  0.225546  0  1.040258  0
H  H14  1  0.95430878  0.53825905  0.62710667  1  0  0.251819  0  0.961449  0  0  0.230124  0  1.037979  0  0  0.236419  0  1.034998  0  0  0.284567  0.225642  0  1.040196  0
H  H15  1  0.04568899  0.03826120  0.37289069  1  0  0.251744  0  0.96146  0  0  0.230051  0  1.038003  0  0  0.236343  0  1.035027  0  0  0.284531  0.225566  0  1.04022  0
H  H16  1  0.91021238  0.20008221  0.62952665  1  0  0.035173  0  0.944873  0  0  0.043435  0  1.01656  0  0  0.044202  0  1.01314  0  0  0.114611  0.042699  0  1.019121  0
H  H17  1  0.08979757  0.70008798  0.37047184  1  0  0.035174  0  0.944878  0  0  0.043466  0  1.016518  0  0  0.04424  0  1.013082  0  0  0.114625  0.04273  0  1.019088  0
H  H18  1  0.41021317  0.70008427  0.87047171  1  0  0.035206  0  0.944854  0  0  0.043452  0  1.016553  0  0  0.044223  0  1.013124  0  0  0.114619  0.042713  0  1.019113  0
H  H19  1  0.58979015  0.20008527  0.12952924  1  0  0.035164  0  0.944871  0  0  0.043421  0  1.016545  0  0  0.044195  0  1.01311  0  0  0.11461  0.042678  0  1.019121  0
H  H20  1  0.13651800  0.25797554  0.85467378  1  0  0.090593  0  0.962572  0  0  0.10896  0  1.030596  0  0  0.108966  0  1.031808  0  0  0.096748  0.108843  0  1.029838  0
H  H21  1  0.86348589  0.75797742  0.14532652  1  0  0.090582  0  0.962599  0  0  0.108946  0  1.030622  0  0  0.108955  0  1.03183  0  0  0.096752  0.108825  0  1.02987  0
H  H22  1  0.63652059  0.75797436  0.64532696  1  0  0.090616  0  0.962606  0  0  0.108994  0  1.030594  0  0  0.108998  0  1.031813  0  0  0.096757  0.108875  0  1.029838  0
H  H23  1  0.36348462  0.25797401  0.35467335  1  0  0.090588  0  0.962662  0  0  0.108966  0  1.030643  0  0  0.108974  0  1.031853  0  0  0.09675  0.108846  0  1.029892  0
H  H24  1  0.91364799  0.21978402  0.86475903  1  0  0.092897  0  0.933993  0  0  0.11301  0  0.997675  0  0  0.112994  0  0.998214  0  0  0.096612  0.112905  0  0.997403  0
H  H25  1  0.08636347  0.71978733  0.13523944  1  0  0.092838  0  0.933988  0  0  0.112969  0  0.99766  0  0  0.112955  0  0.998198  0  0  0.096603  0.11286  0  0.997386  0
H  H26  1  0.41365100  0.71978493  0.63523808  1  0  0.092882  0  0.933923  0  0  0.112975  0  0.997644  0  0  0.112961  0  0.99818  0  0  0.096584  0.112868  0  0.997374  0
H  H27  1  0.58635648  0.21978576  0.36476102  1  0  0.092845  0  0.933904  0  0  0.11293  0  0.997635  0  0  0.112916  0  0.998173  0  0  0.096571  0.112823  0  0.997365  0
H  H28  1  0.95563511  0.32751555  0.82751166  1  0  0.091718  0  0.941764  0  0  0.109925  0  1.008817  0  0  0.110318  0  1.008953  0  0  0.096504  0.109541  0  1.008805  0
H  H29  1  0.04437872  0.82752331  0.17248922  1  0  0.091736  0  0.941767  0  0  0.109873  0  1.008879  0  0  0.110273  0  1.009008  0  0  0.096485  0.109486  0  1.008864  0
H  H30  1  0.45563513  0.82751774  0.67248777  1  0  0.091764  0  0.941709  0  0  0.109931  0  1.008797  0  0  0.110323  0  1.008935  0  0  0.096489  0.109545  0  1.008783  0
H  H31  1  0.54437076  0.32751784  0.32751188  1  0  0.091729  0  0.9417  0  0  0.109887  0  1.008794  0  0  0.110288  0  1.008922  0  0  0.096492  0.109501  0  1.00878  0
H  H32  1  0.57402197  0.13966314  0.78940266  1  0  0.032898  0  0.959667  0  0  0.036072  0  1.040849  0  0  0.03778  0  1.03618  0  0  0.110835  0.034646  0  1.04436  0
H  H33  1  0.42598738  0.63966394  0.21059710  1  0  0.032926  0  0.959664  0  0  0.03607  0  1.040881  0  0  0.037803  0  1.036148  0  0  0.110855  0.034632  0  1.044419  0
H  H34  1  0.07402163  0.63966335  0.71059890  1  0  0.032892  0  0.959693  0  0  0.036062  0  1.04086  0  0  0.037764  0  1.036207  0  0  0.110859  0.034636  0  1.044368  0
H  H35  1  0.92597581  0.13966504  0.28940025  1  0  0.032872  0  0.959759  0  0  0.036047  0  1.040914  0  0  0.03775  0  1.036262  0  0  0.11087  0.034621  0  1.044425  0
H  H36  1  0.19547905  0.95741206  0.85546839  1  0  0.103569  0  0.955801  0  0  0.125232  0  1.014553  0  0  0.12515  0  1.015815  0  0  0.103333  0.125186  0  1.013748  0
H  H37  1  0.80452148  0.45741553  0.14453241  1  0  0.103612  0  0.955862  0  0  0.125228  0  1.014651  0  0  0.125145  0  1.015916  0  0  0.103315  0.125182  0  1.013849  0
H  H38  1  0.69548076  0.45741392  0.64452964  1  0  0.103572  0  0.955796  0  0  0.125215  0  1.014564  0  0  0.12513  0  1.015832  0  0  0.103335  0.12517  0  1.01376  0
H  H39  1  0.30451844  0.95741695  0.35546808  1  0  0.103615  0  0.955839  0  0  0.125229  0  1.014636  0  0  0.125145  0  1.015902  0  0  0.103326  0.125184  0  1.013831  0
H  H40  1  0.20165635  0.98458979  0.74839892  1  0  0.08526  0  0.960778  0  0  0.100923  0  1.036039  0  0  0.101127  0  1.035991  0  0  0.091379  0.100664  0  1.036166  0
H  H41  1  0.79834710  0.48459121  0.25160125  1  0  0.085266  0  0.960782  0  0  0.100924  0  1.036044  0  0  0.101129  0  1.035994  0  0  0.091379  0.100665  0  1.036172  0
H  H42  1  0.70165307  0.48459027  0.75159908  1  0  0.085267  0  0.960744  0  0  0.100929  0  1.036005  0  0  0.101134  0  1.035956  0  0  0.091394  0.100671  0  1.036134  0
H  H43  1  0.29833580  0.98459467  0.24839676  1  0  0.085253  0  0.960783  0  0  0.100903  0  1.036048  0  0  0.101105  0  1.036008  0  0  0.091355  0.100645  0  1.036173  0
H  H44  1  0.09568160  0.05632953  0.81975756  1  0  0.09248  0  0.93681  0  0  0.112043  0  1.001533  0  0  0.111937  0  1.002358  0  0  0.097635  0.112026  0  1.00102  0
H  H45  1  0.90432165  0.55633084  0.18024287  1  0  0.092467  0  0.936869  0  0  0.11205  0  1.001554  0  0  0.111944  0  1.002379  0  0  0.097635  0.112033  0  1.001041  0
H  H46  1  0.59568254  0.55633030  0.68023969  1  0  0.092458  0  0.936816  0  0  0.112021  0  1.001541  0  0  0.111916  0  1.002365  0  0  0.097633  0.112004  0  1.001027  0
H  H47  1  0.40431144  0.05633401  0.31975580  1  0  0.092494  0  0.936804  0  0  0.112048  0  1.001526  0  0  0.111942  0  1.002353  0  0  0.097623  0.112031  0  1.001014  0
C  C48  1  0.64628787  0.41040717  0.48764290  1  0  0.269567  0  4.005198  0  0  0.249654  0  4.310537  0  0  0.269915  0  4.326586  0  0  0.147111  0.23583  0  4.299492  0
C  C49  1  0.35371750  0.91041349  0.51236534  1  0  0.269298  0  4.00516  0  0  0.249385  0  4.310513  0  0  0.269646  0  4.326563  0  0  0.147018  0.235562  0  4.299461  0
C  C50  1  0.14628807  0.91040685  0.01235670  1  0  0.269468  0  4.005027  0  0  0.249556  0  4.310374  0  0  0.269818  0  4.326424  0  0  0.147048  0.235734  0  4.299323  0
C  C51  1  0.85371995  0.41040004  0.98762931  1  0  0.269435  0  4.005203  0  0  0.24952  0  4.310547  0  0  0.269781  0  4.326596  0  0  0.14707  0.235696  0  4.299495  0
C  C52  1  0.17637588  0.41082620  0.24337781  1  0  0.282867  0  3.965476  0  0  0.267854  0  4.26184  0  0  0.288143  0  4.276328  0  0  0.149434  0.253952  0  4.25189  0
C  C53  1  0.82361890  0.91082103  0.75662117  1  0  0.282817  0  3.965342  0  0  0.267795  0  4.261705  0  0  0.288083  0  4.276195  0  0  0.149361  0.253896  0  4.25175  0
C  C54  1  0.67636683  0.91082495  0.25662173  1  0  0.282611  0  3.965437  0  0  0.267578  0  4.261852  0  0  0.287868  0  4.276343  0  0  0.149294  0.253675  0  4.251898  0
C  C55  1  0.32363060  0.41082097  0.74337786  1  0  0.282665  0  3.965525  0  0  0.267631  0  4.261922  0  0  0.287918  0  4.276415  0  0  0.149316  0.25373  0  4.251973  0
C  C56  1  0.29189779  0.58378233  0.49536989  1  0  0.286222  0  3.974173  0  0  0.265733  0  4.277652  0  0  0.286284  0  4.291898  0  0  0.14663  0.251671  0  4.267847  0
C  C57  1  0.70809116  0.08378140  0.50462806  1  0  0.28604  0  3.973987  0  0  0.265541  0  4.277517  0  0  0.286091  0  4.291774  0  0  0.146535  0.251474  0  4.267722  0
C  C58  1  0.79190876  0.08377380  0.00463085  1  0  0.286201  0  3.974116  0  0  0.265715  0  4.277613  0  0  0.286264  0  4.291866  0  0  0.146582  0.251658  0  4.267806  0
C  C59  1  0.20810270  0.58378338  0.99536956  1  0  0.286132  0  3.97423  0  0  0.265639  0  4.277714  0  0  0.286187  0  4.291967  0  0  0.146596  0.251578  0  4.267904  0
C  C60  1  0.13387100  0.24637621  0.49173763  1  0  0.279353  0  3.972232  0  0  0.261777  0  4.273026  0  0  0.282389  0  4.287698  0  0  0.148244  0.247686  0  4.262864  0
C  C61  1  0.86613145  0.74638507  0.50826392  1  0  0.279325  0  3.97228  0  0  0.261746  0  4.273082  0  0  0.282359  0  4.28775  0  0  0.148302  0.247655  0  4.262917  0
C  C62  1  0.63385105  0.74638102  0.00826272  1  0  0.27949  0  3.972144  0  0  0.261921  0  4.272927  0  0  0.282532  0  4.287593  0  0  0.148196  0.247832  0  4.262772  0
C  C63  1  0.36613154  0.24638091  0.99174130  1  0  0.279405  0  3.972298  0  0  0.261833  0  4.273085  0  0  0.282445  0  4.287758  0  0  0.148283  0.247745  0  4.262916  0
C  C64  1  0.88015267  0.22622614  0.69138024  1  0  0.447545  0  3.838469  0  0  0.374442  0  4.12814  0  0  0.403246  0  4.128591  0  0  0.166029  0.355166  0  4.127161  0
C  C65  1  0.11985356  0.72623334  0.30861885  1  0  0.447587  0  3.838368  0  0  0.374437  0  4.128032  0  0  0.403239  0  4.128486  0  0  0.166063  0.355148  0  4.127066  0
C  C66  1  0.38015272  0.72622955  0.80861879  1  0  0.447587  0  3.838518  0  0  0.37444  0  4.128168  0  0  0.403243  0  4.128621  0  0  0.166017  0.355164  0  4.127187  0
C  C67  1  0.61984953  0.22623058  0.19138030  1  0  0.447662  0  3.838453  0  0  0.374549  0  4.128098  0  0  0.403351  0  4.128553  0  0  0.166043  0.35527  0  4.127122  0
C  C68  1  0.00419018  0.25963704  0.82720409  1  0  -0.107033  0  3.660276  0  0  -0.203952  0  3.911427  0  0  -0.199125  0  3.921419  0  0  -0.139621  -0.206983  0  3.904642  0
C  C69  1  0.99581504  0.75964382  0.17279313  1  0  -0.106939  0  3.66007  0  0  -0.203858  0  3.911243  0  0  -0.199039  0  3.92123  0  0  -0.139611  -0.206886  0  3.904455  0
C  C70  1  0.50419517  0.75963978  0.67279384  1  0  -0.107068  0  3.66019  0  0  -0.203999  0  3.911311  0  0  -0.199174  0  3.921302  0  0  -0.139625  -0.207032  0  3.90453  0
C  C71  1  0.49580741  0.25963846  0.32720585  1  0  -0.106956  0  3.660143  0  0  -0.203839  0  3.911269  0  0  -0.199023  0  3.921259  0  0  -0.139591  -0.206871  0  3.904487  0
C  C72  1  0.44116160  0.11557132  0.77327120  1  0  0.44905  0  3.849518  0  0  0.368469  0  4.152251  0  0  0.397715  0  4.151758  0  0  0.164587  0.348861  0  4.151975  0
C  C73  1  0.55885149  0.61557701  0.22673228  1  0  0.449179  0  3.849254  0  0  0.368579  0  4.15205  0  0  0.397813  0  4.151566  0  0  0.164693  0.348971  0  4.15176  0
C  C74  1  0.94116211  0.61557074  0.72673086  1  0  0.449181  0  3.849403  0  0  0.36861  0  4.152146  0  0  0.397854  0  4.151644  0  0  0.164622  0.349005  0  4.151867  0
C  C75  1  0.05883509  0.11557365  0.27326707  1  0  0.449214  0  3.849419  0  0  0.368662  0  4.152144  0  0  0.3979  0  4.151647  0  0  0.164607  0.349055  0  4.151871  0
C  C76  1  0.20747437  0.01117336  0.81127847  1  0  -0.109136  0  3.656299  0  0  -0.207196  0  3.90546  0  0  -0.202127  0  3.915354  0  0  -0.14107  -0.2104  0  3.898701  0
C  C77  1  0.79252711  0.51117505  0.18872260  1  0  -0.109227  0  3.656508  0  0  -0.20724  0  3.905664  0  0  -0.20218  0  3.915554  0  0  -0.141058  -0.210443  0  3.898903  0
C  C78  1  0.70747523  0.51117412  0.68872166  1  0  -0.109103  0  3.656314  0  0  -0.207138  0  3.905484  0  0  -0.202067  0  3.915374  0  0  -0.141094  -0.210339  0  3.898726  0
C  C79  1  0.29251963  0.01117625  0.31127571  1  0  -0.109217  0  3.656574  0  0  -0.207206  0  3.905728  0  0  -0.202145  0  3.915624  0  0  -0.141081  -0.210409  0  3.898968  0
S  S80  1  0.71160561  0.49538294  0.43319007  1  0  -0.18678  0  2.262457  0  0  -0.154752  0  2.603854  0  0  -0.170981  0  2.600275  0  0  -0.087736  -0.143767  0  2.606197  0
S  S81  1  0.28837145  0.99538972  0.56681318  1  0  -0.186663  0  2.262473  0  0  -0.154628  0  2.603871  0  0  -0.170845  0  2.600262  0  0  -0.087691  -0.143647  0  2.606218  0
S  S82  1  0.21161192  0.99538717  0.06680565  1  0  -0.186708  0  2.262309  0  0  -0.154671  0  2.603706  0  0  -0.170901  0  2.60012  0  0  -0.087669  -0.143693  0  2.60605  0
S  S83  1  0.78838501  0.49538352  0.93318958  1  0  -0.186696  0  2.262266  0  0  -0.154663  0  2.603667  0  0  -0.170893  0  2.600089  0  0  -0.087699  -0.143674  0  2.606013  0
S  S84  1  0.21942870  0.50020864  0.54988012  1  0  -0.224505  0  2.225126  0  0  -0.183497  0  2.551066  0  0  -0.200008  0  2.546835  0  0  -0.091151  -0.172093  0  2.553794  0
S  S85  1  0.78056871  0.00020923  0.45011973  1  0  -0.224395  0  2.225221  0  0  -0.183367  0  2.551163  0  0  -0.199876  0  2.546931  0  0  -0.091118  -0.171953  0  2.553892  0
S  S86  1  0.71942885  0.00020505  0.95011691  1  0  -0.224535  0  2.225194  0  0  -0.183507  0  2.551102  0  0  -0.200017  0  2.546872  0  0  -0.091189  -0.172106  0  2.55383  0
S  S87  1  0.28056855  0.50021478  0.04987985  1  0  -0.224408  0  2.22527  0  0  -0.183372  0  2.551178  0  0  -0.199884  0  2.546956  0  0  -0.091121  -0.171964  0  2.553902  0
S  S88  1  0.99700209  0.27155770  0.41680089  1  0  -0.20187  0  2.255371  0  0  -0.166791  0  2.593724  0  0  -0.183698  0  2.589837  0  0  -0.086982  -0.155168  0  2.596139  0
S  S89  1  0.00300061  0.77155788  0.58320003  1  0  -0.201826  0  2.255359  0  0  -0.166742  0  2.593702  0  0  -0.183648  0  2.589817  0  0  -0.086981  -0.15513  0  2.596113  0
S  S90  1  0.49699500  0.77156061  0.08320611  1  0  -0.201845  0  2.255354  0  0  -0.16677  0  2.593728  0  0  -0.183676  0  2.589829  0  0  -0.086908  -0.155152  0  2.596142  0
S  S91  1  0.50299710  0.27155890  0.91680345  1  0  -0.201844  0  2.255294  0  0  -0.166771  0  2.593652  0  0  -0.183675  0  2.589762  0  0  -0.086988  -0.155155  0  2.596065  0
S  S92  1  0.23248369  0.49233310  0.30449688  1  0  -0.229144  0  2.263705  0  0  -0.19664  0  2.607869  0  0  -0.214437  0  2.605082  0  0  -0.100894  -0.184442  0  2.609528  0
S  S93  1  0.76750658  0.99232848  0.69550390  1  0  -0.229099  0  2.263604  0  0  -0.196606  0  2.607805  0  0  -0.214401  0  2.60502  0  0  -0.100846  -0.184412  0  2.609466  0
S  S94  1  0.73248185  0.99233057  0.19550496  1  0  -0.229085  0  2.263684  0  0  -0.196561  0  2.607817  0  0  -0.214354  0  2.605034  0  0  -0.100874  -0.184368  0  2.609478  0
S  S95  1  0.26751505  0.49233035  0.80449273  1  0  -0.229046  0  2.263675  0  0  -0.196532  0  2.607836  0  0  -0.214323  0  2.605054  0  0  -0.100846  -0.184332  0  2.609502  0
N  N96  1  0.59620007  0.35057122  0.52707620  1  0  -0.516214  0  2.893473  0  0  -0.463746  0  3.172194  0  0  -0.486036  0  3.180534  0  0  -0.369833  -0.448464  0  3.166396  0
N  N97  1  0.40379412  0.85057637  0.47292899  1  0  -0.51603  0  2.893397  0  0  -0.463554  0  3.172118  0  0  -0.485844  0  3.180458  0  0  -0.369765  -0.448267  0  3.166308  0
N  N98  1  0.09619196  0.85056993  0.97292519  1  0  -0.516183  0  2.893465  0  0  -0.463712  0  3.172189  0  0  -0.486005  0  3.180533  0  0  -0.369823  -0.448429  0  3.166382  0
N  N99  1  0.90379959  0.35057176  0.02707691  1  0  -0.516166  0  2.893709  0  0  -0.463692  0  3.172415  0  0  -0.485983  0  3.180758  0  0  -0.36981  -0.448406  0  3.166608  0
N  N100  1  0.13969331  0.35269324  0.19883034  1  0  -0.495804  0  2.849542  0  0  -0.444447  0  3.12122  0  0  -0.464615  0  3.128051  0  0  -0.363551  -0.430601  0  3.116511  0
N  N101  1  0.86030356  0.85268616  0.80116621  1  0  -0.495788  0  2.84939  0  0  -0.444407  0  3.121037  0  0  -0.464572  0  3.127869  0  0  -0.36353  -0.430555  0  3.116315  0
N  N102  1  0.63968914  0.85269065  0.30116932  1  0  -0.495583  0  2.849356  0  0  -0.444204  0  3.12103  0  0  -0.46437  0  3.127866  0  0  -0.363449  -0.430359  0  3.116322  0
N  N103  1  0.36030375  0.35268678  0.69883032  1  0  -0.495663  0  2.849465  0  0  -0.444266  0  3.121098  0  0  -0.464433  0  3.127934  0  0  -0.363486  -0.430419  0  3.116393  0
N  N104  1  0.34752127  0.64226800  0.45567615  1  0  -0.510617  0  2.873997  0  0  -0.457976  0  3.15398  0  0  -0.47916  0  3.160824  0  0  -0.363147  -0.443427  0  3.149268  0
N  N105  1  0.65246560  0.14226428  0.54432485  1  0  -0.5105  0  2.873723  0  0  -0.457841  0  3.1537  0  0  -0.479027  0  3.160557  0  0  -0.363064  -0.443291  0  3.148989  0
N  N106  1  0.84752657  0.14226272  0.04432259  1  0  -0.510584  0  2.873898  0  0  -0.457944  0  3.153862  0  0  -0.479129  0  3.160713  0  0  -0.363068  -0.443403  0  3.149152  0
N  N107  1  0.15246692  0.64226629  0.95567779  1  0  -0.510578  0  2.873934  0  0  -0.45793  0  3.153907  0  0  -0.479114  0  3.160757  0  0  -0.363128  -0.443385  0  3.149196  0
N  N108  1  0.23048815  0.22556599  0.54549289  1  0  -0.512031  0  2.85781  0  0  -0.46071  0  3.133773  0  0  -0.480812  0  3.139263  0  0  -0.374642  -0.446898  0  3.129949  0
N  N109  1  0.76951542  0.72557138  0.45450990  1  0  -0.512034  0  2.857837  0  0  -0.460715  0  3.133801  0  0  -0.480819  0  3.139293  0  0  -0.374705  -0.446894  0  3.129955  0
N  N110  1  0.73048254  0.72557378  0.95451385  1  0  -0.512172  0  2.857728  0  0  -0.460852  0  3.133686  0  0  -0.480953  0  3.139169  0  0  -0.374661  -0.447049  0  3.129876  0
N  N111  1  0.26951176  0.22556949  0.04549697  1  0  -0.512133  0  2.857995  0  0  -0.460817  0  3.133961  0  0  -0.480921  0  3.139448  0  0  -0.374688  -0.446997  0  3.13012  0
N  N112  1  0.01612127  0.22655021  0.74317211  1  0  -0.336173  0  3.402188  0  0  -0.264513  0  3.653959  0  0  -0.286414  0  3.666324  0  0  -0.418939  -0.249719  0  3.645199  0
N  N113  1  0.98388496  0.72655427  0.25682760  1  0  -0.336211  0  3.402175  0  0  -0.264496  0  3.653838  0  0  -0.286394  0  3.666204  0  0  -0.418941  -0.249703  0  3.645082  0
N  N114  1  0.51612017  0.72655092  0.75682644  1  0  -0.336291  0  3.402275  0  0  -0.264469  0  3.653885  0  0  -0.286369  0  3.666252  0  0  -0.418913  -0.249677  0  3.645127  0
N  N115  1  0.48388077  0.22655225  0.24317204  1  0  -0.336339  0  3.402298  0  0  -0.264584  0  3.653941  0  0  -0.286485  0  3.666314  0  0  -0.418959  -0.249791  0  3.645185  0
N  N116  1  0.37607576  0.05520834  0.82394523  1  0  -0.327757  0  3.419739  0  0  -0.252943  0  3.666297  0  0  -0.275043  0  3.679375  0  0  -0.419406  -0.23799  0  3.657065  0
N  N117  1  0.62393145  0.55521290  0.17605643  1  0  -0.327632  0  3.419508  0  0  -0.252871  0  3.666114  0  0  -0.274944  0  3.67917  0  0  -0.419422  -0.237917  0  3.656879  0
N  N118  1  0.87607807  0.55520910  0.67605576  1  0  -0.327885  0  3.419661  0  0  -0.253078  0  3.666225  0  0  -0.275173  0  3.679294  0  0  -0.419411  -0.238129  0  3.656993  0
N  N119  1  0.12391855  0.05521017  0.32394220  1  0  -0.327792  0  3.419714  0  0  -0.252989  0  3.666267  0  0  -0.275074  0  3.679332  0  0  -0.41934  -0.238036  0  3.657036  0
O  O120  1  0.72782612  0.25346526  0.71033915  1  0  -0.56403  0  2.041945  0  0  -0.49614  0  2.294581  0  0  -0.52245  0  2.286319  0  0  -0.31836  -0.47772  0  2.299418  0
O  O121  1  0.27218302  0.75347415  0.28966240  1  0  -0.564058  0  2.041868  0  0  -0.496151  0  2.29449  0  0  -0.522473  0  2.286245  0  0  -0.318403  -0.477727  0  2.299325  0
O  O122  1  0.22782635  0.75346868  0.78966018  1  0  -0.56406  0  2.041911  0  0  -0.496184  0  2.294563  0  0  -0.522493  0  2.286303  0  0  -0.318379  -0.477763  0  2.299395  0
O  O123  1  0.77217484  0.25346941  0.21033889  1  0  -0.564049  0  2.041889  0  0  -0.496196  0  2.294565  0  0  -0.5225  0  2.28629  0  0  -0.318368  -0.477768  0  2.299382  0
O  O124  1  0.35972130  0.14411955  0.71090733  1  0  -0.562196  0  2.085317  0  0  -0.489136  0  2.341217  0  0  -0.515234  0  2.33254  0  0  -0.306826  -0.470936  0  2.346548  0
O  O125  1  0.64028810  0.64412015  0.28909860  1  0  -0.562369  0  2.085382  0  0  -0.489183  0  2.341138  0  0  -0.515303  0  2.332522  0  0  -0.30692  -0.47099  0  2.346471  0
O  O126  1  0.85971989  0.64412024  0.78909426  1  0  -0.562266  0  2.08525  0  0  -0.489189  0  2.341127  0  0  -0.515293  0  2.332467  0  0  -0.306866  -0.470988  0  2.346459  0
O  O127  1  0.14028156  0.14412404  0.21090612  1  0  -0.562207  0  2.085236  0  0  -0.489183  0  2.341167  0  0  -0.51527  0  2.332475  0  0  -0.306841  -0.470984  0  2.346499  0
