# generated using pymatgen
data_NiH10C12(NO2)2
_symmetry_space_group_name_H-M   'P 1'
_cell_length_a   8.65217024
_cell_length_b   8.90391460
_cell_length_c   8.90393781
_cell_angle_alpha   73.99053288
_cell_angle_beta   89.01397064
_cell_angle_gamma   89.01401082
_symmetry_Int_Tables_number   1
_chemical_formula_structural   NiH10C12(NO2)2
_chemical_formula_sum   'Ni2 H20 C24 N4 O8'
_cell_volume   659.18662508
_cell_formula_units_Z   2
loop_
 _symmetry_equiv_pos_site_id
 _symmetry_equiv_pos_as_xyz
  1  'x, y, z'
loop_
 _atom_site_type_symbol
 _atom_site_label
 _atom_site_symmetry_multiplicity
 _atom_site_fract_x
 _atom_site_fract_y
 _atom_site_fract_z
 _atom_site_occupancy
 _atom_site_hle17_ddec_charge
 _atom_site_hle17_ddec_spin_density
 _atom_site_hle17_ddec_sum_bond_order
 _atom_site_hle17_magmom
 _atom_site_hse06_10hf_ddec_charge
 _atom_site_hse06_10hf_ddec_spin_density
 _atom_site_hse06_10hf_ddec_sum_bond_order
 _atom_site_hse06_10hf_magmom
 _atom_site_hse06_ddec_charge
 _atom_site_hse06_ddec_spin_density
 _atom_site_hse06_ddec_sum_bond_order
 _atom_site_hse06_magmom
 _atom_site_pbe_cm5_charge
 _atom_site_pbe_ddec_charge
 _atom_site_pbe_ddec_spin_density
 _atom_site_pbe_ddec_sum_bond_order
 _atom_site_pbe_magmom
Ni  Ni0  1  0.24999963  0.85063478  0.14936394  1  0.768815  -1.829375  2.160271  -1.483  0.772099  -1.846276  2.559025  -1.603  0.859684  -1.919346  2.48857  -1.695  0.640196  0.707202  -1.762405  2.610433  -1.508
Ni  Ni1  1  0.75000025  0.14936172  0.85063912  1  0.76886  1.829375  2.160164  1.483  0.772165  1.846274  2.558902  1.603  0.859609  1.919343  2.488662  1.695  0.64019  0.70728  1.762405  2.61029  1.508
H  H2  1  0.99103920  0.67647673  0.33581841  1  0.085966  -0.000807  0.943437  -0.002  0.093126  -0.000583  1.006634  -0.001  0.09592  -0.000416  1.003979  -0.001  0.116677  0.090947  -0.00074  1.00885  -0.001
H  H3  1  0.50896341  0.66417854  0.32351998  1  0.085981  -0.000808  0.943505  -0.002  0.09313  -0.000583  1.006706  -0.001  0.095923  -0.000416  1.00405  -0.001  0.116677  0.090958  -0.00074  1.008913  -0.001
H  H4  1  0.00896289  0.32352678  0.66418154  1  0.085948  0.00081  0.943491  0.002  0.093124  0.000583  1.006673  0.001  0.095918  0.000416  1.004017  0.001  0.116671  0.090945  0.00074  1.008888  0.001
H  H5  1  0.49103991  0.33581913  0.67647820  1  0.085973  0.000811  0.943465  0.002  0.093129  0.000583  1.006663  0.001  0.095923  0.000416  1.004006  0.001  0.116676  0.090954  0.00074  1.008875  0.001
H  H6  1  0.86629661  0.41544388  0.37756860  1  0.09845  -0.00034  0.961542  0.0  0.107489  -0.000414  1.020766  0.0  0.109811  -0.000303  1.021992  0.0  0.103382  0.105903  -0.000527  1.019986  0.0
H  H7  1  0.63370203  0.62242667  0.58455523  1  0.098431  -0.000341  0.961605  0.0  0.107448  -0.000414  1.020846  0.0  0.10977  -0.000303  1.022073  0.0  0.103381  0.105865  -0.000527  1.020059  0.0
H  H8  1  0.13370086  0.58455962  0.62243257  1  0.098466  0.00034  0.961489  0.0  0.107488  0.000414  1.020733  0.0  0.109814  0.000303  1.021946  0.0  0.103384  0.105903  0.000527  1.019951  0.0
H  H9  1  0.36630126  0.37757334  0.41544455  1  0.098422  0.000341  0.961508  0.0  0.107452  0.000414  1.020746  0.0  0.109776  0.000303  1.021968  0.0  0.103381  0.105869  0.000527  1.019962  0.0
H  H10  1  0.98083552  0.22620734  0.24038398  1  0.104528  -0.000277  0.95953  -0.001  0.113038  4.7e-05  1.022679  0.0  0.116474  4.2e-05  1.019811  0.0  0.107962  0.110064  4.8e-05  1.025376  0.0
H  H11  1  0.51916189  0.75961147  0.77378954  1  0.104502  -0.000273  0.959448  -0.001  0.112988  4.7e-05  1.022626  0.0  0.116426  4.2e-05  1.019756  0.0  0.107928  0.110013  4.8e-05  1.025327  0.0
H  H12  1  0.01916196  0.77379500  0.75961751  1  0.104484  0.000274  0.959504  0.001  0.113023  -4.7e-05  1.022627  0.0  0.116461  -4.2e-05  1.019756  0.0  0.107962  0.110049  -4.8e-05  1.025325  0.0
H  H13  1  0.48083677  0.24038853  0.22620808  1  0.104512  0.000275  0.959416  0.001  0.113013  -4.7e-05  1.022578  0.0  0.116447  -4.2e-05  1.019713  0.0  0.107929  0.110038  -4.8e-05  1.025279  0.0
H  H14  1  0.21720667  0.30493598  0.07170025  1  0.121138  -0.000402  0.963732  0.0  0.128331  -0.000455  1.024089  0.0  0.133407  -0.000307  1.02088  0.0  0.107265  0.124286  -0.000601  1.026867  -0.001
H  H15  1  0.28279329  0.92830004  0.69505860  1  0.121206  -0.000405  0.963693  0.0  0.128387  -0.000455  1.024059  0.0  0.133465  -0.000307  1.020845  0.0  0.107284  0.124345  -0.000601  1.026831  -0.001
H  H16  1  0.78279204  0.69506169  0.92830363  1  0.121163  0.000402  0.96365  0.0  0.128326  0.000455  1.024038  0.0  0.133402  0.000307  1.020828  0.0  0.107269  0.124283  0.000601  1.026814  0.001
H  H17  1  0.71720310  0.07169762  0.30494083  1  0.121156  0.000402  0.963748  0.0  0.128345  0.000455  1.024107  0.0  0.133423  0.000307  1.020895  0.0  0.107274  0.124303  0.000601  1.026879  0.001
H  H18  1  0.32425446  0.57356008  0.03962136  1  0.093  -0.000868  0.933696  -0.002  0.101173  -0.000638  0.994774  -0.001  0.104265  -0.000464  0.991459  -0.001  0.120552  0.098602  -0.000802  0.997637  -0.002
H  H19  1  0.17574883  0.96037820  0.42643389  1  0.093078  -0.000868  0.933597  -0.002  0.101197  -0.000638  0.994733  -0.001  0.10429  -0.000465  0.991417  -0.001  0.120543  0.098623  -0.000802  0.9976  -0.002
H  H20  1  0.67574889  0.42643642  0.96038051  1  0.093041  0.000868  0.933618  0.002  0.10116  0.000638  0.994748  0.001  0.104252  0.000465  0.991434  0.001  0.120543  0.098588  0.000802  0.997613  0.002
H  H21  1  0.82424989  0.03961829  0.57356469  1  0.093042  0.000869  0.933634  0.002  0.101187  0.000638  0.994741  0.001  0.10428  0.000464  0.991426  0.001  0.120554  0.098614  0.000802  0.997605  0.002
C  C22  1  0.03655929  0.59005265  0.27999036  1  0.105648  0.010882  3.715018  0.013  0.078578  0.002746  3.97114  0.004  0.086656  0.003185  3.989875  0.005  0.03931  0.072219  0.00281  3.959961  0.004
C  C23  1  0.46344378  0.72000836  0.40994266  1  0.105512  0.010883  3.715078  0.013  0.078445  0.002746  3.971224  0.004  0.08652  0.003184  3.989963  0.005  0.03926  0.072052  0.00281  3.960103  0.004
C  C24  1  0.96344049  0.40994968  0.72000771  1  0.105593  -0.010884  3.715038  -0.013  0.078514  -0.002745  3.971164  -0.004  0.086591  -0.003185  3.989889  -0.005  0.0393  0.072148  -0.002809  3.96  -0.004
C  C25  1  0.53655948  0.27999398  0.59005310  1  0.10555  -0.010888  3.714999  -0.013  0.07848  -0.002745  3.97113  -0.004  0.086557  -0.003185  3.989857  -0.005  0.039247  0.072101  -0.002809  3.959987  -0.004
C  C26  1  0.96822706  0.44506659  0.30214902  1  -0.136245  -0.010394  3.770777  -0.012  -0.143594  -0.003087  4.015619  -0.004  -0.15167  -0.003112  4.037633  -0.004  -0.089116  -0.13821  -0.003332  4.001302  -0.004
C  C27  1  0.53177418  0.69784881  0.55492783  1  -0.136092  -0.010393  3.770702  -0.012  -0.143408  -0.003087  4.015514  -0.004  -0.151484  -0.003111  4.037529  -0.004  -0.089054  -0.138018  -0.003332  4.001185  -0.004
C  C28  1  0.03177272  0.55493692  0.69785210  1  -0.136141  0.010393  3.770686  0.012  -0.143473  0.003087  4.015523  0.004  -0.151547  0.003112  4.037544  0.004  -0.089078  -0.138089  0.003332  4.001204  0.004
C  C29  1  0.46822683  0.30214885  0.44506815  1  -0.136094  0.010393  3.770688  0.012  -0.143429  0.003086  4.015511  0.004  -0.151503  0.003112  4.037527  0.004  -0.089068  -0.13804  0.003332  4.001184  0.004
C  C30  1  0.03210160  0.34016393  0.22654650  1  -0.00318  0.012009  3.704944  0.013  -0.022446  0.003818  3.949942  0.004  -0.017295  0.003605  3.96695  0.004  -0.06727  -0.026554  0.004655  3.939759  0.005
C  C31  1  0.46789702  0.77345013  0.65983204  1  -0.003212  0.012002  3.704787  0.013  -0.022462  0.003818  3.949778  0.004  -0.017313  0.003604  3.966788  0.004  -0.067246  -0.026566  0.004655  3.939589  0.005
C  C32  1  0.96789476  0.65983607  0.77345790  1  -0.003232  -0.012001  3.705054  -0.013  -0.022529  -0.003817  3.950037  -0.004  -0.017382  -0.003604  3.96705  -0.004  -0.067306  -0.026635  -0.004654  3.939852  -0.005
C  C33  1  0.53210399  0.22654753  0.34016618  1  -0.003246  -0.012005  3.704912  -0.013  -0.022507  -0.003818  3.949907  -0.004  -0.017356  -0.003605  3.966919  -0.004  -0.067255  -0.026612  -0.004655  3.93972  -0.005
C  C34  1  0.16213861  0.38459995  0.13056297  1  -0.116662  -0.010839  3.714707  -0.013  -0.126718  -0.003345  3.961548  -0.004  -0.134656  -0.003324  3.981523  -0.004  -0.082346  -0.121608  -0.003619  3.949188  -0.005
C  C35  1  0.33786238  0.86943714  0.61539422  1  -0.116654  -0.010834  3.714787  -0.013  -0.126684  -0.003345  3.961574  -0.004  -0.134624  -0.003322  3.981555  -0.004  -0.082292  -0.121568  -0.003619  3.949202  -0.005
C  C36  1  0.83786125  0.61539772  0.86944089  1  -0.116632  0.010837  3.714682  0.013  -0.126645  0.003345  3.961486  0.004  -0.134584  0.003323  3.981468  0.004  -0.082297  -0.121531  0.003619  3.949113  0.005
C  C37  1  0.66213746  0.13056169  0.38460594  1  -0.116576  0.01084  3.714721  0.013  -0.126616  0.003345  3.961515  0.004  -0.134556  0.003324  3.981494  0.004  -0.082261  -0.121499  0.003619  3.949139  0.005
C  C38  1  0.22310199  0.53221111  0.11328752  1  0.116356  0.010132  3.676524  0.012  0.090149  0.002267  3.933265  0.004  0.098402  0.002778  3.951341  0.004  0.04684  0.084149  0.002246  3.92188  0.003
C  C39  1  0.27690008  0.88671042  0.46778308  1  0.116111  0.010132  3.676749  0.012  0.089945  0.002268  3.933499  0.004  0.098197  0.002777  3.951578  0.004  0.046721  0.083949  0.002246  3.922111  0.003
C  C40  1  0.77690021  0.46778422  0.88671469  1  0.116255  -0.010133  3.676563  -0.012  0.090102  -0.002267  3.933288  -0.004  0.098356  -0.002778  3.951354  -0.004  0.04677  0.084103  -0.002246  3.921903  -0.003
C  C41  1  0.72309751  0.11328490  0.53221922  1  0.116258  -0.010133  3.676589  -0.012  0.090071  -0.002267  3.933327  -0.004  0.098324  -0.002778  3.951394  -0.004  0.046765  0.084073  -0.002246  3.921941  -0.003
C  C42  1  0.03287601  0.99124312  0.92126502  1  0.522851  -0.000236  3.89367  0.0  0.486443  -7.4e-05  4.196187  0.0  0.519152  5.3e-05  4.190799  0.0  0.205288  0.462738  -0.000294  4.198869  0.0
C  C43  1  0.46712608  0.07873658  0.00875771  1  0.522853  -0.000235  3.893664  0.0  0.486455  -7.4e-05  4.196157  0.0  0.519165  5.3e-05  4.190769  0.0  0.205304  0.462751  -0.000294  4.198839  0.0
C  C44  1  0.96712255  0.00876506  0.07873708  1  0.522871  0.000235  3.893787  0.0  0.486466  7.5e-05  4.196285  0.0  0.519174  -5.3e-05  4.190901  0.0  0.20525  0.462762  0.000294  4.198966  0.0
C  C45  1  0.53287836  0.92126343  0.99123531  1  0.522867  0.000238  3.893888  0.0  0.48647  7.4e-05  4.196367  0.0  0.519179  -5.2e-05  4.190985  0.0  0.205269  0.462766  0.000294  4.199046  0.0
N  N46  1  0.16189562  0.63328196  0.18704919  1  -0.29248  -0.061468  3.349694  -0.091  -0.254562  -0.0391  3.646054  -0.059  -0.282377  -0.032677  3.667225  -0.051  -0.334344  -0.235389  -0.043919  3.632242  -0.065
N  N47  1  0.33810532  0.81294726  0.36671397  1  -0.292307  -0.06147  3.349662  -0.091  -0.254402  -0.039101  3.646018  -0.059  -0.282217  -0.032677  3.667193  -0.051  -0.334288  -0.235225  -0.04392  3.632201  -0.065
N  N48  1  0.83810422  0.36671688  0.81295098  1  -0.292432  0.061467  3.349699  0.091  -0.254541  0.0391  3.646063  0.059  -0.282327  0.032678  3.667236  0.051  -0.334313  -0.23537  0.043919  3.632252  0.065
N  N49  1  0.66189569  0.18705041  0.63328537  1  -0.292475  0.061467  3.349698  0.091  -0.254566  0.0391  3.646058  0.059  -0.282354  0.032678  3.66723  0.051  -0.334322  -0.235394  0.043919  3.632246  0.065
O  O50  1  0.15748298  0.91405715  0.92510342  1  -0.536262  -0.043501  2.11053  -0.066  -0.511547  -0.031169  2.364681  -0.05  -0.54746  -0.02545  2.359844  -0.041  -0.293025  -0.483365  -0.03554  2.366404  -0.055
O  O51  1  0.34251529  0.07489529  0.08594383  1  -0.536307  -0.043505  2.110482  -0.066  -0.511606  -0.03117  2.364633  -0.05  -0.547519  -0.025451  2.359796  -0.041  -0.293047  -0.483421  -0.035541  2.366355  -0.055
O  O52  1  0.84251449  0.08594636  0.07489999  1  -0.536258  0.043501  2.110585  0.066  -0.511557  0.031169  2.364733  0.05  -0.547446  0.02545  2.359907  0.041  -0.293009  -0.483377  0.035539  2.366453  0.055
O  O53  1  0.65748805  0.92510121  0.91405579  1  -0.53624  0.043501  2.110564  0.066  -0.511528  0.031169  2.364688  0.05  -0.547417  0.02545  2.359864  0.041  -0.292996  -0.483348  0.035539  2.36641  0.055
O  O54  1  0.95738858  0.05432184  0.79830161  1  -0.547548  0.047105  2.086094  0.072  -0.525557  0.03251  2.347494  0.052  -0.560497  0.026133  2.337753  0.042  -0.301289  -0.497433  0.037356  2.352389  0.058
O  O55  1  0.54261220  0.20169924  0.94567923  1  -0.547545  0.0471  2.086154  0.072  -0.52554  0.032508  2.34753  0.052  -0.56048  0.026132  2.337793  0.042  -0.301288  -0.497416  0.037353  2.352424  0.058
O  O56  1  0.04261005  0.94568050  0.20169761  1  -0.547533  -0.047101  2.086123  -0.072  -0.525506  -0.032508  2.347489  -0.052  -0.560468  -0.026132  2.337739  -0.042  -0.301237  -0.497382  -0.037354  2.352384  -0.058
O  O57  1  0.45739107  0.79830193  0.05431910  1  -0.547534  -0.047102  2.086204  -0.072  -0.525519  -0.032507  2.347569  -0.052  -0.560479  -0.026131  2.337819  -0.042  -0.301258  -0.497392  -0.037354  2.352462  -0.058
