# generated using pymatgen
data_MnH22(C7O3)4
_symmetry_space_group_name_H-M   'P 1'
_cell_length_a   5.38657034
_cell_length_b   4.85066559
_cell_length_c   25.60678775
_cell_angle_alpha   88.81962753
_cell_angle_beta   86.61700889
_cell_angle_gamma   84.53449577
_symmetry_Int_Tables_number   1
_chemical_formula_structural   MnH22(C7O3)4
_chemical_formula_sum   'Mn1 H22 C28 O12'
_cell_volume   664.78778869
_cell_formula_units_Z   1
loop_
 _symmetry_equiv_pos_site_id
 _symmetry_equiv_pos_as_xyz
  1  'x, y, z'
loop_
 _atom_site_type_symbol
 _atom_site_label
 _atom_site_symmetry_multiplicity
 _atom_site_fract_x
 _atom_site_fract_y
 _atom_site_fract_z
 _atom_site_occupancy
 _atom_site_pbe_cm5_charge
 _atom_site_pbe_ddec_charge
 _atom_site_pbe_ddec_spin_density
 _atom_site_pbe_ddec_sum_bond_order
 _atom_site_pbe_magmom
Mn  Mn0  1  0.91148710  0.48229405  0.00310290  1  0.614147  1.12039  4.662272  2.229684  4.482
H  H1  1  0.19871906  0.50771250  0.53617911  1  0.347852  0.395199  0.0  0.850095  0.0
H  H2  1  0.51325878  0.36384196  0.49041289  1  0.29844  0.337642  0.0  1.012652  0.0
H  H3  1  0.42704006  0.01369957  0.73177774  1  0.101106  0.109281  1.3e-05  1.040539  0.0
H  H4  1  0.26746207  0.74165267  0.66111455  1  0.107174  0.109199  6e-06  0.994924  0.0
H  H5  1  0.55799108  0.28411736  0.23192344  1  0.111928  0.129062  -9e-06  0.995376  0.0
H  H6  1  0.96975300  0.32592369  0.62140466  1  0.108294  0.128475  4e-06  1.015633  0.0
H  H7  1  0.64887432  0.35318425  0.13536844  1  0.104507  0.11615  -0.000413  1.039121  0.0
H  H8  1  0.82241811  0.03632078  0.55133500  1  0.113241  0.118972  -0.0  0.987503  0.0
H  H9  1  0.05361070  0.74547146  0.84803354  1  0.10924  0.113687  -0.000192  0.998104  0.0
H  H10  1  0.04069994  0.88404955  0.75303494  1  0.107464  0.124073  -2e-06  1.001775  0.0
H  H11  1  0.53165577  0.59372917  0.79407469  1  0.106657  0.122968  3.4e-05  0.999123  0.0
H  H12  1  0.51872583  0.81118076  0.26276375  1  0.091695  0.091058  1.2e-05  1.079066  0.0
H  H13  1  0.69697851  0.09979875  0.32868461  1  0.106318  0.106375  5e-06  1.003562  0.0
H  H14  1  0.98575843  0.54897972  0.38120213  1  0.111388  0.147524  2e-06  1.036887  0.0
H  H15  1  0.14750046  0.85898865  0.44492583  1  0.104394  0.105559  1e-06  0.992494  0.0
H  H16  1  0.84627231  0.75321010  0.22044393  1  0.107254  0.121681  -1.2e-05  1.019302  0.0
H  H17  1  0.92508579  0.80471222  0.12460619  1  0.110303  0.110863  -0.0001  1.037984  0.0
H  H18  1  0.54521350  0.45543501  0.88877028  1  0.113033  0.116295  -0.000419  0.991549  0.0
H  H19  1  0.06103869  0.27767201  0.09789708  1  0.29938  0.360956  0.000964  0.962758  0.001
H  H20  1  0.02476848  0.02356074  0.06237333  1  0.298195  0.377589  0.000131  0.974963  0.001
H  H21  1  0.23399388  0.01829822  0.98939354  1  0.300849  0.38326  -1.1e-05  0.952069  0.002
H  H22  1  0.41723478  0.23636272  0.97115736  1  0.298036  0.393984  0.000486  0.943718  0.003
C  C23  1  0.53682627  0.87155730  0.60192478  1  -0.029704  -0.083552  5.8e-05  4.023253  0.0
C  C24  1  0.51055446  0.01864917  0.69202461  1  -0.107085  -0.218934  8.3e-05  4.003046  0.0
C  C25  1  0.70865510  0.18103041  0.68023213  1  0.092636  0.276225  0.000173  4.035677  0.0
C  C26  1  0.36416683  0.65829526  0.06712774  1  0.228834  0.59856  0.025793  4.156984  0.025
C  C27  1  0.29975040  0.59436735  0.12374488  1  -0.031451  -0.09428  -0.001251  4.010528  -0.001
C  C28  1  0.42230755  0.86789961  0.65258796  1  -0.078319  -0.056917  8e-06  3.976571  0.0
C  C29  1  0.42332383  0.40113232  0.20789469  1  -0.094296  -0.196385  -0.001229  3.973924  -0.001
C  C30  1  0.81855681  0.19452173  0.62946932  1  -0.100754  -0.201267  3.9e-05  3.980515  0.0
C  C31  1  0.81185465  0.00562120  0.93029429  1  0.234318  0.614607  0.029666  4.143007  0.027
C  C32  1  0.47400623  0.44118254  0.15443264  1  -0.08214  -0.068234  0.004374  3.956218  0.004
C  C33  1  0.80206515  0.09276761  0.87415482  1  -0.019425  -0.061407  -0.000441  3.972989  -0.001
C  C34  1  0.73523399  0.03588889  0.59079769  1  -0.074914  -0.053213  -1.6e-05  3.967327  0.0
C  C35  1  0.46669271  0.69578612  0.56011975  1  0.23624  0.574294  1.4e-05  4.113021  0.0
C  C36  1  0.94189500  0.93213304  0.83578786  1  -0.078445  -0.062649  0.004094  3.982298  0.003
C  C37  1  0.93623293  0.00933956  0.78325838  1  -0.103058  -0.210598  -0.001401  4.012659  -0.001
C  C38  1  0.64464918  0.40826450  0.80641766  1  -0.098261  -0.197649  -0.001128  3.995067  -0.001
C  C39  1  0.24508033  0.66198022  0.31869907  1  0.091303  0.276453  0.000267  4.013476  0.0
C  C40  1  0.43585663  0.99518966  0.39084340  1  -0.025661  -0.071627  0.0  4.005975  0.0
C  C41  1  0.44291933  0.81736278  0.30305468  1  -0.116368  -0.23442  3.9e-05  4.046169  0.0
C  C42  1  0.54006464  0.97962623  0.33941996  1  -0.07783  -0.054834  0.0  3.989309  0.0
C  C43  1  0.13982801  0.67191386  0.36990153  1  -0.096802  -0.199314  -1.2e-05  3.944014  0.0
C  C44  1  0.19900731  0.52152446  0.23156876  1  0.09352  0.273165  0.004511  4.038905  0.004
C  C45  1  0.54754909  0.17559776  0.42675754  1  0.225414  0.579943  0.0  4.118997  0.0
C  C46  1  0.23382821  0.84233525  0.40545208  1  -0.071563  -0.035173  1.2e-05  3.944193  0.0
C  C47  1  0.02114074  0.66611355  0.20135102  1  -0.096625  -0.185623  -0.001147  3.971832  -0.001
C  C48  1  0.06855571  0.69750149  0.14773389  1  -0.087593  -0.090015  0.004859  3.99944  0.004
C  C49  1  0.78891991  0.24913286  0.76905740  1  0.082506  0.252726  0.003884  4.051835  0.003
C  C50  1  0.65320051  0.33045357  0.85904193  1  -0.070957  -0.055902  0.003828  3.959778  0.003
O  O51  1  0.94631781  0.20905227  0.07408507  1  -0.561314  -0.748133  0.035564  2.190024  0.022
O  O52  1  0.90398076  0.76090585  0.94011439  1  -0.301369  -0.561923  0.055427  2.331414  0.037
O  O53  1  0.23659703  0.20650760  0.97382639  1  -0.576448  -0.777055  0.040723  2.109416  0.027
O  O54  1  0.58907201  0.64094110  0.05059016  1  -0.293958  -0.531739  0.047372  2.319103  0.03
O  O55  1  0.72528745  0.18004841  0.96567014  1  -0.316714  -0.601375  0.043653  2.364205  0.025
O  O56  1  0.18002536  0.74058732  0.03809031  1  -0.314462  -0.617973  0.038389  2.378259  0.021
O  O57  1  0.23165821  0.61734277  0.56648385  1  -0.31937  -0.472719  4e-06  2.274209  0.0
O  O58  1  0.61042365  0.62198961  0.52259173  1  -0.268094  -0.473065  1.6e-05  2.212534  0.0
O  O59  1  0.14016667  0.49284212  0.28454590  1  -0.152842  -0.220165  0.000528  2.538037  0.0
O  O60  1  0.41904146  0.22232205  0.47354737  1  -0.362989  -0.530709  1e-06  2.295228  0.0
O  O61  1  0.79813011  0.34261052  0.71719627  1  -0.158423  -0.227316  0.000472  2.55613  0.0
O  O62  1  0.74374897  0.28025920  0.41615161  1  -0.288432  -0.49205  3e-06  2.164785  0.0
