# generated using pymatgen
data_KTbH6C4O11
_symmetry_space_group_name_H-M   'P 1'
_cell_length_a   7.38035629
_cell_length_b   11.86516354
_cell_length_c   12.73067814
_cell_angle_alpha   99.12304080
_cell_angle_beta   89.98097256
_cell_angle_gamma   108.12572080
_symmetry_Int_Tables_number   1
_chemical_formula_structural   KTbH6C4O11
_chemical_formula_sum   'K4 Tb4 H24 C16 O44'
_cell_volume   1044.66371148
_cell_formula_units_Z   4
loop_
 _symmetry_equiv_pos_site_id
 _symmetry_equiv_pos_as_xyz
  1  'x, y, z'
loop_
 _atom_site_type_symbol
 _atom_site_label
 _atom_site_symmetry_multiplicity
 _atom_site_fract_x
 _atom_site_fract_y
 _atom_site_fract_z
 _atom_site_occupancy
 _atom_site_hle17_bader_spin_density
 _atom_site_hle17_ddec_charge
 _atom_site_hle17_ddec_spin_density
 _atom_site_hle17_ddec_sum_bond_order
 _atom_site_hle17_magmom
 _atom_site_hse06_10hf_bader_spin_density
 _atom_site_hse06_10hf_ddec_charge
 _atom_site_hse06_10hf_ddec_spin_density
 _atom_site_hse06_10hf_ddec_sum_bond_order
 _atom_site_hse06_10hf_magmom
 _atom_site_hse06_bader_spin_density
 _atom_site_hse06_ddec_charge
 _atom_site_hse06_ddec_spin_density
 _atom_site_hse06_ddec_sum_bond_order
 _atom_site_hse06_magmom
 _atom_site_pbe_bader_spin_density
 _atom_site_pbe_cm5_charge
 _atom_site_pbe_ddec_charge
 _atom_site_pbe_ddec_spin_density
 _atom_site_pbe_ddec_sum_bond_order
 _atom_site_pbe_magmom
K  K0  1  0.40673870  0.83492304  0.63344378  1  0  0.938113  0  0.435068  0  0  0.892273  0  0.608577  0  0  0.906841  0  0.584936  0  0  0.765485  0.88104  0  0.625773  0
K  K1  1  0.57192996  0.16545414  0.86650684  1  0  0.937886  0  0.435439  0  0  0.892198  0  0.608762  0  0  0.906818  0  0.585099  0  0  0.765935  0.88096  0  0.625953  0
K  K2  1  0.59326418  0.16507910  0.36655339  1  0  0.938138  0  0.435063  0  0  0.892309  0  0.608553  0  0  0.90687  0  0.584922  0  0  0.765495  0.881068  0  0.625763  0
K  K3  1  0.42806166  0.83454988  0.13349688  1  0  0.937898  0  0.435456  0  0  0.8922  0  0.60881  0  0  0.906818  0  0.585149  0  0  0.76595  0.880958  0  0.626002  0
Tb  Tb4  1  0.86426990  0.72525187  0.48405497  1  0  2.126867  0  1.812835  0  0  2.04061  0  2.143843  0  0  2.08818  0  2.105451  0  0  1.48032  2.004016  0  2.174819  0
Tb  Tb5  1  0.13908690  0.27473803  0.01595027  1  0  2.126575  0  1.813206  0  0  2.040766  0  2.143385  0  0  2.088459  0  2.104759  0  0  1.480415  2.004335  0  2.174156  0
Tb  Tb6  1  0.13573617  0.27474582  0.51594473  1  0  2.126852  0  1.812983  0  0  2.040657  0  2.143883  0  0  2.088229  0  2.105493  0  0  1.480311  2.004123  0  2.17477  0
Tb  Tb7  1  0.86090969  0.72526237  0.98405137  1  0  2.126517  0  1.813318  0  0  2.040715  0  2.143488  0  0  2.088407  0  2.104861  0  0  1.48039  2.004247  0  2.17431  0
H  H8  1  0.45872379  0.10294178  0.60559398  1  0  0.421606  0  0.874033  0  0  0.392235  0  0.935497  0  0  0.403331  0  0.918926  0  0  0.297499  0.38437  0  0.947215  0
H  H9  1  0.35558531  0.89719639  0.89436060  1  0  0.421883  0  0.874015  0  0  0.393488  0  0.933677  0  0  0.404468  0  0.917291  0  0  0.298082  0.38565  0  0.945379  0
H  H10  1  0.54127731  0.89705681  0.39440663  1  0  0.421566  0  0.874085  0  0  0.392198  0  0.935544  0  0  0.403295  0  0.918971  0  0  0.297479  0.384333  0  0.947263  0
H  H11  1  0.64441578  0.10280759  0.10563997  1  0  0.421886  0  0.874006  0  0  0.393499  0  0.933651  0  0  0.404479  0  0.917265  0  0  0.298126  0.385661  0  0.945352  0
H  H12  1  0.67924096  0.12447018  0.63842517  1  0  0.428994  0  0.863513  0  0  0.400043  0  0.923927  0  0  0.41061  0  0.908266  0  0  0.299323  0.39249  0  0.935111  0
H  H13  1  0.55459528  0.87570584  0.86151322  1  0  0.430719  0  0.861228  0  0  0.40135  0  0.922066  0  0  0.411901  0  0.906454  0  0  0.300154  0.393834  0  0.933189  0
H  H14  1  0.32076239  0.87553022  0.36157568  1  0  0.428992  0  0.863516  0  0  0.400045  0  0.92391  0  0  0.410618  0  0.908244  0  0  0.299352  0.392495  0  0.935089  0
H  H15  1  0.44540402  0.12429727  0.13848958  1  0  0.430709  0  0.861236  0  0  0.401394  0  0.921984  0  0  0.411942  0  0.906378  0  0  0.300234  0.39388  0  0.933104  0
H  H16  1  0.18901958  0.62663183  0.78231422  1  0  0.424797  0  0.873071  0  0  0.394783  0  0.935229  0  0  0.405488  0  0.919446  0  0  0.29737  0.387182  0  0.946427  0
H  H17  1  0.56251178  0.37348416  0.71775173  1  0  0.42497  0  0.872767  0  0  0.39468  0  0.935209  0  0  0.405359  0  0.919486  0  0  0.297553  0.387086  0  0.946396  0
H  H18  1  0.81098016  0.37336673  0.21768403  1  0  0.424887  0  0.87297  0  0  0.394898  0  0.935088  0  0  0.405596  0  0.919311  0  0  0.297446  0.387298  0  0.946285  0
H  H19  1  0.43749067  0.62651443  0.28224810  1  0  0.425005  0  0.872707  0  0  0.394704  0  0.935174  0  0  0.405384  0  0.919449  0  0  0.297582  0.38711  0  0.946362  0
H  H20  1  0.29356486  0.55300382  0.70668473  1  0  0.423696  0  0.845733  0  0  0.395917  0  0.918046  0  0  0.404343  0  0.905614  0  0  0.309148  0.389969  0  0.926836  0
H  H21  1  0.74056457  0.44700505  0.79345555  1  0  0.423133  0  0.847013  0  0  0.395409  0  0.918671  0  0  0.403827  0  0.906243  0  0  0.308931  0.389463  0  0.927464  0
H  H22  1  0.70643666  0.44699833  0.29331323  1  0  0.423568  0  0.84597  0  0  0.395877  0  0.918104  0  0  0.404303  0  0.905672  0  0  0.309151  0.389929  0  0.926894  0
H  H23  1  0.25943651  0.55299621  0.20654307  1  0  0.423133  0  0.847004  0  0  0.395411  0  0.918658  0  0  0.403828  0  0.906232  0  0  0.308938  0.389466  0  0.92745  0
H  H24  1  0.17793430  0.63835389  0.36935097  1  0  0.450454  0  0.843652  0  0  0.420149  0  0.904992  0  0  0.430928  0  0.889307  0  0  0.299381  0.412527  0  0.916057  0
H  H25  1  0.53961923  0.36161154  0.13047172  1  0  0.449987  0  0.844376  0  0  0.420202  0  0.90473  0  0  0.430924  0  0.889125  0  0  0.299749  0.412626  0  0.915743  0
H  H26  1  0.82206723  0.36164555  0.63064583  1  0  0.450302  0  0.843848  0  0  0.42003  0  0.905147  0  0  0.430795  0  0.889481  0  0  0.299294  0.412425  0  0.91619  0
H  H27  1  0.46038275  0.63838883  0.86952678  1  0  0.450097  0  0.844203  0  0  0.420292  0  0.904593  0  0  0.431014  0  0.888987  0  0  0.299801  0.412715  0  0.915606  0
H  H28  1  0.14312198  0.58747817  0.47821843  1  0  0.446999  0  0.84482  0  0  0.418015  0  0.904519  0  0  0.428995  0  0.888326  0  0  0.308615  0.410239  0  0.915997  0
H  H29  1  0.55581477  0.41260149  0.02164854  1  0  0.447132  0  0.844681  0  0  0.418064  0  0.904572  0  0  0.429027  0  0.888408  0  0  0.308379  0.410296  0  0.916038  0
H  H30  1  0.85688270  0.41252217  0.52177849  1  0  0.446978  0  0.844865  0  0  0.417983  0  0.904585  0  0  0.428962  0  0.888393  0  0  0.30863  0.410207  0  0.916064  0
H  H31  1  0.44418858  0.58740158  0.97835112  1  0  0.447227  0  0.844545  0  0  0.418151  0  0.904457  0  0  0.429114  0  0.888292  0  0  0.30842  0.410381  0  0.915927  0
C  C32  1  0.93123393  0.69373101  0.72864211  1  0  0.559743  0  3.915806  0  0  0.514957  0  4.218477  0  0  0.545427  0  4.207335  0  0  0.221706  0.494324  0  4.225189  0
C  C33  1  0.23760879  0.30641108  0.77133240  1  0  0.560782  0  3.914475  0  0  0.51601  0  4.216781  0  0  0.546481  0  4.20565  0  0  0.222051  0.495376  0  4.223482  0
C  C34  1  0.06875681  0.30626042  0.27135986  1  0  0.559815  0  3.916014  0  0  0.515031  0  4.21868  0  0  0.545496  0  4.207545  0  0  0.221669  0.494399  0  4.225391  0
C  C35  1  0.76238553  0.69358751  0.22866742  1  0  0.56084  0  3.914394  0  0  0.516031  0  4.21675  0  0  0.546509  0  4.205607  0  0  0.222006  0.495388  0  4.22346  0
C  C36  1  0.80779644  0.77827476  0.74184413  1  0  0.570942  0  3.923447  0  0  0.525927  0  4.225295  0  0  0.556281  0  4.21563  0  0  0.219061  0.50541  0  4.23093  0
C  C37  1  0.02969477  0.22179359  0.75816613  1  0  0.571419  0  3.923506  0  0  0.52704  0  4.224175  0  0  0.557392  0  4.214569  0  0  0.219343  0.506539  0  4.229752  0
C  C38  1  0.19219923  0.22172110  0.25815296  1  0  0.57111  0  3.923341  0  0  0.526064  0  4.22523  0  0  0.556422  0  4.21556  0  0  0.219141  0.505549  0  4.230866  0
C  C39  1  0.97030046  0.77820951  0.24183589  1  0  0.571486  0  3.923334  0  0  0.527114  0  4.224001  0  0  0.557463  0  4.214391  0  0  0.219402  0.506612  0  4.22958  0
C  C40  1  0.09723898  0.00294056  0.52647584  1  0  0.59542  0  3.854597  0  0  0.548431  0  4.158722  0  0  0.580027  0  4.146871  0  0  0.234638  0.527006  0  4.16605  0
C  C41  1  0.09422028  0.99707737  0.97344492  1  0  0.596911  0  3.85386  0  0  0.549699  0  4.158906  0  0  0.581239  0  4.147186  0  0  0.23521  0.52827  0  4.166242  0
C  C42  1  0.90276306  0.99705449  0.47352821  1  0  0.595678  0  3.854263  0  0  0.548779  0  4.158272  0  0  0.580379  0  4.146418  0  0  0.234823  0.527354  0  4.165603  0
C  C43  1  0.90576729  0.00292397  0.02656000  1  0  0.596892  0  3.853868  0  0  0.54959  0  4.159074  0  0  0.581123  0  4.147371  0  0  0.235182  0.528222  0  4.166321  0
C  C44  1  0.43948958  0.54271275  0.50939043  1  0  0.562985  0  3.917552  0  0  0.517567  0  4.218827  0  0  0.547287  0  4.209264  0  0  0.220232  0.497481  0  4.224478  0
C  C45  1  0.89681917  0.45726379  0.99060247  1  0  0.563032  0  3.915868  0  0  0.517767  0  4.216897  0  0  0.547425  0  4.207363  0  0  0.220127  0.497723  0  4.222536  0
C  C46  1  0.56052549  0.45728940  0.49060752  1  0  0.563097  0  3.917415  0  0  0.517669  0  4.218693  0  0  0.547388  0  4.209128  0  0  0.220329  0.497583  0  4.224343  0
C  C47  1  0.10318143  0.54273651  0.00939130  1  0  0.563142  0  3.915749  0  0  0.517751  0  4.216946  0  0  0.547408  0  4.207412  0  0  0.220142  0.497706  0  4.222584  0
O  O48  1  0.96391010  0.65214953  0.81064968  1  0  -0.678148  0  2.098205  0  0  -0.628611  0  2.329412  0  0  -0.653291  0  2.319961  0  0  -0.354565  -0.61122  0  2.335401  0
O  O49  1  0.31180576  0.34812583  0.68934712  1  0  -0.678923  0  2.097341  0  0  -0.629262  0  2.328467  0  0  -0.653904  0  2.319027  0  0  -0.354928  -0.61187  0  2.33445  0
O  O50  1  0.03609464  0.34784821  0.18935474  1  0  -0.678243  0  2.098419  0  0  -0.628714  0  2.329626  0  0  -0.653392  0  2.320173  0  0  -0.35456  -0.61133  0  2.335615  0
O  O51  1  0.68818811  0.65187183  0.31065100  1  0  -0.678906  0  2.097314  0  0  -0.629219  0  2.32846  0  0  -0.653865  0  2.319017  0  0  -0.354897  -0.611817  0  2.334448  0
O  O52  1  0.54615227  0.07906972  0.64914359  1  0  -0.897268  0  1.761969  0  0  -0.853612  0  1.920836  0  0  -0.871131  0  1.887575  0  0  -0.709927  -0.841047  0  1.94437  0
O  O53  1  0.46698819  0.92115958  0.85084927  1  0  -0.899648  0  1.760276  0  0  -0.856134  0  1.919721  0  0  -0.873575  0  1.886528  0  0  -0.71117  -0.843638  0  1.943186  0
O  O54  1  0.45385018  0.92092885  0.35085544  1  0  -0.897216  0  1.762008  0  0  -0.853555  0  1.920903  0  0  -0.871082  0  1.887621  0  0  -0.709926  -0.840992  0  1.944435  0
O  O55  1  0.53301064  0.07884259  0.14915026  1  0  -0.899656  0  1.760285  0  0  -0.856186  0  1.91969  0  0  -0.873625  0  1.8865  0  0  -0.711306  -0.843689  0  1.943151  0
O  O56  1  0.99292889  0.67234710  0.63779242  1  0  -0.65252  0  2.091194  0  0  -0.612349  0  2.337262  0  0  -0.635475  0  2.328786  0  0  -0.378251  -0.59601  0  2.342557  0
O  O57  1  0.32067147  0.32775512  0.86216033  1  0  -0.65258  0  2.090486  0  0  -0.612591  0  2.336605  0  0  -0.635716  0  2.328124  0  0  -0.378154  -0.596287  0  2.341905  0
O  O58  1  0.00706729  0.32764707  0.36221308  1  0  -0.652557  0  2.091203  0  0  -0.612373  0  2.337222  0  0  -0.635499  0  2.328752  0  0  -0.378228  -0.59604  0  2.342511  0
O  O59  1  0.67932465  0.67224163  0.13783688  1  0  -0.652613  0  2.090512  0  0  -0.612622  0  2.336671  0  0  -0.63575  0  2.328188  0  0  -0.37812  -0.59631  0  2.341975  0
O  O60  1  0.31761550  0.62338091  0.76251634  1  0  -0.817112  0  1.804227  0  0  -0.766614  0  1.967043  0  0  -0.784207  0  1.937927  0  0  -0.584568  -0.754255  0  1.987503  0
O  O61  1  0.69426347  0.37665061  0.73760093  1  0  -0.816772  0  1.805708  0  0  -0.765641  0  1.969153  0  0  -0.783236  0  1.940067  0  0  -0.584537  -0.753293  0  1.98959  0
O  O62  1  0.68238692  0.37662033  0.23748071  1  0  -0.817051  0  1.804437  0  0  -0.766683  0  1.967066  0  0  -0.784263  0  1.937972  0  0  -0.584652  -0.754322  0  1.987527  0
O  O63  1  0.30574032  0.62335064  0.26239690  1  0  -0.81683  0  1.805591  0  0  -0.765674  0  1.969087  0  0  -0.783273  0  1.940004  0  0  -0.58458  -0.75332  0  1.989522  0
O  O64  1  0.76011886  0.80727216  0.83542477  1  0  -0.648403  0  2.103142  0  0  -0.596076  0  2.332573  0  0  -0.622297  0  2.325908  0  0  -0.339853  -0.577586  0  2.336556  0
O  O65  1  0.95306214  0.19277522  0.66459439  1  0  -0.648428  0  2.103041  0  0  -0.596611  0  2.332558  0  0  -0.622842  0  2.325923  0  0  -0.340559  -0.578096  0  2.336499  0
O  O66  1  0.23988540  0.19273005  0.16457712  1  0  -0.648469  0  2.103276  0  0  -0.59612  0  2.3327  0  0  -0.622338  0  2.326032  0  0  -0.339878  -0.577635  0  2.336682  0
O  O67  1  0.04693036  0.80722242  0.33540216  1  0  -0.648518  0  2.103228  0  0  -0.596682  0  2.332734  0  0  -0.622911  0  2.326097  0  0  -0.340603  -0.578166  0  2.336681  0
O  O68  1  0.11248217  0.64473351  0.43796819  1  0  -0.931012  0  1.89878  0  0  -0.891522  0  2.09787  0  0  -0.909847  0  2.064292  0  0  -0.669648  -0.878229  0  2.121229  0
O  O69  1  0.46782913  0.35533855  0.06189104  1  0  -0.930882  0  1.899133  0  0  -0.891564  0  2.09782  0  0  -0.909911  0  2.064408  0  0  -0.670106  -0.878297  0  2.121022  0
O  O70  1  0.88752253  0.35526686  0.56203030  1  0  -0.930879  0  1.898931  0  0  -0.891417  0  2.097948  0  0  -0.909731  0  2.06441  0  0  -0.669614  -0.878151  0  2.121272  0
O  O71  1  0.53216924  0.64466814  0.93811068  1  0  -0.931065  0  1.898923  0  0  -0.891742  0  2.097628  0  0  -0.910086  0  2.064219  0  0  -0.670207  -0.878469  0  2.120833  0
O  O72  1  0.76543166  0.81038661  0.65785501  1  0  -0.663813  0  2.085146  0  0  -0.624638  0  2.323738  0  0  -0.648377  0  2.316831  0  0  -0.400128  -0.607788  0  2.32787  0
O  O73  1  0.95508838  0.18981109  0.84218500  1  0  -0.664206  0  2.086067  0  0  -0.625245  0  2.324039  0  0  -0.649003  0  2.317151  0  0  -0.40027  -0.608423  0  2.328153  0
O  O74  1  0.23456944  0.18961199  0.34214638  1  0  -0.663897  0  2.085009  0  0  -0.624735  0  2.323623  0  0  -0.648473  0  2.316714  0  0  -0.40018  -0.60789  0  2.327751  0
O  O75  1  0.04490997  0.81019284  0.15781163  1  0  -0.664264  0  2.085915  0  0  -0.625308  0  2.32389  0  0  -0.649069  0  2.317004  0  0  -0.400318  -0.608479  0  2.328003  0
O  O76  1  0.22624857  0.10482426  0.54306217  1  0  -0.660497  0  2.077579  0  0  -0.613722  0  2.310641  0  0  -0.63846  0  2.301065  0  0  -0.358671  -0.596263  0  2.316659  0
O  O77  1  0.12141976  0.89522039  0.95690463  1  0  -0.660994  0  2.077732  0  0  -0.61497  0  2.311274  0  0  -0.639596  0  2.301621  0  0  -0.358968  -0.597572  0  2.317404  0
O  O78  1  0.77375616  0.89517888  0.45694300  1  0  -0.660532  0  2.077739  0  0  -0.613806  0  2.310805  0  0  -0.638525  0  2.301183  0  0  -0.358721  -0.59634  0  2.316828  0
O  O79  1  0.87856962  0.10477913  0.04309846  1  0  -0.661008  0  2.077589  0  0  -0.61499  0  2.31122  0  0  -0.639612  0  2.301572  0  0  -0.359013  -0.597614  0  2.317316  0
O  O80  1  0.11319311  0.90657365  0.54919577  1  0  -0.679988  0  2.095339  0  0  -0.640084  0  2.336189  0  0  -0.664153  0  2.327483  0  0  -0.41188  -0.623081  0  2.341689  0
O  O81  1  0.20638247  0.09340733  0.95053005  1  0  -0.680563  0  2.093944  0  0  -0.640533  0  2.334852  0  0  -0.664604  0  2.326192  0  0  -0.412217  -0.623548  0  2.340347  0
O  O82  1  0.88680844  0.09342855  0.45080613  1  0  -0.680219  0  2.095006  0  0  -0.640337  0  2.335795  0  0  -0.66441  0  2.327087  0  0  -0.411987  -0.623339  0  2.341296  0
O  O83  1  0.79359698  0.90659131  0.04947449  1  0  -0.680418  0  2.093982  0  0  -0.640357  0  2.334923  0  0  -0.664428  0  2.326271  0  0  -0.412042  -0.62338  0  2.340383  0
O  O84  1  0.52216456  0.65254221  0.50768387  1  0  -0.656012  0  2.112542  0  0  -0.617395  0  2.359138  0  0  -0.640236  0  2.351795  0  0  -0.398467  -0.601263  0  2.363657  0
O  O85  1  0.86972761  0.34745203  0.99228023  1  0  -0.655878  0  2.112515  0  0  -0.617103  0  2.358399  0  0  -0.639924  0  2.351106  0  0  -0.398445  -0.601012  0  2.362886  0
O  O86  1  0.47784512  0.34745458  0.49231570  1  0  -0.656181  0  2.112161  0  0  -0.617544  0  2.358716  0  0  -0.640385  0  2.35137  0  0  -0.398561  -0.601417  0  2.363234  0
O  O87  1  0.13027664  0.65255014  0.00771930  1  0  -0.655856  0  2.112411  0  0  -0.617055  0  2.358382  0  0  -0.639876  0  2.35109  0  0  -0.398443  -0.600957  0  2.362867  0
O  O88  1  0.26408173  0.49465719  0.52545700  1  0  -0.665515  0  2.113365  0  0  -0.616378  0  2.348073  0  0  -0.640369  0  2.338758  0  0  -0.346739  -0.599436  0  2.353938  0
O  O89  1  0.76946429  0.50528496  0.97451779  1  0  -0.665897  0  2.113133  0  0  -0.616917  0  2.347797  0  0  -0.640901  0  2.338529  0  0  -0.346703  -0.600018  0  2.353695  0
O  O90  1  0.73592434  0.50533777  0.47454075  1  0  -0.665507  0  2.113742  0  0  -0.616369  0  2.348497  0  0  -0.64036  0  2.339182  0  0  -0.346745  -0.599416  0  2.354356  0
O  O91  1  0.23053678  0.49471899  0.02547963  1  0  -0.665916  0  2.113067  0  0  -0.616905  0  2.347806  0  0  -0.640891  0  2.338538  0  0  -0.346668  -0.600014  0  2.353709  0
