# generated using pymatgen
data_Ag2H21C17N6O5
_symmetry_space_group_name_H-M   'P 1'
_cell_length_a   10.24662347
_cell_length_b   9.94974404
_cell_length_c   11.67741520
_cell_angle_alpha   83.47383837
_cell_angle_beta   86.89662045
_cell_angle_gamma   59.27848914
_symmetry_Int_Tables_number   1
_chemical_formula_structural   Ag2H21C17N6O5
_chemical_formula_sum   'Ag4 H42 C34 N12 O10'
_cell_volume   1016.80682287
_cell_formula_units_Z   2
loop_
 _symmetry_equiv_pos_site_id
 _symmetry_equiv_pos_as_xyz
  1  'x, y, z'
loop_
 _atom_site_type_symbol
 _atom_site_label
 _atom_site_symmetry_multiplicity
 _atom_site_fract_x
 _atom_site_fract_y
 _atom_site_fract_z
 _atom_site_occupancy
 _atom_site_hle17_bader_spin_density
 _atom_site_hle17_ddec_charge
 _atom_site_hle17_ddec_spin_density
 _atom_site_hle17_ddec_sum_bond_order
 _atom_site_hle17_magmom
 _atom_site_hse06_10hf_bader_spin_density
 _atom_site_hse06_10hf_ddec_charge
 _atom_site_hse06_10hf_ddec_spin_density
 _atom_site_hse06_10hf_ddec_sum_bond_order
 _atom_site_hse06_10hf_magmom
 _atom_site_hse06_bader_spin_density
 _atom_site_hse06_ddec_charge
 _atom_site_hse06_ddec_spin_density
 _atom_site_hse06_ddec_sum_bond_order
 _atom_site_hse06_magmom
 _atom_site_pbe_bader_spin_density
 _atom_site_pbe_cm5_charge
 _atom_site_pbe_ddec_charge
 _atom_site_pbe_ddec_spin_density
 _atom_site_pbe_ddec_sum_bond_order
 _atom_site_pbe_magmom
Ag  Ag0  1  0.54068520  0.39338058  0.24982184  1  0  0.551752  0  1.369881  0  0  0.414905  0  1.812918  0  0  0.453474  0  1.757393  0  0  0.425945  0.385883  0  1.852406  0
Ag  Ag1  1  0.45932321  0.60659861  0.75019175  1  0  0.551697  0  1.369902  0  0  0.414861  0  1.812954  0  0  0.45343  0  1.757426  0  0  0.425893  0.385837  0  1.852443  0
Ag  Ag2  1  0.33962918  0.87438482  0.88528047  1  0  0.592687  0  1.345974  0  0  0.467523  0  1.766419  0  0  0.500774  0  1.711517  0  0  0.456742  0.442806  0  1.806143  0
Ag  Ag3  1  0.66037015  0.12562501  0.11471510  1  0  0.592699  0  1.346126  0  0  0.467586  0  1.766618  0  0  0.500836  0  1.71171  0  0  0.456765  0.442873  0  1.806346  0
H  H4  1  0.46158752  0.27894729  0.68983919  1  0  0.138128  0  0.936592  0  0  0.151085  0  0.989245  0  0  0.155134  0  0.988376  0  0  0.107925  0.148005  0  0.990549  0
H  H5  1  0.53840252  0.72108943  0.31018387  1  0  0.138156  0  0.936766  0  0  0.151235  0  0.989239  0  0  0.155255  0  0.988405  0  0  0.107961  0.148154  0  0.990549  0
H  H6  1  0.87246309  0.97103827  0.77130988  1  0  0.129339  0  0.957706  0  0  0.149934  0  1.015667  0  0  0.152197  0  1.014974  0  0  0.095598  0.148182  0  1.016329  0
H  H7  1  0.12752590  0.02896059  0.22869098  1  0  0.129318  0  0.957699  0  0  0.149909  0  1.015681  0  0  0.15217  0  1.014992  0  0  0.095573  0.148158  0  1.016344  0
H  H8  1  0.69877248  0.97013330  0.77972966  1  0  0.13776  0  0.94827  0  0  0.15884  0  1.008626  0  0  0.161287  0  1.007499  0  0  0.098629  0.156754  0  1.009972  0
H  H9  1  0.30122007  0.02986858  0.22027558  1  0  0.137832  0  0.948113  0  0  0.158892  0  1.008484  0  0  0.161341  0  1.007351  0  0  0.098638  0.156805  0  1.009837  0
H  H10  1  0.70579197  0.12569140  0.83146575  1  0  0.138875  0  0.98106  0  0  0.157327  0  1.041922  0  0  0.160262  0  1.040203  0  0  0.094875  0.154967  0  1.043668  0
H  H11  1  0.29421067  0.87429613  0.16855528  1  0  0.138978  0  0.98094  0  0  0.157405  0  1.04181  0  0  0.160348  0  1.040084  0  0  0.094913  0.155045  0  1.04356  0
H  H12  1  0.34014343  0.54178934  0.42994763  1  0  0.110262  0  0.981793  0  0  0.127638  0  1.05255  0  0  0.129023  0  1.05261  0  0  0.090268  0.126665  0  1.052422  0
H  H13  1  0.65983442  0.45825008  0.57006883  1  0  0.110208  0  0.981876  0  0  0.127702  0  1.052508  0  0  0.129092  0  1.052564  0  0  0.090326  0.12673  0  1.052382  0
H  H14  1  0.27168690  0.46366993  0.54797400  1  0  0.128972  0  0.93002  0  0  0.152561  0  0.982174  0  0  0.154391  0  0.981741  0  0  0.098238  0.151075  0  0.982591  0
H  H15  1  0.72830019  0.53638560  0.45205524  1  0  0.129112  0  0.93002  0  0  0.152616  0  0.982262  0  0  0.154446  0  0.98183  0  0  0.098262  0.151129  0  0.982682  0
H  H16  1  0.31374951  0.38309644  0.41233499  1  0  0.122695  0  0.956226  0  0  0.142917  0  1.022254  0  0  0.14488  0  1.020981  0  0  0.097214  0.141282  0  1.023267  0
H  H17  1  0.68621850  0.61693777  0.58770117  1  0  0.122703  0  0.956326  0  0  0.142825  0  1.022525  0  0  0.144787  0  1.021262  0  0  0.097207  0.141212  0  1.023517  0
H  H18  1  0.92673180  0.33568547  0.62275200  1  0  0.124833  0  0.965037  0  0  0.140318  0  1.019791  0  0  0.142925  0  1.021092  0  0  0.10455  0.138661  0  1.018883  0
H  H19  1  0.07326548  0.66433712  0.37724909  1  0  0.124847  0  0.965038  0  0  0.140391  0  1.019717  0  0  0.142998  0  1.021016  0  0  0.104619  0.138733  0  1.018813  0
H  H20  1  0.17469002  0.28068916  0.35413475  1  0  0.125039  0  0.950525  0  0  0.147807  0  1.005931  0  0  0.149467  0  1.005713  0  0  0.099008  0.146566  0  1.006159  0
H  H21  1  0.82530899  0.71933559  0.64585720  1  0  0.125018  0  0.950588  0  0  0.147801  0  1.005971  0  0  0.149461  0  1.005757  0  0  0.099011  0.146558  0  1.006203  0
H  H22  1  0.00164989  0.28350837  0.38825708  1  0  0.130598  0  0.961705  0  0  0.150555  0  1.023348  0  0  0.152848  0  1.022819  0  0  0.098852  0.149202  0  1.023266  0
H  H23  1  0.99836254  0.71649221  0.61173332  1  0  0.130562  0  0.961659  0  0  0.150505  0  1.023329  0  0  0.152801  0  1.022797  0  0  0.09883  0.149151  0  1.023249  0
H  H24  1  0.02195015  0.44169647  0.41906702  1  0  0.109909  0  0.974965  0  0  0.130655  0  1.040315  0  0  0.131723  0  1.041307  0  0  0.091871  0.129787  0  1.039775  0
H  H25  1  0.97804317  0.55831568  0.58092764  1  0  0.109958  0  0.974945  0  0  0.130609  0  1.040388  0  0  0.131676  0  1.041384  0  0  0.091861  0.129745  0  1.039844  0
H  H26  1  0.06382428  0.19237564  0.91110998  1  0  0.12857  0  0.940823  0  0  0.148029  0  1.004545  0  0  0.149568  0  1.004227  0  0  0.098091  0.146712  0  1.005135  0
H  H27  1  0.93614649  0.80762013  0.08888488  1  0  0.128483  0  0.94097  0  0  0.147984  0  1.004656  0  0  0.149516  0  1.004348  0  0  0.098064  0.146667  0  1.005244  0
H  H28  1  0.89880241  0.26622575  0.82406312  1  0  0.138836  0  0.952898  0  0  0.15833  0  1.008905  0  0  0.160636  0  1.008563  0  0  0.09565  0.156254  0  1.009799  0
H  H29  1  0.10118063  0.73375604  0.17591889  1  0  0.138979  0  0.952685  0  0  0.158362  0  1.008845  0  0  0.160708  0  1.008455  0  0  0.09562  0.156252  0  1.009778  0
H  H30  1  0.01945587  0.05932682  0.86027433  1  0  0.134578  0  0.942179  0  0  0.157365  0  1.00144  0  0  0.159444  0  0.999995  0  0  0.101054  0.155776  0  1.002627  0
H  H31  1  0.98053340  0.94065009  0.13970732  1  0  0.134551  0  0.942265  0  0  0.157379  0  1.001457  0  0  0.159458  0  1.000022  0  0  0.101115  0.155793  0  1.002634  0
H  H32  1  0.07934066  0.31504537  0.17679476  1  0  0.099458  0  0.970615  0  0  0.108973  0  1.036952  0  0  0.111811  0  1.036116  0  0  0.104239  0.106711  0  1.03812  0
H  H33  1  0.92070961  0.68487929  0.82318402  1  0  0.099452  0  0.970748  0  0  0.108915  0  1.037122  0  0  0.111829  0  1.036203  0  0  0.104253  0.10665  0  1.038292  0
H  H34  1  0.84627499  0.18827249  0.29447075  1  0  0.326234  0  0.952651  0  0  0.304136  0  1.026083  0  0  0.312583  0  1.018438  0  0  0.287435  0.298112  0  1.031404  0
H  H35  1  0.15370516  0.81172887  0.70553798  1  0  0.326396  0  0.952576  0  0  0.304236  0  1.026062  0  0  0.312678  0  1.018419  0  0  0.287423  0.298212  0  1.031382  0
H  H36  1  0.98207344  0.05418391  0.40062093  1  0  0.31896  0  0.942644  0  0  0.290722  0  1.023907  0  0  0.299779  0  1.01665  0  0  0.290072  0.284374  0  1.028937  0
H  H37  1  0.01790216  0.94581252  0.59938642  1  0  0.318981  0  0.94274  0  0  0.29079  0  1.023927  0  0  0.299844  0  1.016668  0  0  0.29009  0.284441  0  1.02895  0
H  H38  1  0.54452162  0.86902348  0.72834348  1  0  0.329483  0  0.970065  0  0  0.307817  0  1.041325  0  0  0.316384  0  1.033349  0  0  0.288348  0.301855  0  1.046495  0
H  H39  1  0.45546694  0.13098632  0.27165107  1  0  0.329487  0  0.969981  0  0  0.307815  0  1.041255  0  0  0.316383  0  1.033281  0  0  0.288394  0.301854  0  1.046422  0
H  H40  1  0.56602056  0.92567749  0.58191883  1  0  0.319599  0  0.943912  0  0  0.293606  0  1.020004  0  0  0.302517  0  1.013186  0  0  0.290886  0.287302  0  1.024778  0
H  H41  1  0.43397476  0.07434707  0.41807944  1  0  0.319613  0  0.943984  0  0  0.293705  0  1.019935  0  0  0.302621  0  1.01311  0  0  0.290919  0.287401  0  1.024712  0
H  H42  1  0.35268093  0.64302768  0.05487105  1  0  0.431137  0  0.862097  0  0  0.40174  0  0.926496  0  0  0.411714  0  0.912166  0  0  0.298751  0.394439  0  0.937014  0
H  H43  1  0.64733641  0.35696227  0.94511239  1  0  0.431237  0  0.862071  0  0  0.401854  0  0.926377  0  0  0.41183  0  0.912045  0  0  0.298826  0.394553  0  0.936895  0
H  H44  1  0.50584566  0.64296601  0.06280209  1  0  0.433451  0  0.867111  0  0  0.402183  0  0.930894  0  0  0.412764  0  0.915727  0  0  0.294292  0.394533  0  0.941909  0
H  H45  1  0.49417575  0.35700908  0.93717782  1  0  0.433555  0  0.866991  0  0  0.402341  0  0.930694  0  0  0.412922  0  0.915526  0  0  0.294327  0.394693  0  0.941706  0
C  C46  1  0.76300496  0.17711141  0.45831300  1  0  0.637147  0  3.830976  0  0  0.588425  0  4.10624  0  0  0.61566  0  4.114409  0  0  0.338595  0.570026  0  4.100218  0
C  C47  1  0.23697186  0.82290119  0.54169902  1  0  0.637361  0  3.830824  0  0  0.588739  0  4.105877  0  0  0.615977  0  4.114038  0  0  0.338701  0.570337  0  4.099865  0
C  C48  1  0.70103119  0.13563874  0.64750122  1  0  0.406573  0  3.731865  0  0  0.403337  0  3.988851  0  0  0.421236  0  4.001593  0  0  0.14058  0.391689  0  3.980883  0
C  C49  1  0.29895558  0.86437777  0.35251375  1  0  0.406628  0  3.732168  0  0  0.40345  0  3.98903  0  0  0.421356  0  4.001761  0  0  0.140472  0.391804  0  3.981068  0
C  C50  1  0.54790070  0.24963571  0.62324705  1  0  -0.342507  0  3.670004  0  0  -0.36661  0  3.928742  0  0  -0.382639  0  3.946978  0  0  -0.116169  -0.357537  0  3.917903  0
C  C51  1  0.45208553  0.75039635  0.37676850  1  0  -0.34262  0  3.670295  0  0  -0.366907  0  3.928854  0  0  -0.38292  0  3.947117  0  0  -0.116191  -0.35782  0  3.917995  0
C  C52  1  0.50916968  0.31904486  0.51081766  1  0  0.373596  0  3.767907  0  0  0.370653  0  4.018377  0  0  0.386933  0  4.035966  0  0  0.122028  0.35978  0  4.005693  0
C  C53  1  0.49081041  0.68098989  0.48919952  1  0  0.373747  0  3.767586  0  0  0.371058  0  4.01766  0  0  0.387335  0  4.035252  0  0  0.122237  0.360184  0  4.00499  0
C  C54  1  0.74893228  0.04545615  0.76352571  1  0  -0.401197  0  3.659995  0  0  -0.475817  0  3.882472  0  0  -0.481372  0  3.887162  0  0  -0.246254  -0.471838  0  3.880043  0
C  C55  1  0.25105700  0.95454669  0.23648560  1  0  -0.401366  0  3.659865  0  0  -0.47599  0  3.882358  0  0  -0.481549  0  3.887029  0  0  -0.246315  -0.472012  0  3.879931  0
C  C56  1  0.34894099  0.43393474  0.47430038  1  0  -0.384757  0  3.701895  0  0  -0.468628  0  3.944545  0  0  -0.472162  0  3.949753  0  0  -0.244789  -0.465541  0  3.940286  0
C  C57  1  0.65103582  0.56611112  0.52571925  1  0  -0.384799  0  3.702246  0  0  -0.468727  0  3.944797  0  0  -0.472268  0  3.950003  0  0  -0.244849  -0.46566  0  3.940526  0
C  C58  1  0.34916218  0.04174425  0.64607322  1  0  0.642995  0  3.832772  0  0  0.595453  0  4.103649  0  0  0.623056  0  4.111602  0  0  0.34179  0.577013  0  4.096891  0
C  C59  1  0.65083338  0.95828391  0.35392522  1  0  0.642778  0  3.832938  0  0  0.595482  0  4.103567  0  0  0.623088  0  4.111522  0  0  0.341871  0.577042  0  4.096815  0
C  C60  1  0.14386766  0.22878836  0.53388792  1  0  0.39462  0  3.747305  0  0  0.390841  0  4.006162  0  0  0.408386  0  4.019396  0  0  0.136529  0.379343  0  3.996963  0
C  C61  1  0.85612729  0.77123056  0.46610452  1  0  0.394629  0  3.747316  0  0  0.390699  0  4.006434  0  0  0.408205  0  4.019737  0  0  0.136514  0.379269  0  3.997131  0
C  C62  1  0.04807216  0.25263415  0.62945430  1  0  -0.343329  0  3.67475  0  0  -0.367087  0  3.922426  0  0  -0.384032  0  3.943099  0  0  -0.118846  -0.356511  0  3.908968  0
C  C63  1  0.95191858  0.74737740  0.37054409  1  0  -0.343418  0  3.674852  0  0  -0.367209  0  3.92256  0  0  -0.38414  0  3.943241  0  0  -0.118947  -0.356653  0  3.909083  0
C  C64  1  0.11065180  0.15996109  0.73258942  1  0  0.391657  0  3.750825  0  0  0.389503  0  3.998158  0  0  0.406765  0  4.015125  0  0  0.130571  0.378427  0  3.986109  0
C  C65  1  0.88933758  0.84004291  0.26740616  1  0  0.39177  0  3.750725  0  0  0.389711  0  3.99795  0  0  0.406983  0  4.014903  0  0  0.130663  0.378635  0  3.985904  0
C  C66  1  0.08310829  0.31345942  0.41736041  1  0  -0.383059  0  3.671134  0  0  -0.462929  0  3.903879  0  0  -0.467157  0  3.90878  0  0  -0.238925  -0.459753  0  3.900068  0
C  C67  1  0.91689108  0.68655222  0.58263138  1  0  -0.38308  0  3.670968  0  0  -0.462812  0  3.903752  0  0  -0.467034  0  3.908672  0  0  -0.238925  -0.459656  0  3.899907  0
C  C68  1  0.01684700  0.17111617  0.83724913  1  0  -0.396663  0  3.684534  0  0  -0.476202  0  3.916127  0  0  -0.481009  0  3.922072  0  0  -0.243561  -0.47268  0  3.912141  0
C  C69  1  0.98313761  0.82886867  0.16273739  1  0  -0.396664  0  3.684578  0  0  -0.476208  0  3.916072  0  0  -0.481042  0  3.921993  0  0  -0.243542  -0.472657  0  3.912117  0
C  C70  1  0.90298797  0.44795817  0.04988385  1  0  -0.053749  0  3.720263  0  0  -0.040935  0  3.958268  0  0  -0.044501  0  3.977319  0  0  -0.01034  -0.037903  0  3.945791  0
C  C71  1  0.09703703  0.55203328  0.95012553  1  0  -0.05388  0  3.720488  0  0  -0.041104  0  3.958509  0  0  -0.044671  0  3.977578  0  0  -0.010536  -0.038131  0  3.946118  0
C  C72  1  0.85880322  0.55141905  0.94834759  1  0  -0.053337  0  3.712376  0  0  -0.040157  0  3.949677  0  0  -0.044271  0  3.96926  0  0  -0.009636  -0.036958  0  3.937215  0
C  C73  1  0.14123958  0.44853196  0.05163970  1  0  -0.053175  0  3.712487  0  0  -0.039993  0  3.949724  0  0  -0.044104  0  3.969283  0  0  -0.009544  -0.036795  0  3.937305  0
C  C74  1  0.04419197  0.39689863  0.09910327  1  0  -0.088195  0  3.705162  0  0  -0.117808  0  3.948663  0  0  -0.118594  0  3.968151  0  0  -0.081447  -0.118615  0  3.937282  0
C  C75  1  0.95586285  0.60304584  0.90088877  1  0  -0.088167  0  3.705542  0  0  -0.117701  0  3.949017  0  0  -0.118542  0  3.968463  0  0  -0.081429  -0.118497  0  3.93766  0
C  C76  1  0.71242412  0.60786911  0.88582761  1  0  0.657803  0  3.909911  0  0  0.602605  0  4.206758  0  0  0.636945  0  4.199764  0  0  0.204306  0.578592  0  4.210734  0
C  C77  1  0.28761254  0.39206149  0.11415009  1  0  0.658028  0  3.909968  0  0  0.602942  0  4.20663  0  0  0.637278  0  4.199626  0  0  0.204442  0.578937  0  4.210609  0
C  C78  1  0.80117579  0.39588613  0.11170693  1  0  0.661308  0  3.908587  0  0  0.606737  0  4.205694  0  0  0.640957  0  4.198202  0  0  0.203116  0.583231  0  4.209762  0
C  C79  1  0.19883403  0.60410576  0.88828870  1  0  0.661412  0  3.908608  0  0  0.606856  0  4.205676  0  0  0.641076  0  4.198179  0  0  0.203111  0.583368  0  4.209743  0
N  N80  1  0.87216552  0.14239451  0.37918421  1  0  -0.698485  0  3.142108  0  0  -0.654724  0  3.384399  0  0  -0.678676  0  3.380471  0  0  -0.574227  -0.63825  0  3.386802  0
N  N81  1  0.12780731  0.85761829  0.62082890  1  0  -0.698848  0  3.142236  0  0  -0.655109  0  3.38455  0  0  -0.679058  0  3.380614  0  0  -0.574362  -0.638628  0  3.38696  0
N  N82  1  0.80727751  0.10234855  0.56620084  1  0  -0.512418  0  2.981436  0  0  -0.458528  0  3.231909  0  0  -0.480405  0  3.242291  0  0  -0.324333  -0.444468  0  3.225546  0
N  N83  1  0.19270731  0.89765540  0.43380969  1  0  -0.512521  0  2.981641  0  0  -0.458676  0  3.232076  0  0  -0.48056  0  3.242458  0  0  -0.324277  -0.444607  0  3.225692  0
N  N84  1  0.61593291  0.28320966  0.42755646  1  0  -0.532101  0  3.189733  0  0  -0.446749  0  3.466224  0  0  -0.477265  0  3.47911  0  0  -0.362829  -0.425448  0  3.45599  0
N  N85  1  0.38404479  0.71681769  0.57245880  1  0  -0.532266  0  3.189587  0  0  -0.447024  0  3.465983  0  0  -0.477533  0  3.478862  0  0  -0.362936  -0.425726  0  3.455756  0
N  N86  1  0.49831436  0.94267580  0.65405685  1  0  -0.704207  0  3.157506  0  0  -0.665962  0  3.404446  0  0  -0.690395  0  3.400802  0  0  -0.578109  -0.647972  0  3.405727  0
N  N87  1  0.50167700  0.05735514  0.34594394  1  0  -0.704119  0  3.157174  0  0  -0.666054  0  3.404129  0  0  -0.690484  0  3.400466  0  0  -0.578211  -0.648066  0  3.405419  0
N  N88  1  0.29298689  0.12670353  0.54291412  1  0  -0.506967  0  2.989612  0  0  -0.449498  0  3.233643  0  0  -0.471881  0  3.244732  0  0  -0.323323  -0.434643  0  3.22575  0
N  N89  1  0.70700884  0.87333040  0.45708324  1  0  -0.50675  0  2.989653  0  0  -0.449294  0  3.233669  0  0  -0.471663  0  3.244779  0  0  -0.323329  -0.434458  0  3.225745  0
N  N90  1  0.26067572  0.05220474  0.74067894  1  0  -0.531363  0  3.20697  0  0  -0.444467  0  3.481818  0  0  -0.475031  0  3.493153  0  0  -0.36515  -0.423565  0  3.473295  0
N  N91  1  0.73931707  0.94781281  0.25931993  1  0  -0.531509  0  3.207175  0  0  -0.444772  0  3.482027  0  0  -0.475348  0  3.493367  0  0  -0.365257  -0.423873  0  3.473515  0
O  O92  1  0.85706863  0.25130945  0.14376968  1  0  -0.649516  0  1.978927  0  0  -0.589835  0  2.214137  0  0  -0.616154  0  2.203937  0  0  -0.322866  -0.569799  0  2.219665  0
O  O93  1  0.14297690  0.74867927  0.85622337  1  0  -0.649564  0  1.978841  0  0  -0.589846  0  2.214041  0  0  -0.616171  0  2.203852  0  0  -0.322825  -0.569803  0  2.21955  0
O  O94  1  0.39682122  0.71169770  0.04015704  1  0  -0.812754  0  1.987641  0  0  -0.728134  0  2.199439  0  0  -0.754442  0  2.165128  0  0  -0.582176  -0.709346  0  2.224106  0
O  O95  1  0.60319199  0.28829528  0.95983817  1  0  -0.812943  0  1.987647  0  0  -0.72843  0  2.199366  0  0  -0.754739  0  2.165039  0  0  -0.582295  -0.709644  0  2.224036  0
O  O96  1  0.66501335  0.50390030  0.13245978  1  0  -0.663275  0  2.058819  0  0  -0.588498  0  2.30585  0  0  -0.618636  0  2.293066  0  0  -0.334284  -0.566122  0  2.314747  0
O  O97  1  0.33497736  0.49608391  0.86752301  1  0  -0.663309  0  2.058989  0  0  -0.588566  0  2.306013  0  0  -0.618704  0  2.293234  0  0  -0.334266  -0.566191  0  2.314898  0
O  O98  1  0.67382524  0.50741340  0.86885849  1  0  -0.658392  0  2.072165  0  0  -0.581439  0  2.323502  0  0  -0.612444  0  2.312067  0  0  -0.326273  -0.558358  0  2.331378  0
O  O99  1  0.32623775  0.49249301  0.13112630  1  0  -0.658682  0  2.072207  0  0  -0.581703  0  2.32341  0  0  -0.612725  0  2.312005  0  0  -0.326423  -0.55862  0  2.331288  0
O  O100  1  0.63889084  0.75234430  0.85059414  1  0  -0.650475  0  2.041484  0  0  -0.588448  0  2.283283  0  0  -0.614391  0  2.270748  0  0  -0.322438  -0.568641  0  2.291046  0
O  O101  1  0.36115222  0.24757180  0.14935913  1  0  -0.650603  0  2.041435  0  0  -0.58859  0  2.283129  0  0  -0.61454  0  2.270616  0  0  -0.322516  -0.56878  0  2.290883  0
