# generated using pymatgen
data_ZnH4C22I4NO7
_symmetry_space_group_name_H-M   'P 1'
_cell_length_a   14.98545959
_cell_length_b   14.78324378
_cell_length_c   16.04165719
_cell_angle_alpha   88.97106462
_cell_angle_beta   90.01522261
_cell_angle_gamma   87.53631168
_symmetry_Int_Tables_number   1
_chemical_formula_structural   ZnH4C22I4NO7
_chemical_formula_sum   'Zn2 H8 C44 I8 N2 O14'
_cell_volume   3549.90842127
_cell_formula_units_Z   2
loop_
 _symmetry_equiv_pos_site_id
 _symmetry_equiv_pos_as_xyz
  1  'x, y, z'
loop_
 _atom_site_type_symbol
 _atom_site_label
 _atom_site_symmetry_multiplicity
 _atom_site_fract_x
 _atom_site_fract_y
 _atom_site_fract_z
 _atom_site_occupancy
 _atom_site_pbe_bader_charge
 _atom_site_pbe_bader_spin_density
 _atom_site_pbe_cm5_charge
 _atom_site_pbe_ddec_charge
 _atom_site_pbe_ddec_spin_density
 _atom_site_pbe_ddec_sum_bond_order
 _atom_site_pbe_magmom
Zn  Zn0  1  0.50752285  0.39717691  0.50871561  1  1.332222  0  0.692958  0.896231  0  2.390919  0
Zn  Zn1  1  0.50083638  0.58944489  0.50156182  1  1.324522  0  0.694458  0.903124  0  2.438876  0
H  H2  1  0.23557421  0.59185668  0.58105371  1  0.117117  0  0.098899  0.116861  0  1.031526  0
H  H3  1  0.76879875  0.45887929  0.38594330  1  0.096077  0  0.095649  0.110517  0  1.03872  0
H  H4  1  0.19261409  0.35639749  0.32873315  1  0.052768  0  0.08655  0.029382  0  0.99092  0
H  H5  1  0.71639530  0.52860161  0.66263795  1  0.099415  0  0.105734  0.058517  0  0.972376  0
H  H6  1  0.26474894  0.56121179  0.95457084  1  0.080861  0  0.106938  0.046814  0  0.961064  0
H  H7  1  0.66148928  0.48538347  0.14810860  1  0.048201  0  0.099874  0.042322  0  1.005042  0
H  H8  1  0.33761718  0.48800924  0.17688157  1  0.087674  0  0.111549  0.065621  0  0.990812  0
H  H9  1  0.68591808  0.53097068  0.89448965  1  0.091083  0  0.112024  0.054832  0  0.948437  0
C  C10  1  0.47866701  0.49797365  0.66337164  1  1.683099  0  0.22417  0.66442  0  4.245415  0
C  C11  1  0.47559424  0.48779033  0.91686761  1  0.153558  0  0.025406  0.07652  0  4.029444  0
C  C12  1  0.50304473  0.48351967  0.18080975  1  -0.168556  0  -0.031884  -0.079957  0  4.120597  0
C  C13  1  0.46965522  0.49278061  0.82895120  1  -0.010784  0  -0.024959  -0.036261  0  4.088789  0
C  C14  1  0.47212145  0.49751913  0.75317490  1  -0.235971  0  -0.016985  -0.125738  0  3.880665  0
C  C15  1  0.51396674  0.48241900  0.25609091  1  -0.111552  0  -0.010353  -0.108615  0  3.887591  0
C  C16  1  0.58877913  0.03448517  0.53857731  1  -0.208097  0  -0.041239  -0.001785  0  3.878305  0
C  C17  1  0.43607731  0.95052580  0.47380175  1  -0.213974  0  -0.042316  -0.007158  0  3.878789  0
C  C18  1  0.43648609  0.04525171  0.47637781  1  -0.123195  0  -0.041069  -0.004819  0  3.88061  0
C  C19  1  0.58953280  0.93979393  0.53420783  1  -0.095149  0  -0.045563  -0.007788  0  3.858471  0
C  C20  1  0.51261425  0.08589619  0.50941730  1  0.162235  0  0.004121  0.014624  0  4.041487  0
C  C21  1  0.52239699  0.48192894  0.34593452  1  1.756096  0  0.222038  0.657133  0  4.260514  0
C  C22  1  0.51278540  0.89938909  0.50239989  1  0.273908  0  0.002486  0.016571  0  4.039249  0
C  C23  1  0.51209751  0.18179644  0.51320847  1  0.823858  0  0.219004  0.292513  0  3.991235  0
C  C24  1  0.51159369  0.80360249  0.49942074  1  0.769133  0  0.218479  0.298854  0  3.98452  0
C  C25  1  0.67479699  0.49665254  0.52032416  1  1.58639  0  0.215226  0.589657  0  4.201842  0
C  C26  1  0.33508706  0.50138899  0.47678029  1  1.608687  0  0.219214  0.609137  0  4.181088  0
C  C27  1  0.18464638  0.47927020  0.40463804  1  0.002701  0  -0.017891  -0.046413  0  3.938113  0
C  C28  1  0.82358664  0.55066762  0.57257753  1  0.002933  0  -0.019926  -0.052419  0  3.933166  0
C  C29  1  0.23494144  0.51360273  0.46993825  1  -0.040466  0  0.005889  -0.000428  0  3.906235  0
C  C30  1  0.77321108  0.51025727  0.51000881  1  -0.005221  0  0.002976  -0.012181  0  3.927842  0
C  C31  1  0.19402500  0.56366509  0.53308184  1  0.009515  0  -0.083216  -0.137924  0  3.922829  0
C  C32  1  0.96395007  0.63412082  0.60428025  1  -0.182014  0  -0.043982  -0.01089  0  3.844681  0
C  C33  1  0.81036673  0.48815333  0.43327670  1  0.012447  0  -0.088311  -0.143432  0  3.932052  0
C  C34  1  0.10112490  0.57648373  0.53685951  1  -0.026146  0  -0.006688  0.066098  0  4.012672  0
C  C35  1  0.90101810  0.50065553  0.41716566  1  0.024911  0  -0.004891  0.073088  0  4.001259  0
C  C36  1  0.04831046  0.53960303  0.47236847  1  0.064266  0  0.001996  0.01014  0  3.933247  0
C  C37  1  0.95382421  0.54017600  0.48035094  1  -0.044577  0  0.004643  0.008895  0  3.920218  0
C  C38  1  0.09086048  0.49790304  0.40222429  1  0.037252  0  -0.002447  0.033693  0  3.97221  0
C  C39  1  0.91218421  0.57495405  0.55411096  1  -0.000978  0  0.004852  0.047895  0  3.944171  0
C  C40  1  0.05569030  0.63156645  0.59857098  1  -0.149663  0  -0.04717  -0.017566  0  3.866753  0
C  C41  1  0.94363029  0.47977984  0.33865930  1  -0.176694  0  -0.056138  -0.031508  0  3.889349  0
C  C42  1  0.23126515  0.41603244  0.34612617  1  0.920937  0  0.071901  0.24646  0  4.05415  0
C  C43  1  0.03517300  0.48066063  0.33064026  1  -0.217061  0  -0.059977  -0.051838  0  3.901155  0
C  C44  1  0.78780410  0.54568145  0.65875708  1  0.904217  0  0.082787  0.255395  0  3.98204  0
C  C45  1  0.30846007  0.50633826  0.92793782  1  0.98829  0  0.102619  0.274666  0  3.96837  0
C  C46  1  0.65965488  0.47764265  0.07932694  1  0.950635  0  0.101819  0.276766  0  3.93497  0
C  C47  1  0.32699610  0.48370037  0.10854888  1  0.927981  0  0.105899  0.273014  0  3.907634  0
C  C48  1  0.64330895  0.47127866  0.89933687  1  0.999269  0  0.109405  0.281972  0  3.955394  0
C  C49  1  0.40725717  0.48867401  0.05569752  1  0.061259  0  -0.006017  -0.063825  0  3.949406  0
C  C50  1  0.56134212  0.48066487  0.95454153  1  -0.018537  0  0.02632  0.012725  0  3.83775  0
C  C51  1  0.39868892  0.49264739  0.96831511  1  -0.039249  0  0.019436  0.002929  0  3.858882  0
C  C52  1  0.56987931  0.48160460  0.04143683  1  0.014122  0  -0.006577  -0.063187  0  3.948978  0
C  C53  1  0.49303869  0.48522558  0.09341935  1  0.040141  0  0.027404  0.103684  0  4.064225  0
I  I54  1  0.13408473  0.71195321  0.67414501  1  0.153781  0  0.093668  0.003065  0  1.477577  0
I  I55  1  0.86230276  0.45537830  0.23488626  1  0.156028  0  0.097681  0.00213  0  1.555621  0
I  I56  1  0.89640934  0.74121476  0.66730426  1  0.170441  0  0.10243  0.030018  0  1.720029  0
I  I57  1  0.09796213  0.47505494  0.21287268  1  0.231807  0  0.140002  0.048561  0  1.720987  0
I  I58  1  0.69955046  0.85563950  0.57233402  1  0.233428  0  0.11459  0.022779  0  1.659306  0
I  I59  1  0.32996268  0.12865413  0.43320941  1  0.246999  0  0.157878  0.085888  0  1.456821  0
I  I60  1  0.32672205  0.88222554  0.43045301  1  0.244198  0  0.151622  0.07157  0  1.457868  0
I  I61  1  0.69538710  0.10293038  0.58724840  1  0.24555  0  0.158246  0.088088  0  1.428344  0
N  N62  1  0.50778266  0.72551374  0.49639839  1  -1.096556  0  -0.275743  -0.277022  0  3.119794  0
N  N63  1  0.51083958  0.26023076  0.51609222  1  -1.126438  0  -0.270088  -0.270304  0  3.113871  0
O  O64  1  0.50297974  0.42228518  0.63207928  1  -1.133041  0  -0.305401  -0.528279  0  2.268398  0
O  O65  1  0.83231066  0.55235593  0.72238977  1  -1.070342  0  -0.270764  -0.350449  0  2.164364  0
O  O66  1  0.28652787  0.46485648  0.86668493  1  -1.054736  0  -0.249615  -0.328652  0  2.106385  0
O  O67  1  0.72885599  0.46734792  0.03887126  1  -1.041537  0  -0.235022  -0.316854  0  2.115522  0
O  O68  1  0.25184839  0.47364361  0.07970168  1  -1.057595  0  -0.238132  -0.319841  0  2.176124  0
O  O69  1  0.65774668  0.40329204  0.85877865  1  -1.048881  0  -0.25208  -0.330004  0  2.092067  0
O  O70  1  0.53887293  0.55690787  0.37878466  1  -1.141719  0  -0.310406  -0.542418  0  2.23309  0
O  O71  1  0.51183961  0.40598383  0.38198718  1  -1.124029  0  -0.300943  -0.517354  0  2.272844  0
O  O72  1  0.46112779  0.57258176  0.62495379  1  -1.135373  0  -0.313332  -0.545071  0  2.235588  0
O  O73  1  0.64537198  0.41929466  0.50714115  1  -1.152429  0  -0.309323  -0.533793  0  2.276403  0
O  O74  1  0.37497018  0.57472014  0.46378509  1  -1.15076  0  -0.317973  -0.547213  0  2.322544  0
O  O75  1  0.36924471  0.42550519  0.50030873  1  -1.155423  0  -0.310158  -0.540559  0  2.27992  0
O  O76  1  0.62912209  0.56890578  0.53697728  1  -1.151693  0  -0.319345  -0.560898  0  2.3551  0
O  O77  1  0.30943130  0.42188139  0.32465590  1  -1.081579  0  -0.262916  -0.350728  0  2.197187  0
