# generated using pymatgen
data_CuH6C13N3O4
_symmetry_space_group_name_H-M   'P 1'
_cell_length_a   4.76933253
_cell_length_b   10.91168320
_cell_length_c   27.05982181
_cell_angle_alpha   89.99976824
_cell_angle_beta   90.00016495
_cell_angle_gamma   96.01551622
_symmetry_Int_Tables_number   1
_chemical_formula_structural   CuH6C13N3O4
_chemical_formula_sum   'Cu4 H24 C52 N12 O16'
_cell_volume   1400.47788800
_cell_formula_units_Z   4
loop_
 _symmetry_equiv_pos_site_id
 _symmetry_equiv_pos_as_xyz
  1  'x, y, z'
loop_
 _atom_site_type_symbol
 _atom_site_label
 _atom_site_symmetry_multiplicity
 _atom_site_fract_x
 _atom_site_fract_y
 _atom_site_fract_z
 _atom_site_occupancy
 _atom_site_pbe_bader_charge
 _atom_site_pbe_bader_spin_density
 _atom_site_pbe_cm5_charge
 _atom_site_pbe_ddec_charge
 _atom_site_pbe_ddec_spin_density
 _atom_site_pbe_ddec_sum_bond_order
 _atom_site_pbe_magmom
Cu  Cu0  1  0.39589989  0.11117677  0.81492999  1  1.076152  0.56115  0.753573  0.774861  0.721541  2.302031  0.56
Cu  Cu1  1  0.60408702  0.38882893  0.31493022  1  1.076194  0.56116  0.753571  0.774887  0.72155  2.302001  0.56
Cu  Cu2  1  0.60409405  0.88882540  0.18507049  1  1.076202  0.561157  0.753551  0.774814  0.721548  2.302007  0.56
Cu  Cu3  1  0.39590644  0.61117140  0.68507063  1  1.076198  0.561155  0.75354  0.77482  0.721546  2.301989  0.56
H  H4  1  0.24857167  0.03319357  0.70584393  1  0.192481  0.002153  0.12808  0.124713  0.001035  1.020879  0.002
H  H5  1  0.75142790  0.46680296  0.20584226  1  0.192556  0.002154  0.128044  0.124608  0.001036  1.020852  0.002
H  H6  1  0.75143204  0.96680581  0.29415839  1  0.192495  0.002153  0.128075  0.124628  0.001035  1.020892  0.002
H  H7  1  0.24856813  0.53319920  0.79415785  1  0.19249  0.002152  0.128072  0.124717  0.001035  1.020866  0.002
H  H8  1  0.45024628  0.12198051  0.62542098  1  0.056946  0.001364  0.121684  0.089323  0.000707  0.965953  0.001
H  H9  1  0.54975471  0.37801030  0.12542046  1  0.05694  0.001364  0.121719  0.089442  0.000707  0.965932  0.001
H  H10  1  0.54976814  0.87801976  0.37458134  1  0.056795  0.001365  0.121679  0.089299  0.000707  0.965936  0.001
H  H11  1  0.45024550  0.62198355  0.87457964  1  0.056907  0.001365  0.121707  0.089406  0.000707  0.96585  0.001
H  H12  1  0.07725249  0.23506699  0.88590625  1  0.165266  0.001981  0.12871  0.112752  0.000796  0.979572  0.001
H  H13  1  0.92275310  0.26493339  0.38590611  1  0.165271  0.001982  0.128697  0.112734  0.000796  0.97959  0.001
H  H14  1  0.92275518  0.76493975  0.11409348  1  0.165362  0.001981  0.128677  0.112709  0.000796  0.979452  0.001
H  H15  1  0.07724827  0.73505677  0.61409363  1  0.165518  0.001982  0.128697  0.112732  0.000797  0.979419  0.001
H  H16  1  0.48942752  0.91837688  0.88687550  1  0.15728  0.002136  0.116106  0.089042  0.001015  1.059712  0.002
H  H17  1  0.51058163  0.58162448  0.38687544  1  0.157326  0.002136  0.116096  0.089018  0.001015  1.059754  0.002
H  H18  1  0.51057293  0.08162619  0.11312350  1  0.157219  0.002136  0.116109  0.08905  0.001015  1.059728  0.002
H  H19  1  0.48942906  0.41836935  0.61312466  1  0.157235  0.002136  0.116119  0.089049  0.001015  1.059676  0.002
H  H20  1  0.44261739  0.76911068  0.95957380  1  0.088969  0.000205  0.110389  0.116019  0.00011  0.987274  0.0
H  H21  1  0.55739511  0.73089092  0.45957241  1  0.082778  0.000206  0.110385  0.116036  0.00011  0.987236  0.0
H  H22  1  0.55737864  0.23089149  0.04042446  1  0.088585  0.000206  0.110401  0.116073  0.00011  0.987194  0.0
H  H23  1  0.44263141  0.26910747  0.54042548  1  0.088491  0.000206  0.110427  0.116108  0.00011  0.98707  0.0
H  H24  1  0.76500539  0.28746119  0.95792460  1  0.063452  0.000157  0.113484  0.122063  8.9e-05  0.975929  0.0
H  H25  1  0.23500540  0.21253851  0.45792530  1  0.063416  0.000157  0.113513  0.122091  8.9e-05  0.975899  0.0
H  H26  1  0.23498621  0.71254006  0.04207366  1  0.06353  0.000157  0.113502  0.122113  8.9e-05  0.975874  0.0
H  H27  1  0.76501670  0.78745898  0.54207370  1  0.063561  0.000157  0.113495  0.122088  8.9e-05  0.97592  0.0
C  C28  1  0.69331715  0.33872789  0.79702806  1  1.617436  -0.001164  0.20134  0.542812  -0.001062  4.246152  -0.001
C  C29  1  0.30666439  0.16127430  0.29703073  1  1.617531  -0.001164  0.201343  0.542929  -0.001062  4.246129  -0.001
C  C30  1  0.30667376  0.66127890  0.20297316  1  1.617376  -0.001163  0.201291  0.54281  -0.001062  4.246012  -0.001
C  C31  1  0.69332303  0.83872696  0.70297049  1  1.617419  -0.001164  0.201326  0.542805  -0.001062  4.246199  -0.001
C  C32  1  0.64109269  0.27891336  0.74706952  1  0.594193  0.000899  0.121399  0.053562  1.1e-05  3.890136  0.0
C  C33  1  0.35890234  0.22108741  0.24707027  1  0.594407  0.000898  0.121432  0.053477  1.1e-05  3.890286  0.0
C  C34  1  0.35890776  0.72108971  0.25293206  1  0.594076  0.000897  0.121439  0.053585  1e-05  3.890056  0.0
C  C35  1  0.64108740  0.77891477  0.75293020  1  0.594351  0.000898  0.121381  0.05349  1.1e-05  3.890101  0.0
C  C36  1  0.39515923  0.11678759  0.70458964  1  0.493772  0.001693  0.067199  0.077903  0.001099  3.849491  0.001
C  C37  1  0.60483357  0.38320712  0.20458914  1  0.49386  0.001693  0.06718  0.077938  0.001099  3.849468  0.001
C  C38  1  0.60484099  0.88321456  0.29541268  1  0.493827  0.001694  0.067157  0.077919  0.0011  3.849453  0.001
C  C39  1  0.39515663  0.61678860  0.79541097  1  0.493704  0.001693  0.067143  0.077787  0.0011  3.849268  0.001
C  C40  1  0.50647408  0.16755154  0.66049695  1  0.580495  0.00566  0.065802  0.077876  0.003937  3.939977  0.005
C  C41  1  0.49351972  0.33244174  0.16049684  1  0.58059  0.005661  0.065812  0.07785  0.003937  3.94003  0.005
C  C42  1  0.49353172  0.83244783  0.33950537  1  0.580564  0.005661  0.065918  0.078005  0.003936  3.939939  0.005
C  C43  1  0.50647537  0.66755674  0.83950363  1  0.580578  0.00566  0.065839  0.077942  0.003936  3.939838  0.005
C  C44  1  0.75003359  0.32716066  0.70234158  1  0.49654  0.010434  0.136665  0.097786  0.007455  3.901835  0.008
C  C45  1  0.24996384  0.17283591  0.20234309  1  0.49666  0.010434  0.136637  0.097821  0.007456  3.901847  0.008
C  C46  1  0.24996849  0.67284057  0.29766075  1  0.496531  0.010435  0.136671  0.097707  0.007456  3.901929  0.008
C  C47  1  0.75002777  0.82716534  0.79765776  1  0.497056  0.010434  0.136625  0.097884  0.007456  3.901748  0.008
C  C48  1  0.93525464  0.44787041  0.69848895  1  1.624493  -0.000226  0.21196  0.569751  -0.001075  4.218345  -0.003
C  C49  1  0.06474017  0.05212436  0.19849056  1  1.62445  -0.000226  0.212004  0.570003  -0.001075  4.218426  -0.003
C  C50  1  0.06474534  0.55213082  0.30151263  1  1.624493  -0.000226  0.212004  0.569833  -0.001075  4.218396  -0.003
C  C51  1  0.93524701  0.94787599  0.80151139  1  1.624135  -0.000226  0.211981  0.569912  -0.001074  4.218376  -0.003
C  C52  1  0.11981965  0.15341279  0.90667180  1  0.497588  -0.000979  0.060867  0.058264  -0.001358  3.858539  -0.001
C  C53  1  0.88018437  0.34658832  0.40667150  1  0.497621  -0.000979  0.060878  0.058278  -0.001358  3.858576  -0.001
C  C54  1  0.88017474  0.84659122  0.09332645  1  0.49812  -0.00098  0.060937  0.058342  -0.001358  3.858462  -0.001
C  C55  1  0.11982818  0.65340458  0.59332786  1  0.498065  -0.000981  0.060919  0.058291  -0.001359  3.858498  -0.001
C  C56  1  0.35047287  0.97424583  0.90700600  1  0.436182  -0.001216  0.053046  0.046489  -0.001702  3.870935  -0.001
C  C57  1  0.64953424  0.52575443  0.40700611  1  0.436184  -0.001217  0.053091  0.046555  -0.001703  3.870965  -0.001
C  C58  1  0.64952526  0.02575633  0.09299263  1  0.436145  -0.001216  0.052998  0.046376  -0.001702  3.870936  -0.001
C  C59  1  0.35047436  0.47423941  0.59299326  1  0.43602  -0.001216  0.052943  0.046328  -0.001702  3.87099  -0.001
C  C60  1  0.24014760  0.93800916  0.95337327  1  0.047015  0.004168  -0.001203  0.039818  0.00286  4.025454  0.004
C  C61  1  0.75985992  0.56198974  0.45337411  1  0.047016  0.004168  -0.001192  0.039866  0.00286  4.025407  0.004
C  C62  1  0.75984400  0.06199209  0.04662388  1  0.047021  0.004168  -0.001106  0.039871  0.00286  4.025427  0.004
C  C63  1  0.24016381  0.43800589  0.54662488  1  0.047055  0.004168  -0.001085  0.03991  0.00286  4.025398  0.004
C  C64  1  0.99815574  0.12683056  0.95306518  1  -0.00454  0.004234  -0.000363  0.035888  0.002867  4.027258  0.004
C  C65  1  0.00185056  0.37316827  0.45306587  1  -0.004578  0.004234  -0.000375  0.03588  0.002868  4.027187  0.004
C  C66  1  0.00182934  0.87316979  0.04693159  1  -0.005462  0.004234  -0.000443  0.035747  0.002867  4.027384  0.004
C  C67  1  0.99817340  0.62682829  0.54693165  1  -0.005379  0.004235  -0.000434  0.035786  0.002868  4.027352  0.004
C  C68  1  0.05946992  0.01618107  0.97666719  1  0.054736  -0.001482  0.010908  0.01398  -0.001728  3.951082  -0.001
C  C69  1  0.94053276  0.48381848  0.47666706  1  0.054756  -0.001482  0.010901  0.013984  -0.001729  3.951011  -0.001
C  C70  1  0.94050795  0.98381561  0.02332959  1  -0.004182  -0.00149  0.010977  0.01419  -0.001728  3.951157  -0.001
C  C71  1  0.05949632  0.51618175  0.52332972  1  -0.004173  -0.00149  0.010963  0.014103  -0.001729  3.951048  -0.001
C  C72  1  0.30100285  0.82714259  0.97782217  1  -0.055821  0.000848  -0.079166  -0.118209  0.000559  3.983102  0.001
C  C73  1  0.69900734  0.67285700  0.47782206  1  -0.049763  0.000847  -0.079123  -0.118198  0.000559  3.983144  0.001
C  C74  1  0.69899690  0.17285772  0.02217572  1  -0.055904  0.000848  -0.079208  -0.118312  0.000559  3.98322  0.001
C  C75  1  0.30100894  0.32714234  0.52217583  1  -0.055901  0.000848  -0.07924  -0.118328  0.000559  3.983109  0.001
C  C76  1  0.81382618  0.20419796  0.97698984  1  -0.031274  0.000916  -0.078883  -0.116605  0.000621  3.973299  0.001
C  C77  1  0.18618256  0.29580064  0.47699001  1  -0.031273  0.000916  -0.078886  -0.11662  0.000621  3.973332  0.001
C  C78  1  0.18616543  0.79580329  0.02300768  1  -0.031861  0.000916  -0.078873  -0.116636  0.000621  3.9732  0.001
C  C79  1  0.81384117  0.70419499  0.52300714  1  -0.031727  0.000916  -0.07894  -0.11668  0.000621  3.973364  0.001
N  N80  1  0.46664307  0.17362626  0.74718228  1  -1.195877  0.079418  -0.330747  -0.202372  0.053093  3.628059  0.069
N  N81  1  0.53335010  0.32637543  0.24718184  1  -1.195945  0.079414  -0.33078  -0.202391  0.05309  3.628235  0.069
N  N82  1  0.53335668  0.82637405  0.25281930  1  -1.19583  0.079422  -0.330732  -0.202314  0.053096  3.627962  0.069
N  N83  1  0.46663987  0.67362767  0.75281753  1  -1.195742  0.079418  -0.330733  -0.202353  0.053093  3.628085  0.069
N  N84  1  0.68300572  0.27098521  0.65898581  1  -1.173623  0.001151  -0.299829  -0.256265  -0.000388  3.298302  0.0
N  N85  1  0.31699202  0.22900715  0.15898764  1  -1.173893  0.001152  -0.299782  -0.256327  -0.000388  3.29845  0.0
N  N86  1  0.31700427  0.72901415  0.34101614  1  -1.17366  0.001151  -0.299949  -0.256345  -0.000388  3.298396  0.0
N  N87  1  0.68299865  0.77099042  0.84101321  1  -1.174245  0.001152  -0.299771  -0.256321  -0.000388  3.298395  0.0
N  N88  1  0.28844751  0.07815061  0.88489719  1  -1.225175  0.07771  -0.345214  -0.199286  0.051972  3.651476  0.067
N  N89  1  0.71155807  0.42184978  0.38489705  1  -1.225197  0.077712  -0.345248  -0.199347  0.051973  3.651677  0.067
N  N90  1  0.71155294  0.92185247  0.11510181  1  -1.225161  0.077706  -0.345173  -0.199147  0.051969  3.651523  0.067
N  N91  1  0.28844610  0.57814314  0.61510232  1  -1.225232  0.077707  -0.345128  -0.199088  0.05197  3.651504  0.067
O  O92  1  0.56991594  0.27827397  0.83364325  1  -1.097996  0.119628  -0.337099  -0.549203  0.07604  2.285776  0.108
O  O93  1  0.43007985  0.22173245  0.33364551  1  -1.098103  0.119638  -0.337037  -0.549217  0.076047  2.285683  0.108
O  O94  1  0.43008056  0.72173004  0.16635760  1  -1.097967  0.119621  -0.337101  -0.549216  0.076036  2.285772  0.108
O  O95  1  0.56991804  0.77826879  0.66635533  1  -1.097988  0.119634  -0.337021  -0.549155  0.076044  2.285736  0.108
O  O96  1  0.83930776  0.43963173  0.80052323  1  -1.147942  0.029145  -0.3023  -0.503794  0.018193  2.144628  0.025
O  O97  1  0.16067220  0.06038057  0.30052636  1  -1.147975  0.029137  -0.302391  -0.503854  0.018188  2.144778  0.025
O  O98  1  0.16066732  0.56037879  0.19947798  1  -1.147789  0.029146  -0.302271  -0.503747  0.018193  2.144476  0.025
O  O99  1  0.83931591  0.93962346  0.69947448  1  -1.147945  0.029138  -0.302382  -0.503853  0.018189  2.144821  0.025
O  O100  1  0.20038885  0.44426640  0.70463367  1  -1.11728  0.096927  -0.312326  -0.521867  0.062487  2.310898  0.087
O  O101  1  0.79961233  0.05572829  0.20463417  1  -1.117298  0.096924  -0.312318  -0.521988  0.062484  2.31121  0.087
O  O102  1  0.79961696  0.55573297  0.29536755  1  -1.117223  0.096918  -0.312341  -0.52193  0.062481  2.311115  0.087
O  O103  1  0.20037741  0.94427389  0.79536667  1  -1.117124  0.096927  -0.31232  -0.521978  0.062485  2.31108  0.087
O  O104  1  0.82390163  0.54204442  0.68564988  1  -1.163426  0.003091  -0.314119  -0.575344  0.000824  2.351962  0.005
O  O105  1  0.17609421  0.95795054  0.18565089  1  -1.163481  0.003091  -0.314152  -0.575461  0.000824  2.351913  0.005
O  O106  1  0.17609999  0.45795496  0.31435318  1  -1.163461  0.003093  -0.314144  -0.575351  0.000825  2.351909  0.005
O  O107  1  0.82389226  0.04204704  0.81435291  1  -1.163261  0.003092  -0.314147  -0.57543  0.000824  2.35193  0.005
