# generated using pymatgen
data_CdH20(C4N7)2
_symmetry_space_group_name_H-M   'P 1'
_cell_length_a   7.15758353
_cell_length_b   8.03696571
_cell_length_c   8.24548673
_cell_angle_alpha   61.46102254
_cell_angle_beta   65.78169859
_cell_angle_gamma   74.51482005
_symmetry_Int_Tables_number   1
_chemical_formula_structural   CdH20(C4N7)2
_chemical_formula_sum   'Cd1 H20 C8 N14'
_cell_volume   378.52106623
_cell_formula_units_Z   1
loop_
 _symmetry_equiv_pos_site_id
 _symmetry_equiv_pos_as_xyz
  1  'x, y, z'
loop_
 _atom_site_type_symbol
 _atom_site_label
 _atom_site_symmetry_multiplicity
 _atom_site_fract_x
 _atom_site_fract_y
 _atom_site_fract_z
 _atom_site_occupancy
 _atom_site_hle17_bader_spin_density
 _atom_site_hle17_ddec_charge
 _atom_site_hle17_ddec_spin_density
 _atom_site_hle17_ddec_sum_bond_order
 _atom_site_hle17_magmom
 _atom_site_hse06_10hf_bader_spin_density
 _atom_site_hse06_10hf_ddec_charge
 _atom_site_hse06_10hf_ddec_spin_density
 _atom_site_hse06_10hf_ddec_sum_bond_order
 _atom_site_hse06_10hf_magmom
 _atom_site_hse06_bader_spin_density
 _atom_site_hse06_ddec_charge
 _atom_site_hse06_ddec_spin_density
 _atom_site_hse06_ddec_sum_bond_order
 _atom_site_hse06_magmom
 _atom_site_pbe_bader_spin_density
 _atom_site_pbe_cm5_charge
 _atom_site_pbe_ddec_charge
 _atom_site_pbe_ddec_spin_density
 _atom_site_pbe_ddec_sum_bond_order
 _atom_site_pbe_magmom
Cd  Cd0  1  0.99999786  0.50000206  0.50000017  1  0  0.933236  0  1.796931  0  0  0.737763  0  2.224151  0  0  0.783243  0  2.189135  0  0  0.754659  0.706154  0  2.247594  0
H  H1  1  0.52179469  0.34008993  0.42214218  1  0  0.054616  0  0.937319  0  0  0.073348  0  0.999782  0  0  0.073945  0  0.999431  0  0  0.098736  0.072844  0  1.000109  0
H  H2  1  0.47820350  0.65990669  0.57786068  1  0  0.05465  0  0.93732  0  0  0.07337  0  0.99978  0  0  0.073967  0  0.999432  0  0  0.098753  0.072868  0  1.000106  0
H  H3  1  0.64387489  0.45494942  0.16537070  1  0  0.036124  0  0.956318  0  0  0.043471  0  1.036302  0  0  0.04484  0  1.035235  0  0  0.085044  0.042429  0  1.037142  0
H  H4  1  0.35612350  0.54504574  0.83462915  1  0  0.036091  0  0.956381  0  0  0.043447  0  1.036349  0  0  0.044817  0  1.035285  0  0  0.085039  0.042407  0  1.037188  0
H  H5  1  0.31130471  0.63271809  0.14902440  1  0  0.272772  0  0.936167  0  0  0.257307  0  1.007204  0  0  0.262859  0  1.003868  0  0  0.282857  0.253326  0  1.009683  0
H  H6  1  0.68870105  0.36727993  0.85097275  1  0  0.272767  0  0.93617  0  0  0.257295  0  1.007233  0  0  0.262844  0  1.003899  0  0  0.282852  0.253313  0  1.009711  0
H  H7  1  0.31964195  0.08037972  0.56218640  1  0  0.05558  0  0.951635  0  0  0.073901  0  1.01559  0  0  0.073844  0  1.016754  0  0  0.101669  0.073879  0  1.014864  0
H  H8  1  0.68035320  0.91961689  0.43781631  1  0  0.05558  0  0.951589  0  0  0.073903  0  1.015557  0  0  0.073849  0  1.01672  0  0  0.101662  0.073879  0  1.014832  0
H  H9  1  0.39176606  0.66680950  0.28903038  1  0  0.277931  0  0.942638  0  0  0.257108  0  1.021644  0  0  0.263551  0  1.016437  0  0  0.280974  0.252477  0  1.02544  0
H  H10  1  0.60823813  0.33318855  0.71096972  1  0  0.277945  0  0.942577  0  0  0.257124  0  1.021581  0  0  0.263567  0  1.016373  0  0  0.280976  0.252494  0  1.025375  0
H  H11  1  0.29713925  0.99156196  0.41156242  1  0  0.035978  0  0.952693  0  0  0.04738  0  1.029963  0  0  0.048323  0  1.028386  0  0  0.088991  0.046615  0  1.031238  0
H  H12  1  0.70285259  0.00843748  0.58843889  1  0  0.035936  0  0.952747  0  0  0.047351  0  1.030018  0  0  0.048296  0  1.028442  0  0  0.088978  0.046591  0  1.031289  0
H  H13  1  0.37319577  0.32725814  0.12922617  1  0  0.071519  0  0.944456  0  0  0.092728  0  1.000913  0  0  0.092803  0  1.002866  0  0  0.092813  0.092594  0  0.999663  0
H  H14  1  0.62680219  0.67274130  0.87077301  1  0  0.071582  0  0.944435  0  0  0.09274  0  1.000899  0  0  0.092814  0  1.002853  0  0  0.092829  0.09261  0  0.999642  0
H  H15  1  0.97906229  0.11027289  0.59997440  1  0  0.275529  0  0.947163  0  0  0.256449  0  1.024238  0  0  0.262919  0  1.019253  0  0  0.279072  0.251827  0  1.027829  0
H  H16  1  0.02093051  0.88973225  0.40002509  1  0  0.27555  0  0.947181  0  0  0.256459  0  1.024273  0  0  0.26293  0  1.019288  0  0  0.279107  0.251836  0  1.027865  0
H  H17  1  0.01540947  0.22109313  0.36235196  1  0  0.278495  0  0.920211  0  0  0.268165  0  0.979195  0  0  0.27375  0  0.975917  0  0  0.283674  0.26421  0  0.98151  0
H  H18  1  0.98458665  0.77890918  0.63764892  1  0  0.278511  0  0.920244  0  0  0.268179  0  0.979229  0  0  0.273763  0  0.975953  0  0  0.283668  0.264226  0  0.981546  0
H  H19  1  0.57524475  0.17064555  0.20537733  1  0  0.077005  0  0.959561  0  0  0.086562  0  1.035181  0  0  0.087569  0  1.035266  0  0  0.092558  0.085786  0  1.035216  0
H  H20  1  0.42475217  0.82934825  0.79462853  1  0  0.077024  0  0.959612  0  0  0.086552  0  1.035217  0  0  0.087558  0  1.035302  0  0  0.092553  0.085775  0  1.035262  0
C  C21  1  0.73799764  0.88074100  0.01885447  1  0  0.335785  0  3.864353  0  0  0.306286  0  4.160618  0  0  0.311255  0  4.179476  0  0  0.298604  0.303019  0  4.147967  0
C  C22  1  0.26200846  0.11926847  0.98114320  1  0  0.335959  0  3.864309  0  0  0.306394  0  4.160641  0  0  0.311377  0  4.179479  0  0  0.298619  0.303099  0  4.148027  0
C  C23  1  0.49652078  0.40519643  0.28062915  1  0  0.093749  0  3.644993  0  0  0.037185  0  3.909439  0  0  0.04184  0  3.921556  0  0  -0.081116  0.034098  0  3.900963  0
C  C24  1  0.50348079  0.59479733  0.71937147  1  0  0.0938  0  3.645145  0  0  0.037236  0  3.909483  0  0  0.041882  0  3.921611  0  0  -0.081067  0.034149  0  3.901007  0
C  C25  1  0.43403882  0.25659206  0.25194084  1  0  -0.171462  0  3.664667  0  0  -0.204008  0  3.916138  0  0  -0.207253  0  3.931468  0  0  -0.171168  -0.201623  0  3.905533  0
C  C26  1  0.56595800  0.74340312  0.74806196  1  0  -0.171668  0  3.66493  0  0  -0.204055  0  3.916218  0  0  -0.207296  0  3.931552  0  0  -0.171216  -0.201674  0  3.905618  0
C  C27  1  0.28149409  0.12169553  0.43115550  1  0  0.088966  0  3.643278  0  0  0.031221  0  3.90857  0  0  0.035735  0  3.921534  0  0  -0.081236  0.028197  0  3.899594  0
C  C28  1  0.71849941  0.87830249  0.56884590  1  0  0.089073  0  3.643332  0  0  0.031221  0  3.908731  0  0  0.035767  0  3.921613  0  0  -0.081251  0.028194  0  3.899757  0
N  N29  1  0.93542158  0.86615665  0.90195613  1  0  -0.304934  0  2.945994  0  0  -0.277228  0  3.230396  0  0  -0.285957  0  3.243595  0  0  -0.203061  -0.27132  0  3.221615  0
N  N30  1  0.06458363  0.13384706  0.09803851  1  0  -0.304933  0  2.946021  0  0  -0.277198  0  3.230427  0  0  -0.285935  0  3.243626  0  0  -0.203037  -0.271276  0  3.221644  0
N  N31  1  0.03508297  0.73903247  0.02287575  1  0  -0.097236  0  2.949085  0  0  -0.090988  0  3.247542  0  0  -0.091532  0  3.260705  0  0  -0.100984  -0.090417  0  3.238706  0
N  N32  1  0.96492026  0.26097553  0.97711997  1  0  -0.097313  0  2.949128  0  0  -0.091067  0  3.247588  0  0  -0.091611  0  3.260753  0  0  -0.101028  -0.090494  0  3.238749  0
N  N33  1  0.90039631  0.67931943  0.20706520  1  0  -0.123783  0  3.132055  0  0  -0.070796  0  3.42722  0  0  -0.079884  0  3.44381  0  0  -0.111618  -0.064481  0  3.415907  0
N  N34  1  0.09960718  0.32068574  0.79293298  1  0  -0.123768  0  3.1321  0  0  -0.070789  0  3.427253  0  0  -0.079875  0  3.443844  0  0  -0.1116  -0.064481  0  3.41595  0
N  N35  1  0.71353691  0.76514166  0.20943507  1  0  -0.296454  0  2.952099  0  0  -0.275954  0  3.226261  0  0  -0.283641  0  3.242182  0  0  -0.20471  -0.270736  0  3.215635  0
N  N36  1  0.28646539  0.23486061  0.79056005  1  0  -0.296524  0  2.952129  0  0  -0.275995  0  3.226293  0  0  -0.283682  0  3.242203  0  0  -0.204701  -0.270765  0  3.215678  0
N  N37  1  0.59147387  0.00559827  0.93900995  1  0  -0.171505  0  3.020601  0  0  -0.14408  0  3.30525  0  0  -0.140896  0  3.307894  0  0  -0.138553  -0.146294  0  3.303812  0
N  N38  1  0.40852814  0.99440685  0.06098513  1  0  -0.171479  0  3.020585  0  0  -0.144025  0  3.305255  0  0  -0.140843  0  3.307893  0  0  -0.138523  -0.14623  0  3.303826  0
N  N39  1  0.33748336  0.56643337  0.28027732  1  0  -0.626579  0  3.084874  0  0  -0.565888  0  3.330389  0  0  -0.585401  0  3.330722  0  0  -0.636534  -0.552094  0  3.329856  0
N  N40  1  0.66252389  0.43356468  0.71972172  1  0  -0.626546  0  3.084854  0  0  -0.565896  0  3.330404  0  0  -0.585408  0  3.330743  0  0  -0.636541  -0.552098  0  3.329866  0
N  N41  1  0.06565828  0.20620546  0.46899292  1  0  -0.628734  0  3.071812  0  0  -0.571065  0  3.316266  0  0  -0.590322  0  3.316178  0  0  -0.633367  -0.557434  0  3.315981  0
N  N42  1  0.93433786  0.79379684  0.53100675  1  0  -0.628836  0  3.07193  0  0  -0.571113  0  3.316336  0  0  -0.590369  0  3.316251  0  0  -0.633378  -0.557483  0  3.316056  0
