# generated using pymatgen
data_Nd2P3H34C27N3O17
_symmetry_space_group_name_H-M   'P 1'
_cell_length_a   6.93265202
_cell_length_b   20.98609602
_cell_length_c   27.74938383
_cell_angle_alpha   107.34248613
_cell_angle_beta   89.99911906
_cell_angle_gamma   89.99875219
_symmetry_Int_Tables_number   1
_chemical_formula_structural   Nd2P3H34C27N3O17
_chemical_formula_sum   'Nd8 P12 H136 C108 N12 O68'
_cell_volume   3853.70570095
_cell_formula_units_Z   4
loop_
 _symmetry_equiv_pos_site_id
 _symmetry_equiv_pos_as_xyz
  1  'x, y, z'
loop_
 _atom_site_type_symbol
 _atom_site_label
 _atom_site_symmetry_multiplicity
 _atom_site_fract_x
 _atom_site_fract_y
 _atom_site_fract_z
 _atom_site_occupancy
 _atom_site_pbe_bader_charge
 _atom_site_pbe_bader_spin_density
 _atom_site_pbe_cm5_charge
 _atom_site_pbe_ddec_charge
 _atom_site_pbe_ddec_spin_density
 _atom_site_pbe_ddec_sum_bond_order
 _atom_site_pbe_magmom
Nd  Nd0  1  0.91218143  0.90104472  0.66590313  1  2.281681  0  1.523911  2.297379  0  2.015219  0
Nd  Nd1  1  0.07320525  0.75965767  0.22201914  1  2.228073  0  1.564473  2.171718  0  2.236826  0
Nd  Nd2  1  0.41218050  0.09896593  0.83409875  1  2.281736  0  1.52388  2.297325  0  2.015347  0
Nd  Nd3  1  0.57320685  0.24031634  0.27797964  1  2.227778  0  1.564372  2.1715  0  2.23713  0
Nd  Nd4  1  0.08742453  0.09895356  0.33414844  1  2.280567  0  1.52382  2.297125  0  2.015321  0
Nd  Nd5  1  0.92705991  0.24041764  0.77801502  1  2.227965  0  1.564382  2.171859  0  2.236641  0
Nd  Nd6  1  0.58740815  0.90103236  0.16583894  1  2.280892  0  1.523838  2.29715  0  2.015252  0
Nd  Nd7  1  0.42704966  0.75960186  0.72198847  1  2.227773  0  1.564437  2.17206  0  2.236437  0
P  P8  1  0.91219284  0.92521393  0.28056999  1  3.392165  0  0.371995  1.414446  0  5.371223  0
P  P9  1  0.92598525  0.72942729  0.67704212  1  3.417856  0  0.358229  1.353472  0  5.468981  0
P  P10  1  0.41279169  0.83478076  0.62287139  1  3.41628  0  0.356154  1.382559  0  5.436266  0
P  P11  1  0.41218492  0.07479045  0.21940382  1  3.392253  0  0.372064  1.414663  0  5.370389  0
P  P12  1  0.42598229  0.27059068  0.82296967  1  3.41881  0  0.358314  1.353652  0  5.468502  0
P  P13  1  0.91277325  0.16523488  0.87713199  1  3.416412  0  0.355844  1.382398  0  5.436776  0
P  P14  1  0.08696019  0.07492004  0.71941988  1  3.388745  0  0.372447  1.414141  0  5.369298  0
P  P15  1  0.07413567  0.27054869  0.32296797  1  3.418074  0  0.358375  1.353805  0  5.468999  0
P  P16  1  0.58696573  0.16529715  0.37714102  1  3.413733  0  0.355495  1.38194  0  5.437565  0
P  P17  1  0.58695658  0.92509217  0.78058753  1  3.388401  0  0.372324  1.413987  0  5.369955  0
P  P18  1  0.57414584  0.72943881  0.17702775  1  3.418363  0  0.358321  1.35378  0  5.468563  0
P  P19  1  0.08695244  0.83466672  0.12286009  1  3.412556  0  0.355431  1.381922  0  5.437268  0
H  H20  1  0.65019606  0.00450544  0.34569201  1  0.439634  0  0.305129  0.249468  0  0.9641  0
H  H21  1  0.74763594  0.60858010  0.68381755  1  0.518313  0  0.321921  0.289129  0  0.912679  0
H  H22  1  0.99264243  0.59410566  0.67728367  1  0.524268  0  0.314338  0.28286  0  0.946526  0
H  H23  1  0.04254788  0.78453192  0.54591792  1  0.558407  0  0.298522  0.269466  0  1.009623  0
H  H24  1  0.13450519  0.75174641  0.58909723  1  0.489974  0  0.317285  0.27513  0  0.944944  0
H  H25  1  0.82697845  0.90277733  0.35734566  1  0.066087  0  0.104188  0.110547  0  1.002443  0
H  H26  1  0.67623695  0.85749242  0.30643075  1  0.037584  0  0.112287  0.115696  0  1.002211  0
H  H27  1  0.38528307  0.00152075  0.39227997  1  0.089489  0  0.116673  0.096935  0  1.002787  0
H  H28  1  0.35072435  0.91529802  0.36242559  1  0.02939  0  0.104956  0.088289  0  0.967693  0
H  H29  1  0.43722652  0.83734390  0.40110127  1  0.030867  0  0.086461  0.081252  0  1.057612  0
H  H30  1  0.60965021  0.80228661  0.46755143  1  0.056127  0  0.089756  0.082529  0  1.057358  0
H  H31  1  0.85783989  0.99783830  0.52354074  1  0.093101  0  0.105315  0.106346  0  1.012026  0
H  H32  1  0.70463271  0.03055435  0.45332323  1  0.086964  0  0.104976  0.111399  0  0.988825  0
H  H33  1  0.74460061  0.64744578  0.61076433  1  0.121013  0  0.12261  0.14559  0  0.997024  0
H  H34  1  0.00177732  0.63282037  0.60506891  1  0.081134  0  0.117378  0.132677  0  1.002253  0
H  H35  1  0.94709223  0.51268941  0.59716029  1  0.059142  0  0.121634  0.110487  0  0.947519  0
H  H36  1  0.69146071  0.52472571  0.60462182  1  0.105638  0  0.122466  0.114933  0  0.951441  0
H  H37  1  0.52710941  0.49955322  0.67823284  1  0.090368  0  0.101606  0.107139  0  1.03261  0
H  H38  1  0.54222421  0.45053725  0.74921358  1  0.092828  0  0.101134  0.099809  0  1.030177  0
H  H39  1  0.12303454  0.38597231  0.70810742  1  0.098461  0  0.11054  0.11608  0  0.990304  0
H  H40  1  0.11746260  0.44283546  0.64085483  1  0.072617  0  0.104025  0.107517  0  0.995939  0
H  H41  1  0.01537533  0.76188945  0.37771160  1  0.111926  0  0.118525  0.123558  0  0.982034  0
H  H42  1  0.94376111  0.74521439  0.46093143  1  0.160166  0  0.106599  0.120261  0  1.051586  0
H  H43  1  0.27734595  0.65740552  0.52734651  1  0.075739  0  0.108542  0.101437  0  1.001752  0
H  H44  1  0.02690356  0.66701028  0.51685485  1  0.054999  0  0.116547  0.102061  0  0.948219  0
H  H45  1  0.47056546  0.76081245  0.53896683  1  0.057966  0  0.116316  0.133247  0  0.986721  0
H  H46  1  0.33502346  0.83133716  0.53573786  1  0.122688  0  0.121677  0.143218  0  0.97436  0
H  H47  1  0.49219994  0.64676151  0.45653951  1  0.061512  0  0.102081  0.102328  0  0.996836  0
H  H48  1  0.56349941  0.66410639  0.37299181  1  0.090922  0  0.106864  0.10788  0  0.993506  0
H  H49  1  0.47279714  0.71434794  0.26243664  1  0.645678  0  0.314622  0.378487  0  0.936943  0
H  H50  1  0.02025565  0.92833145  0.77879005  1  0.631497  0  0.29266  0.358418  0  0.997945  0
H  H51  1  0.21383284  0.89698888  0.75103207  1  0.648055  0  0.305853  0.397832  0  0.93472  0
H  H52  1  0.10387639  0.67968865  0.11286046  1  0.613837  0  0.282628  0.369724  0  0.974319  0
H  H53  1  0.15735104  0.61583759  0.12893775  1  0.605245  0  0.275621  0.35414  0  0.995508  0
H  H54  1  0.15014703  0.99550041  0.15428419  1  0.439027  0  0.305306  0.249576  0  0.964222  0
H  H55  1  0.24762106  0.39143857  0.81619074  1  0.518792  0  0.321929  0.289215  0  0.912559  0
H  H56  1  0.49262907  0.40589773  0.82271807  1  0.524481  0  0.314301  0.282793  0  0.94653  0
H  H57  1  0.54250968  0.21548173  0.95408530  1  0.558207  0  0.298469  0.269352  0  1.009714  0
H  H58  1  0.63446756  0.24826438  0.91090319  1  0.490161  0  0.317249  0.275121  0  0.944996  0
H  H59  1  0.32694361  0.09720988  0.14262456  1  0.065519  0  0.104092  0.110534  0  1.002562  0
H  H60  1  0.17621607  0.14251222  0.19353823  1  0.038142  0  0.112242  0.11566  0  1.00236  0
H  H61  1  0.88517737  0.99850978  0.10771431  1  0.08963  0  0.116597  0.097001  0  1.002445  0
H  H62  1  0.85068748  0.08473730  0.13757675  1  0.028542  0  0.104942  0.088298  0  0.967697  0
H  H63  1  0.93712779  0.16268212  0.09889647  1  0.066795  0  0.086354  0.080987  0  1.057653  0
H  H64  1  0.10957818  0.19774649  0.03245383  1  0.055994  0  0.089802  0.082596  0  1.057264  0
H  H65  1  0.35778876  0.00220087  0.97645487  1  0.09389  0  0.105306  0.106233  0  1.01222  0
H  H66  1  0.20459656  0.96947192  0.04666715  1  0.08731  0  0.104993  0.111318  0  0.988983  0
H  H67  1  0.24456637  0.35257493  0.88924299  1  0.120772  0  0.122692  0.145645  0  0.997003  0
H  H68  1  0.50173857  0.36719613  0.89494195  1  0.081136  0  0.11737  0.132699  0  1.002251  0
H  H69  1  0.44713474  0.48732393  0.90283776  1  0.058927  0  0.12169  0.110531  0  0.947268  0
H  H70  1  0.19148429  0.47531050  0.89538382  1  0.105662  0  0.122477  0.114862  0  0.951399  0
H  H71  1  0.02716772  0.50044815  0.82175646  1  0.090446  0  0.101641  0.107297  0  1.032374  0
H  H72  1  0.04228089  0.54947046  0.75077856  1  0.09304  0  0.10115  0.099823  0  1.030235  0
H  H73  1  0.62308548  0.61403114  0.79188380  1  0.108653  0  0.110597  0.11623  0  0.990174  0
H  H74  1  0.61751305  0.55716854  0.85913690  1  0.072837  0  0.104045  0.107633  0  0.995749  0
H  H75  1  0.51533213  0.23812854  0.12229668  1  0.111718  0  0.118487  0.123521  0  0.981972  0
H  H76  1  0.44372670  0.25479356  0.03907190  1  0.159918  0  0.106559  0.120285  0  1.0514  0
H  H77  1  0.77729093  0.34260391  0.97265632  1  0.075793  0  0.108535  0.101512  0  1.001695  0
H  H78  1  0.52686005  0.33299550  0.98315204  1  0.055018  0  0.116562  0.102107  0  0.948244  0
H  H79  1  0.97052958  0.23919265  0.96103502  1  0.057531  0  0.116331  0.133187  0  0.986737  0
H  H80  1  0.83499206  0.16866725  0.96425929  1  0.122804  0  0.121651  0.143049  0  0.974433  0
H  H81  1  0.99215267  0.35325148  0.04346155  1  0.061705  0  0.10203  0.102293  0  0.996679  0
H  H82  1  0.06344828  0.33590866  0.12701167  1  0.09126  0  0.106882  0.107956  0  0.993174  0
H  H83  1  0.97278243  0.28564578  0.23755722  1  0.645672  0  0.314645  0.378511  0  0.936904  0
H  H84  1  0.52026628  0.07166545  0.72120763  1  0.631459  0  0.292686  0.358366  0  0.998009  0
H  H85  1  0.71382376  0.10301767  0.74896566  1  0.648499  0  0.305859  0.397858  0  0.93469  0
H  H86  1  0.60383693  0.32028304  0.38714309  1  0.612439  0  0.282867  0.370268  0  0.973688  0
H  H87  1  0.65731701  0.38414203  0.37107893  1  0.605451  0  0.275604  0.354313  0  0.995435  0
H  H88  1  0.34906228  0.99547593  0.65422923  1  0.435845  0  0.30529  0.249797  0  0.96394  0
H  H89  1  0.25264077  0.39133084  0.31620693  1  0.505229  0  0.321808  0.288525  0  0.912577  0
H  H90  1  0.00772082  0.40589976  0.32273457  1  0.525492  0  0.314034  0.282336  0  0.947377  0
H  H91  1  0.95752399  0.21564883  0.45411503  1  0.554999  0  0.298117  0.268147  0  1.010068  0
H  H92  1  0.86528108  0.24831909  0.41089470  1  0.489422  0  0.317106  0.274475  0  0.945422  0
H  H93  1  0.17189908  0.09701453  0.64249061  1  0.061573  0  0.104233  0.110172  0  1.002098  0
H  H94  1  0.32265501  0.14250319  0.69332399  1  0.067683  0  0.112326  0.115564  0  1.00148  0
H  H95  1  0.61424788  0.99857351  0.60776211  1  0.092677  0  0.116865  0.09757  0  1.002362  0
H  H96  1  0.64861043  0.08477040  0.63769817  1  0.030668  0  0.104564  0.08752  0  0.968562  0
H  H97  1  0.56347427  0.16267058  0.59890102  1  0.065097  0  0.086464  0.081001  0  1.057515  0
H  H98  1  0.39145012  0.19791064  0.53247879  1  0.053833  0  0.089467  0.082291  0  1.057988  0
H  H99  1  0.14147468  0.00264256  0.47653966  1  0.09819  0  0.104995  0.106407  0  1.012562  0
H  H100  1  0.29422605  0.96975765  0.54674935  1  0.089668  0  0.104805  0.111463  0  0.988939  0
H  H101  1  0.25529096  0.35250542  0.38931148  1  0.119027  0  0.122631  0.145562  0  0.996326  0
H  H102  1  0.99812291  0.36717670  0.39491572  1  0.080723  0  0.117285  0.132475  0  1.002039  0
H  H103  1  0.05344555  0.48728799  0.40286707  1  0.06239  0  0.121695  0.11038  0  0.947323  0
H  H104  1  0.30904967  0.47514673  0.39540974  1  0.105105  0  0.122813  0.1157  0  0.951427  0
H  H105  1  0.47336925  0.50010694  0.32166424  1  0.084585  0  0.101953  0.107797  0  1.032712  0
H  H106  1  0.45839580  0.54921814  0.25073330  1  0.108123  0  0.101287  0.099653  0  1.030099  0
H  H107  1  0.87814368  0.61430502  0.29211834  1  0.103418  0  0.110629  0.11571  0  0.99077  0
H  H108  1  0.88354108  0.55733271  0.35930895  1  0.073305  0  0.103674  0.107102  0  0.995453  0
H  H109  1  0.98524322  0.23857231  0.62239399  1  0.113698  0  0.118396  0.123592  0  0.981559  0
H  H110  1  0.05653433  0.25519308  0.53913405  1  0.158131  0  0.106511  0.120047  0  1.051546  0
H  H111  1  0.72225280  0.34263808  0.47262745  1  0.113874  0  0.108379  0.101025  0  1.001583  0
H  H112  1  0.97272692  0.33312176  0.48311908  1  0.056334  0  0.116401  0.102002  0  0.948937  0
H  H113  1  0.52940255  0.23918325  0.46110037  1  0.056471  0  0.116223  0.133163  0  0.987207  0
H  H114  1  0.66514217  0.16865745  0.46423936  1  0.122809  0  0.121713  0.143151  0  0.974558  0
H  H115  1  0.50719255  0.35303696  0.54338331  1  0.062593  0  0.102045  0.102442  0  0.996687  0
H  H116  1  0.43620898  0.33573142  0.62696051  1  0.091246  0  0.107004  0.108074  0  0.993149  0
H  H117  1  0.52736705  0.28570008  0.73755202  1  0.646377  0  0.314607  0.378557  0  0.936852  0
H  H118  1  0.97888152  0.07164290  0.22124959  1  0.629803  0  0.292496  0.358115  0  0.998355  0
H  H119  1  0.78541395  0.10286705  0.24911502  1  0.642721  0  0.305471  0.397128  0  0.935475  0
H  H120  1  0.89597335  0.32024769  0.88718530  1  0.611584  0  0.282792  0.370035  0  0.973973  0
H  H121  1  0.84277997  0.38415999  0.87115798  1  0.607567  0  0.275731  0.354523  0  0.995092  0
H  H122  1  0.84908101  0.00452232  0.84577295  1  0.435973  0  0.305355  0.249835  0  0.963961  0
H  H123  1  0.75262535  0.60866536  0.18381102  1  0.50579  0  0.321793  0.28871  0  0.912286  0
H  H124  1  0.50770245  0.59410178  0.17727901  1  0.525701  0  0.314012  0.282282  0  0.947567  0
H  H125  1  0.45752181  0.78432058  0.04587335  1  0.554869  0  0.2981  0.268088  0  1.010033  0
H  H126  1  0.36530573  0.75165517  0.08909873  1  0.49002  0  0.317117  0.274497  0  0.945391  0
H  H127  1  0.67190794  0.90299088  0.85751601  1  0.061298  0  0.104268  0.110247  0  1.002065  0
H  H128  1  0.82265135  0.85749582  0.80667630  1  0.068139  0  0.11232  0.115588  0  1.001388  0
H  H129  1  0.11431032  0.00140306  0.89222339  1  0.092713  0  0.116906  0.097609  0  1.002342  0
H  H130  1  0.14860548  0.91520186  0.86228477  1  0.030854  0  0.104637  0.087576  0  0.968619  0
H  H131  1  0.06357588  0.83732888  0.90110214  1  0.064951  0  0.086568  0.080989  0  1.057731  0
H  H132  1  0.89150919  0.80207627  0.96751056  1  0.053992  0  0.089357  0.082213  0  1.057803  0
H  H133  1  0.64139458  0.99733089  0.02343712  1  0.098059  0  0.104901  0.106429  0  1.01258  0
H  H134  1  0.79419587  0.03022519  0.95323979  1  0.089844  0  0.104692  0.111334  0  0.988907  0
H  H135  1  0.75534251  0.64747031  0.11069891  1  0.119428  0  0.122555  0.14554  0  0.996512  0
H  H136  1  0.49817752  0.63280276  0.10508381  1  0.081518  0  0.117351  0.13263  0  1.001937  0
H  H137  1  0.55343622  0.51270008  0.09715733  1  0.062495  0  0.121599  0.110356  0  0.947076  0
H  H138  1  0.80904772  0.52484396  0.10460422  1  0.105483  0  0.122768  0.115705  0  0.951343  0
H  H139  1  0.97338159  0.49989910  0.17836738  1  0.085097  0  0.101932  0.107773  0  1.032875  0
H  H140  1  0.95840258  0.45078806  0.24929480  1  0.107114  0  0.101195  0.09944  0  1.03011  0
H  H141  1  0.37818076  0.38569646  0.20790683  1  0.103438  0  0.110698  0.116007  0  0.99057  0
H  H142  1  0.38358586  0.44266722  0.14071585  1  0.074079  0  0.103704  0.107149  0  0.995368  0
H  H143  1  0.48525327  0.76140768  0.87760388  1  0.113619  0  0.118355  0.123401  0  0.98154  0
H  H144  1  0.55654136  0.74477800  0.96086014  1  0.158473  0  0.106502  0.120142  0  1.051437  0
H  H145  1  0.22222705  0.65734502  0.02736816  1  0.113476  0  0.108458  0.101115  0  1.001544  0
H  H146  1  0.47271130  0.66683698  0.01687583  1  0.056209  0  0.116418  0.102063  0  0.948849  0
H  H147  1  0.02941680  0.76078869  0.03889341  1  0.056177  0  0.116266  0.133262  0  0.987183  0
H  H148  1  0.16513896  0.83132067  0.03576218  1  0.122863  0  0.121823  0.14316  0  0.974293  0
H  H149  1  0.00721240  0.64693411  0.95660710  1  0.061179  0  0.102107  0.102579  0  0.996465  0
H  H150  1  0.93622836  0.66425304  0.87303568  1  0.091411  0  0.106993  0.108018  0  0.993223  0
H  H151  1  0.02738464  0.71429873  0.76244931  1  0.646483  0  0.314576  0.378635  0  0.9367  0
H  H152  1  0.47888531  0.92835679  0.27873912  1  0.629873  0  0.29259  0.358451  0  0.997886  0
H  H153  1  0.28543168  0.89710398  0.25087509  1  0.642835  0  0.305513  0.397246  0  0.935295  0
H  H154  1  0.39599550  0.67976408  0.61282411  1  0.611511  0  0.282663  0.369883  0  0.974161  0
H  H155  1  0.34278804  0.61585129  0.62885007  1  0.607585  0  0.275658  0.354401  0  0.995251  0
C  C156  1  0.74246481  0.90657519  0.32455328  1  -0.220365  0  -0.07526  -0.353285  0  3.971186  0
C  C157  1  0.46106706  0.95346654  0.37875602  1  0.288074  0  -0.060476  -0.078253  0  3.903172  0
C  C158  1  0.55860902  0.93616388  0.42214615  1  0.023922  0  -0.007518  0.098061  0  3.955581  0
C  C159  1  0.53248532  0.87234589  0.42741065  1  -0.070534  0  -0.102831  -0.149923  0  4.016779  0
C  C160  1  0.62693926  0.85274879  0.46492818  1  -0.049995  0  -0.098742  -0.107011  0  4.028941  0
C  C161  1  0.74582334  0.89771336  0.49995930  1  -0.03803  0  -0.022916  -0.048613  0  3.965911  0
C  C162  1  0.76838845  0.96236216  0.49586711  1  -0.034217  0  -0.081168  -0.087714  0  3.973273  0
C  C163  1  0.67982701  0.98074833  0.45680528  1  -0.114009  0  -0.083274  -0.120148  0  3.943184  0
C  C164  1  0.84977296  0.87503423  0.53956665  1  1.591139  0  0.215986  0.604149  0  4.194181  0
C  C165  1  0.87953968  0.64663943  0.63132767  1  -0.277093  0  -0.072048  -0.348352  0  3.759302  0
C  C166  1  0.82818699  0.52424282  0.62447718  1  0.201204  0  -0.046998  -0.076756  0  3.791957  0
C  C167  1  0.82502419  0.47835526  0.65706523  1  -0.057227  0  -0.013202  0.077109  0  3.989024  0
C  C168  1  0.66012684  0.47666358  0.68587817  1  -0.049753  0  -0.093415  -0.140519  0  3.977177  0
C  C169  1  0.66747870  0.44835460  0.72517974  1  -0.054225  0  -0.082735  -0.079859  0  3.986607  0
C  C170  1  0.83780813  0.41861965  0.73500049  1  -0.021945  0  -0.018609  -0.053457  0  3.974037  0
C  C171  1  0.99460075  0.41245647  0.70193836  1  0.019251  0  -0.074294  -0.075515  0  3.952909  0
C  C172  1  0.98976440  0.44334876  0.66390048  1  -0.065063  0  -0.085074  -0.128801  0  3.982083  0
C  C173  1  0.85793525  0.39835722  0.78229050  1  1.559034  0  0.209376  0.575949  0  4.248307  0
C  C174  1  0.32045495  0.72519086  0.32105786  1  1.519436  0  0.249261  0.607147  0  4.113483  0
C  C175  1  0.29280778  0.71379378  0.37050652  1  -0.020326  0  -0.0156  -0.060362  0  4.003811  0
C  C176  1  0.11749240  0.73598832  0.39509519  1  -0.055165  0  -0.068712  -0.06198  0  3.941539  0
C  C177  1  0.07679546  0.72562160  0.44097555  1  -0.057846  0  -0.08915  -0.136984  0  3.946539  0
C  C178  1  0.21217978  0.69388536  0.46361084  1  -0.069169  0  -0.005847  0.100334  0  3.965248  0
C  C179  1  0.17088387  0.68846339  0.51550652  1  0.25464  0  -0.055708  -0.082843  0  3.837193  0
C  C180  1  0.35227572  0.79458367  0.55641949  1  -0.264157  0  -0.0706  -0.335433  0  3.769682  0
C  C181  1  0.38671769  0.67138611  0.43888682  1  -0.034535  0  -0.090723  -0.150109  0  3.998191  0
C  C182  1  0.42775652  0.68115957  0.39235854  1  -0.011849  0  -0.074065  -0.070404  0  3.968068  0
C  C183  1  0.24243536  0.09342530  0.17542135  1  -0.220794  0  -0.075131  -0.353391  0  3.971078  0
C  C184  1  0.96099626  0.04655729  0.12123537  1  0.288602  0  -0.060343  -0.078315  0  3.902588  0
C  C185  1  0.05854876  0.06386027  0.07784284  1  0.024952  0  -0.007607  0.098104  0  3.95528  0
C  C186  1  0.03240675  0.12767700  0.07258319  1  -0.10674  0  -0.102789  -0.149787  0  4.016723  0
C  C187  1  0.12686609  0.14728019  0.03506707  1  -0.051409  0  -0.098711  -0.106986  0  4.028973  0
C  C188  1  0.24577556  0.10231947  0.00003819  1  -0.037028  0  -0.022875  -0.048657  0  3.966144  0
C  C189  1  0.26833028  0.03766749  0.00412560  1  -0.034877  0  -0.081201  -0.087526  0  3.973327  0
C  C190  1  0.17977047  0.01927867  0.04318499  1  -0.11447  0  -0.083125  -0.119999  0  3.943689  0
C  C191  1  0.34973344  0.12499499  0.96043681  1  1.589479  0  0.216188  0.604644  0  4.193247  0
C  C192  1  0.37951535  0.35337599  0.86868047  1  -0.276495  0  -0.072006  -0.348316  0  3.759322  0
C  C193  1  0.32820892  0.47577114  0.87552073  1  0.201227  0  -0.046984  -0.076578  0  3.791922  0
C  C194  1  0.32506966  0.52165375  0.84292975  1  -0.057634  0  -0.013278  0.076926  0  3.988999  0
C  C195  1  0.16017547  0.52334003  0.81411007  1  -0.050102  0  -0.093366  -0.140719  0  3.977072  0
C  C196  1  0.16752938  0.55165191  0.77481238  1  -0.054095  0  -0.082694  -0.079627  0  3.986288  0
C  C197  1  0.33785746  0.58138925  0.76499334  1  -0.02162  0  -0.018672  -0.053875  0  3.974361  0
C  C198  1  0.49464037  0.58755045  0.79805228  1  0.008404  0  -0.074277  -0.075457  0  3.952824  0
C  C199  1  0.48981808  0.55665620  0.83609118  1  -0.064796  0  -0.085263  -0.129042  0  3.9816  0
C  C200  1  0.35798334  0.60166295  0.71770871  1  1.558975  0  0.209599  0.576505  0  4.247878  0
C  C201  1  0.82041151  0.27481275  0.17894710  1  1.519864  0  0.249326  0.607277  0  4.113578  0
C  C202  1  0.79277392  0.28621909  0.12949742  1  -0.020249  0  -0.015661  -0.060485  0  4.003788  0
C  C203  1  0.61745436  0.26402172  0.10490875  1  -0.054571  0  -0.068611  -0.061889  0  3.941127  0
C  C204  1  0.57677407  0.27438584  0.05902579  1  -0.057664  0  -0.089217  -0.137103  0  3.94627  0
C  C205  1  0.71215194  0.30612130  0.03638982  1  -0.069955  0  -0.005695  0.100609  0  3.965288  0
C  C206  1  0.67084747  0.31154556  0.98449443  1  0.25459  0  -0.055753  -0.082966  0  3.837209  0
C  C207  1  0.85224607  0.20542506  0.94358110  1  -0.263818  0  -0.070619  -0.335093  0  3.76933  0
C  C208  1  0.88667093  0.32862238  0.06111505  1  -0.034433  0  -0.09077  -0.150291  0  3.998395  0
C  C209  1  0.92771900  0.31885004  0.10764235  1  -0.012441  0  -0.07414  -0.070465  0  3.968077  0
C  C210  1  0.25650071  0.09337394  0.67531376  1  -0.237144  0  -0.075389  -0.35226  0  3.969823  0
C  C211  1  0.53836148  0.04660622  0.62128838  1  0.284132  0  -0.06027  -0.078028  0  3.903382  0
C  C212  1  0.44121908  0.06399441  0.57788132  1  -0.038077  0  -0.007598  0.098087  0  3.954884  0
C  C213  1  0.46794139  0.12777801  0.57259529  1  -0.046673  0  -0.103003  -0.150124  0  4.017182  0
C  C214  1  0.37370382  0.14745852  0.53508668  1  -0.016303  0  -0.098383  -0.106651  0  4.029122  0
C  C215  1  0.25441296  0.10262370  0.50009448  1  -0.073532  0  -0.022358  -0.047085  0  3.964994  0
C  C216  1  0.23129972  0.03799738  0.50419106  1  -0.042148  0  -0.081171  -0.088969  0  3.97308  0
C  C217  1  0.31961162  0.01952876  0.54325177  1  -0.102412  0  -0.082867  -0.11967  0  3.943007  0
C  C218  1  0.15035227  0.12537950  0.46055179  1  1.552937  0  0.215392  0.602251  0  4.193245  0
C  C219  1  0.12049036  0.35332597  0.36869876  1  -0.274656  0  -0.071684  -0.34739  0  3.757052  0
C  C220  1  0.17234791  0.47569110  0.37554965  1  0.236621  0  -0.047353  -0.077753  0  3.791803  0
C  C221  1  0.17570688  0.52158510  0.34297567  1  -0.071177  0  -0.013095  0.077388  0  3.987602  0
C  C222  1  0.34052923  0.52313768  0.31409069  1  -0.051015  0  -0.093977  -0.14174  0  3.975804  0
C  C223  1  0.33323507  0.55151495  0.27482593  1  -0.067895  0  -0.082273  -0.078601  0  3.984953  0
C  C224  1  0.16308738  0.58142887  0.26510216  1  -0.0284  0  -0.019519  -0.055398  0  3.975972  0
C  C225  1  0.00646207  0.58770471  0.29822310  1  0.017903  0  -0.074224  -0.075122  0  3.954005  0
C  C226  1  0.01115274  0.55674213  0.33622372  1  -0.085503  0  -0.084556  -0.127611  0  3.980425  0
C  C227  1  0.14282323  0.60175163  0.21784031  1  1.563756  0  0.209492  0.576372  0  4.246986  0
C  C228  1  0.67994146  0.27505223  0.67900082  1  1.518359  0  0.249846  0.608893  0  4.113621  0
C  C229  1  0.70738670  0.28637698  0.62952488  1  -0.020373  0  -0.015959  -0.061828  0  4.006155  0
C  C230  1  0.88286651  0.26433370  0.60497029  1  -0.055105  0  -0.068512  -0.061953  0  3.942805  0
C  C231  1  0.92338026  0.27467003  0.55906968  1  -0.043326  0  -0.08913  -0.136393  0  3.948218  0
C  C232  1  0.78768438  0.30622960  0.53638298  1  -0.080929  0  -0.005416  0.10049  0  3.966895  0
C  C233  1  0.82882451  0.31162713  0.48447921  1  0.2142  0  -0.055683  -0.083005  0  3.838862  0
C  C234  1  0.64767787  0.20543977  0.44359169  1  -0.262236  0  -0.070771  -0.335725  0  3.769436  0
C  C235  1  0.61295463  0.32855863  0.56106751  1  -0.039453  0  -0.090571  -0.150088  0  3.997982  0
C  C236  1  0.57208889  0.31882555  0.60761796  1  -0.01171  0  -0.074411  -0.070419  0  3.967934  0
C  C237  1  0.75650707  0.90662868  0.82468904  1  -0.237941  0  -0.075407  -0.352377  0  3.969731  0
C  C238  1  0.03839190  0.95338053  0.87870369  1  0.284185  0  -0.06047  -0.078313  0  3.903575  0
C  C239  1  0.94124761  0.93599652  0.92211164  1  -0.038107  0  -0.007411  0.098257  0  3.954266  0
C  C240  1  0.96799113  0.87221614  0.92740191  1  -0.05027  0  -0.103096  -0.150163  0  4.0176  0
C  C241  1  0.87374383  0.85252855  0.96490458  1  -0.013803  0  -0.098426  -0.106784  0  4.028667  0
C  C242  1  0.75440018  0.89736053  0.99989261  1  -0.072967  0  -0.022154  -0.046417  0  3.964536  0
C  C243  1  0.73126849  0.96198308  0.99579345  1  -0.04103  0  -0.08124  -0.089466  0  3.973572  0
C  C244  1  0.81958741  0.98045735  0.95673586  1  -0.102477  0  -0.082703  -0.119345  0  3.942252  0
C  C245  1  0.65033701  0.87459883  0.03943219  1  1.549923  0  0.215629  0.60229  0  4.193701  0
C  C246  1  0.62052046  0.64666055  0.13130594  1  -0.276516  0  -0.071727  -0.347704  0  3.757995  0
C  C247  1  0.67236204  0.52429237  0.12446966  1  0.236579  0  -0.047358  -0.077798  0  3.791564  0
C  C248  1  0.67574219  0.47841578  0.15705300  1  -0.071519  0  -0.013163  0.077134  0  3.988027  0
C  C249  1  0.84055416  0.47686663  0.18593851  1  -0.050913  0  -0.094052  -0.141918  0  3.97564  0
C  C250  1  0.83325506  0.44849143  0.22520304  1  -0.0135  0  -0.081822  -0.077508  0  3.984506  0
C  C251  1  0.66312028  0.41857265  0.23492345  1  -0.081579  0  -0.019612  -0.0561  0  3.976856  0
C  C252  1  0.50649028  0.41229578  0.20180394  1  0.019122  0  -0.074171  -0.075159  0  3.953773  0
C  C253  1  0.51118130  0.44325983  0.16380220  1  -0.087385  0  -0.084497  -0.127509  0  3.980154  0
C  C254  1  0.64281986  0.39824409  0.28218406  1  1.563315  0  0.209752  0.577312  0  4.246199  0
C  C255  1  0.17993877  0.72494362  0.82100252  1  1.517074  0  0.249767  0.608873  0  4.113608  0
C  C256  1  0.20740326  0.71361014  0.87047421  1  -0.02085  0  -0.016049  -0.061799  0  4.006084  0
C  C257  1  0.38287572  0.73564575  0.89503000  1  -0.0551  0  -0.068367  -0.061618  0  3.942793  0
C  C258  1  0.42338725  0.72530106  0.94092604  1  -0.043837  0  -0.089185  -0.136603  0  3.948318  0
C  C259  1  0.28767761  0.69374329  0.96360969  1  -0.079715  0  -0.005242  0.100773  0  3.966832  0
C  C260  1  0.32881475  0.68834347  0.01551640  1  0.214266  0  -0.05585  -0.083252  0  3.838659  0
C  C261  1  0.14767867  0.79453253  0.05640643  1  -0.2616  0  -0.071135  -0.335929  0  3.769129  0
C  C262  1  0.11296821  0.67141792  0.93892519  1  -0.038389  0  -0.090694  -0.150509  0  3.998257  0
C  C263  1  0.07211054  0.68115588  0.89237565  1  -0.011616  0  -0.074409  -0.070213  0  3.967723  0
N  N264  1  0.59128967  0.95769243  0.33759672  1  -1.074345  0  -0.450558  -0.281571  0  3.40913  0
N  N265  1  0.86174073  0.59480555  0.65817864  1  -1.081855  0  -0.461811  -0.164333  0  3.516468  0
N  N266  1  0.16882060  0.75605892  0.55360916  1  -1.091673  0  -0.466171  -0.186336  0  3.518463  0
N  N267  1  0.09124569  0.04231096  0.16238598  1  -1.073518  0  -0.450829  -0.281622  0  3.408958  0
N  N268  1  0.36173053  0.40520656  0.84182845  1  -1.082664  0  -0.461865  -0.164473  0  3.516919  0
N  N269  1  0.66879399  0.24395054  0.94639264  1  -1.091756  0  -0.466077  -0.186474  0  3.518684  0
N  N270  1  0.40780999  0.04231128  0.66235699  1  -1.079043  0  -0.450999  -0.282138  0  3.409754  0
N  N271  1  0.13859512  0.40514686  0.34184915  1  -1.068694  0  -0.461378  -0.163663  0  3.516107  0
N  N272  1  0.83105221  0.24401654  0.44638972  1  -1.087447  0  -0.465256  -0.184073  0  3.518054  0
N  N273  1  0.90782657  0.95768793  0.83764158  1  -1.078664  0  -0.451025  -0.28201  0  3.409761  0
N  N274  1  0.63859089  0.59484694  0.15816507  1  -1.069132  0  -0.461314  -0.163879  0  3.516658  0
N  N275  1  0.33106729  0.75595704  0.05360296  1  -1.088054  0  -0.465091  -0.184005  0  3.518244  0
O  O276  1  0.91791018  0.91756310  0.57838667  1  -1.206661  0  -0.373107  -0.661943  0  2.210746  0
O  O277  1  0.86498886  0.81145151  0.53067598  1  -1.207275  0  -0.328926  -0.572357  0  2.247762  0
O  O278  1  0.01668978  0.98867876  0.31012645  1  -1.46722  0  -0.505777  -0.876725  0  2.226987  0
O  O279  1  0.05917965  0.86605705  0.26812699  1  -1.449082  0  -0.528339  -0.896235  0  2.280266  0
O  O280  1  0.80838404  0.92836173  0.23320578  1  -1.478462  0  -0.46716  -0.891109  0  2.260084  0
O  O281  1  0.96078814  0.77564045  0.64525179  1  -1.473003  0  -0.40306  -0.847326  0  2.268448  0
O  O282  1  0.75280311  0.74556292  0.71250561  1  -1.470363  0  -0.499356  -0.879167  0  2.290956  0
O  O283  1  0.10164931  0.71786557  0.70810110  1  -1.475509  0  -0.466412  -0.890541  0  2.324106  0
O  O284  1  0.74047324  0.42145838  0.81833234  1  -1.189831  0  -0.312844  -0.558226  0  2.20507  0
O  O285  1  0.00096567  0.36053040  0.78494286  1  -1.228249  0  -0.392597  -0.696115  0  2.306776  0
O  O286  1  0.48687312  0.70739941  0.29755562  1  -1.156718  0  -0.312554  -0.46362  0  2.256044  0
O  O287  1  0.18689111  0.74995034  0.30243520  1  -1.196466  0  -0.36289  -0.615495  0  2.314553  0
O  O288  1  0.60927672  0.86641114  0.62475980  1  -1.479537  0  -0.454935  -0.870162  0  2.275287  0
O  O289  1  0.24842950  0.88242392  0.64515597  1  -1.477697  0  -0.454959  -0.87804  0  2.234369  0
O  O290  1  0.41324893  0.77232365  0.64320366  1  -1.468727  0  -0.513356  -0.920769  0  2.272978  0
O  O291  1  0.07394421  0.89893221  0.74546719  1  -1.311634  0  -0.63915  -0.881359  0  2.117736  0
O  O292  1  0.11226194  0.63041833  0.10018928  1  -1.262975  0  -0.618501  -0.791227  0  1.89212  0
O  O293  1  0.41791778  0.08246795  0.92162308  1  -1.206118  0  -0.373274  -0.662286  0  2.210523  0
O  O294  1  0.36494312  0.18857958  0.96932533  1  -1.206399  0  -0.328957  -0.572528  0  2.247429  0
O  O295  1  0.51661553  0.01130789  0.18984803  1  -1.467591  0  -0.505697  -0.876632  0  2.226658  0
O  O296  1  0.55920710  0.13393277  0.23182896  1  -1.448657  0  -0.528222  -0.896072  0  2.279952  0
O  O297  1  0.30840938  0.07167105  0.26678245  1  -1.478386  0  -0.467275  -0.891436  0  2.259865  0
O  O298  1  0.46077325  0.22437370  0.85475793  1  -1.473152  0  -0.403193  -0.847325  0  2.268096  0
O  O299  1  0.25281356  0.25445070  0.78750439  1  -1.471203  0  -0.499436  -0.87929  0  2.290719  0
O  O300  1  0.60165592  0.28214797  0.79191232  1  -1.475594  0  -0.466434  -0.890595  0  2.324023  0
O  O301  1  0.24052082  0.57856691  0.68166450  1  -1.189538  0  -0.312782  -0.558362  0  2.205062  0
O  O302  1  0.50100392  0.63949412  0.71506515  1  -1.228517  0  -0.392703  -0.696267  0  2.306545  0
O  O303  1  0.98684720  0.29260115  0.20244227  1  -1.156876  0  -0.312563  -0.463658  0  2.256104  0
O  O304  1  0.68684380  0.25006454  0.19756815  1  -1.196626  0  -0.362795  -0.615362  0  2.314882  0
O  O305  1  0.10927953  0.13360738  0.87524068  1  -1.479243  0  -0.454853  -0.870104  0  2.275415  0
O  O306  1  0.74844593  0.11758881  0.85483907  1  -1.477898  0  -0.454872  -0.877992  0  2.234427  0
O  O307  1  0.91323773  0.22769048  0.85680153  1  -1.468707  0  -0.513191  -0.920596  0  2.273323  0
O  O308  1  0.57393923  0.10106718  0.75452978  1  -1.311992  0  -0.639178  -0.881333  0  2.117925  0
O  O309  1  0.61221264  0.36954925  0.39982195  1  -1.261871  0  -0.618754  -0.791961  0  1.891708  0
O  O310  1  0.08168133  0.08289789  0.42178073  1  -1.207673  0  -0.373362  -0.661814  0  2.209934  0
O  O311  1  0.13538303  0.18896669  0.46944780  1  -1.169958  0  -0.328623  -0.570706  0  2.246596  0
O  O312  1  0.98249354  0.01136496  0.69004610  1  -1.468186  0  -0.505499  -0.876186  0  2.226598  0
O  O313  1  0.93988684  0.13406407  0.73172049  1  -1.449497  0  -0.528643  -0.896378  0  2.278544  0
O  O314  1  0.19090024  0.07205134  0.76683612  1  -1.478144  0  -0.467202  -0.891278  0  2.260585  0
O  O315  1  0.03912218  0.22432264  0.35473411  1  -1.473679  0  -0.40339  -0.847436  0  2.269027  0
O  O316  1  0.24745051  0.25444382  0.28755221  1  -1.470615  0  -0.498954  -0.879126  0  2.290879  0
O  O317  1  0.89857114  0.28209307  0.29187189  1  -1.475436  0  -0.466623  -0.890716  0  2.325021  0
O  O318  1  0.26003570  0.57859526  0.18174049  1  -1.191477  0  -0.313096  -0.558163  0  2.205179  0
O  O319  1  0.99984329  0.63963764  0.21525008  1  -1.227891  0  -0.392805  -0.695917  0  2.30564  0
O  O320  1  0.51328963  0.29262811  0.70243666  1  -1.157393  0  -0.312512  -0.463687  0  2.256233  0
O  O321  1  0.81383850  0.25054178  0.69769714  1  -1.193587  0  -0.362869  -0.616097  0  2.315888  0
O  O322  1  0.39038261  0.13374272  0.37525225  1  -1.479818  0  -0.45477  -0.87037  0  2.275937  0
O  O323  1  0.75113463  0.11758967  0.35482306  1  -1.47642  0  -0.454665  -0.87735  0  2.235505  0
O  O324  1  0.58670754  0.22776669  0.35682275  1  -1.467591  0  -0.512926  -0.919993  0  2.273397  0
O  O325  1  0.92540356  0.10105553  0.25459496  1  -1.30477  0  -0.638265  -0.880231  0  2.118497  0
O  O326  1  0.88767290  0.36951635  0.89989141  1  -1.263047  0  -0.618759  -0.791931  0  1.891596  0
O  O327  1  0.58169830  0.91707658  0.07820695  1  -1.207289  0  -0.373444  -0.661749  0  2.210444  0
O  O328  1  0.63538408  0.81100879  0.03053559  1  -1.167647  0  -0.328816  -0.571009  0  2.246609  0
O  O329  1  0.48249568  0.98864848  0.80996481  1  -1.468144  0  -0.505435  -0.876167  0  2.226806  0
O  O330  1  0.43987813  0.86595128  0.76828778  1  -1.449559  0  -0.52862  -0.896347  0  2.279024  0
O  O331  1  0.69089513  0.92795590  0.73316905  1  -1.478176  0  -0.467206  -0.891245  0  2.260556  0
O  O332  1  0.53914284  0.77565922  0.14525577  1  -1.473506  0  -0.403316  -0.847339  0  2.268629  0
O  O333  1  0.74744150  0.74554602  0.21244593  1  -1.470545  0  -0.499007  -0.87913  0  2.290777  0
O  O334  1  0.39858039  0.71789584  0.20812511  1  -1.475546  0  -0.466595  -0.890623  0  2.324978  0
O  O335  1  0.76001264  0.42140032  0.31828846  1  -1.191765  0  -0.313301  -0.558855  0  2.205022  0
O  O336  1  0.49986564  0.36034973  0.28476674  1  -1.228334  0  -0.392903  -0.696118  0  2.305337  0
O  O337  1  0.01329391  0.70736285  0.79756330  1  -1.15656  0  -0.312586  -0.463936  0  2.256015  0
O  O338  1  0.31382238  0.74946379  0.80230864  1  -1.193234  0  -0.362749  -0.616105  0  2.315752  0
O  O339  1  0.89033653  0.86621378  0.12474785  1  -1.479638  0  -0.454904  -0.870378  0  2.275804  0
O  O340  1  0.25110523  0.88237813  0.14518014  1  -1.476034  0  -0.454466  -0.877327  0  2.235689  0
O  O341  1  0.08671875  0.77219123  0.14316907  1  -1.467447  0  -0.513004  -0.920164  0  2.273958  0
O  O342  1  0.42542152  0.89893165  0.24539723  1  -1.304898  0  -0.638386  -0.880633  0  2.118224  0
O  O343  1  0.38769047  0.63050000  0.60011655  1  -1.262958  0  -0.618615  -0.791681  0  1.891809  0
