# generated using pymatgen
data_MgH4(C2N3)2
_symmetry_space_group_name_H-M   'P 1'
_cell_length_a   12.54884524
_cell_length_b   12.54885015
_cell_length_c   12.54883898
_cell_angle_alpha   60.00001042
_cell_angle_beta   60.00002043
_cell_angle_gamma   60.00005268
_symmetry_Int_Tables_number   1
_chemical_formula_structural   MgH4(C2N3)2
_chemical_formula_sum   'Mg6 H24 C24 N36'
_cell_volume   1397.32207253
_cell_formula_units_Z   6
loop_
 _symmetry_equiv_pos_site_id
 _symmetry_equiv_pos_as_xyz
  1  'x, y, z'
loop_
 _atom_site_type_symbol
 _atom_site_label
 _atom_site_symmetry_multiplicity
 _atom_site_fract_x
 _atom_site_fract_y
 _atom_site_fract_z
 _atom_site_occupancy
 _atom_site_pbe_bader_charge
 _atom_site_pbe_bader_spin_density
 _atom_site_pbe_cm5_charge
 _atom_site_pbe_ddec_charge
 _atom_site_pbe_ddec_spin_density
 _atom_site_pbe_ddec_sum_bond_order
 _atom_site_pbe_magmom
Mg  Mg0  1  0.50000060  0.00000094  0.49999988  1  1.651167  0  0.897112  1.005521  0  1.869751  0
Mg  Mg1  1  0.00000278  0.99999904  0.99999779  1  1.650929  0  0.897106  1.005535  0  1.869735  0
Mg  Mg2  1  0.50000085  0.49999887  0.00000149  1  1.650937  0  0.897098  1.005522  0  1.869734  0
Mg  Mg3  1  0.49999999  0.99999869  0.00000110  1  1.637551  0  0.897095  1.005535  0  1.86973  0
Mg  Mg4  1  0.62500065  0.12500102  0.12499973  1  1.649771  0  0.895586  0.973049  0  1.865316  0
Mg  Mg5  1  0.37500028  0.87499878  0.87500051  1  1.649773  0  0.895585  0.973042  0  1.865336  0
H  H6  1  0.33893558  0.29863984  0.52349131  1  0.104777  0  0.122626  0.118186  0  0.991832  0
H  H7  1  0.02348892  0.83893462  0.83893622  1  0.102061  0  0.12264  0.11819  0  0.991842  0
H  H8  1  0.33893550  0.52348731  0.29864188  1  0.103061  0  0.122616  0.118152  0  0.991903  0
H  H9  1  0.79863997  0.83893434  0.83893704  1  0.08557  0  0.122633  0.118185  0  0.991841  0
H  H10  1  0.33893407  0.52348889  0.83893591  1  0.102069  0  0.12262  0.11814  0  0.991889  0
H  H11  1  0.02349251  0.83893521  0.29863883  1  0.104839  0  0.122616  0.118152  0  0.991837  0
H  H12  1  0.33893442  0.29864018  0.83893555  1  0.085576  0  0.122619  0.118144  0  0.991863  0
H  H13  1  0.79864198  0.83893645  0.52348755  1  0.104801  0  0.122601  0.118134  0  0.99192  0
H  H14  1  0.33893287  0.83893798  0.29864102  1  0.085639  0  0.122617  0.118163  0  0.991865  0
H  H15  1  0.02349119  0.29864092  0.83893369  1  0.065809  0  0.122635  0.118185  0  0.991812  0
H  H16  1  0.33893229  0.83893732  0.52349109  1  0.102059  0  0.122624  0.118167  0  0.991846  0
H  H17  1  0.79864250  0.52348836  0.83893329  1  0.065911  0  0.122614  0.118161  0  0.991886  0
H  H18  1  0.97650956  0.70135711  0.16106557  1  0.104809  0  0.122635  0.118171  0  0.991809  0
H  H19  1  0.66106566  0.16106428  0.47651131  1  0.102055  0  0.122631  0.11819  0  0.991835  0
H  H20  1  0.20135980  0.47651440  0.16106358  1  0.06586  0  0.122611  0.118159  0  0.991949  0
H  H21  1  0.66106475  0.16106329  0.70136105  1  0.085538  0  0.122644  0.118182  0  0.991816  0
H  H22  1  0.66106720  0.47650966  0.16106524  1  0.102068  0  0.122637  0.118197  0  0.991801  0
H  H23  1  0.20135986  0.16106585  0.47651025  1  0.06605  0  0.122635  0.118189  0  0.991846  0
H  H24  1  0.66106209  0.70135998  0.16106679  1  0.085556  0  0.122618  0.118135  0  0.991884  0
H  H25  1  0.97651107  0.16106405  0.70135832  1  0.104786  0  0.122641  0.118208  0  0.991819  0
H  H26  1  0.20135845  0.16106614  0.16106504  1  0.085603  0  0.122616  0.118141  0  0.991854  0
H  H27  1  0.66106131  0.70136070  0.47651417  1  0.104807  0  0.122601  0.118127  0  0.991995  0
H  H28  1  0.97651262  0.16106419  0.16106244  1  0.102069  0  0.122609  0.118122  0  0.991971  0
H  H29  1  0.66106746  0.47650813  0.70135580  1  0.104813  0  0.122622  0.118134  0  0.991842  0
C  C30  1  0.38471972  0.31004637  0.42051730  1  0.353344  0  0.002474  -0.059204  0  4.035952  0
C  C31  1  0.92051785  0.88471756  0.88471840  1  0.43221  0  0.002447  -0.059155  0  4.03592  0
C  C32  1  0.38471941  0.42051667  0.31004531  1  0.441162  0  0.002485  -0.059086  0  4.036016  0
C  C33  1  0.81004656  0.88471533  0.88472047  1  0.38495  0  0.002535  -0.059122  0  4.035885  0
C  C34  1  0.38471919  0.42051466  0.88471875  1  0.369731  0  0.002517  -0.059093  0  4.035978  0
C  C35  1  0.92051637  0.88471787  0.31004739  1  0.4369  0  0.00248  -0.059176  0  4.035955  0
C  C36  1  0.38471757  0.31004565  0.88472089  1  0.44776  0  0.002486  -0.059157  0  4.035981  0
C  C37  1  0.81004802  0.88472014  0.42051445  1  0.353197  0  0.002494  -0.059133  0  4.036038  0
C  C38  1  0.38471602  0.88472108  0.31004775  1  0.384669  0  0.002512  -0.059104  0  4.035949  0
C  C39  1  0.92051426  0.31004994  0.88471279  1  0.38596  0  0.002502  -0.059139  0  4.035958  0
C  C40  1  0.38471569  0.88472231  0.42051635  1  0.432608  0  0.002492  -0.059168  0  4.035976  0
C  C41  1  0.81004678  0.42051252  0.88471863  1  0.472103  0  0.002502  -0.05913  0  4.036119  0
C  C42  1  0.07948398  0.68995195  0.11528024  1  0.353363  0  0.002492  -0.059126  0  4.03581  0
C  C43  1  0.61528364  0.11527908  0.57948388  1  0.369583  0  0.002488  -0.059206  0  4.035947  0
C  C44  1  0.18995661  0.57948336  0.11528501  1  0.472145  0  0.002498  -0.059151  0  4.036033  0
C  C45  1  0.61528080  0.11528257  0.68995373  1  0.4478  0  0.002481  -0.0591  0  4.035887  0
C  C46  1  0.61528320  0.57948341  0.11528273  1  0.369659  0  0.002486  -0.059155  0  4.035852  0
C  C47  1  0.18995429  0.11528104  0.57948302  1  0.474278  0  0.002446  -0.059224  0  4.036006  0
C  C48  1  0.61527927  0.68995483  0.11528178  1  0.447826  0  0.002497  -0.059078  0  4.035953  0
C  C49  1  0.07948344  0.11528240  0.68995252  1  0.351387  0  0.002477  -0.059162  0  4.035947  0
C  C50  1  0.18995234  0.11528244  0.11528187  1  0.384481  0  0.002507  -0.059107  0  4.035873  0
C  C51  1  0.61527803  0.68995662  0.57948294  1  0.439572  0  0.002512  -0.059093  0  4.036077  0
C  C52  1  0.07948303  0.11528060  0.11527961  1  0.432704  0  0.00253  -0.059073  0  4.036019  0
C  C53  1  0.61528006  0.57948486  0.68995368  1  0.353223  0  0.002513  -0.059125  0  4.035922  0
N  N54  1  0.45762164  0.20515046  0.37960542  1  -0.754704  0  -0.272659  -0.249345  0  3.496089  0
N  N55  1  0.87960497  0.95762218  0.95762329  1  -0.760096  0  -0.272642  -0.24938  0  3.496058  0
N  N56  1  0.45762283  0.37960736  0.20514921  1  -0.754591  0  -0.27268  -0.249415  0  3.496121  0
N  N57  1  0.70514991  0.95762131  0.95762138  1  -0.761632  0  -0.272653  -0.249374  0  3.495997  0
N  N58  1  0.45762224  0.37960651  0.95762246  1  -0.760423  0  -0.272624  -0.249282  0  3.496  0
N  N59  1  0.87960636  0.95762223  0.20515004  1  -0.752147  0  -0.272593  -0.249267  0  3.495997  0
N  N60  1  0.45762326  0.20514869  0.95762148  1  -0.761681  0  -0.27263  -0.249284  0  3.496017  0
N  N61  1  0.70514850  0.95762169  0.37960749  1  -0.758938  0  -0.272639  -0.24931  0  3.49596  0
N  N62  1  0.45762186  0.95762371  0.20514852  1  -0.761654  0  -0.272696  -0.249448  0  3.496061  0
N  N63  1  0.87960788  0.20514892  0.95762117  1  -0.752681  0  -0.272629  -0.249316  0  3.495909  0
N  N64  1  0.45762237  0.95762257  0.37960603  1  -0.760289  0  -0.272657  -0.249339  0  3.495962  0
N  N65  1  0.70514929  0.37960655  0.95762208  1  -0.752702  0  -0.272651  -0.249335  0  3.496058  0
N  N66  1  0.12039352  0.79484976  0.04237874  1  -0.754678  0  -0.272664  -0.249396  0  3.496058  0
N  N67  1  0.54237824  0.04237691  0.62039387  1  -0.760289  0  -0.272655  -0.249315  0  3.496004  0
N  N68  1  0.29485084  0.62039404  0.04237816  1  -0.748445  0  -0.272662  -0.249328  0  3.496002  0
N  N69  1  0.54237953  0.04237655  0.79485079  1  -0.761703  0  -0.272593  -0.249321  0  3.495982  0
N  N70  1  0.54237902  0.62039362  0.04237810  1  -0.7604  0  -0.272634  -0.249366  0  3.49603  0
N  N71  1  0.29484972  0.04238017  0.62039242  1  -0.755077  0  -0.272587  -0.249256  0  3.495973  0
N  N72  1  0.54237642  0.79485145  0.04237967  1  -0.761727  0  -0.272664  -0.249413  0  3.496089  0
N  N73  1  0.12039313  0.04237772  0.79484954  1  -0.752727  0  -0.272629  -0.249324  0  3.496056  0
N  N74  1  0.29484799  0.04237865  0.04237880  1  -0.76157  0  -0.272627  -0.249347  0  3.496084  0
N  N75  1  0.54237736  0.79485219  0.62039389  1  -0.75492  0  -0.2727  -0.249366  0  3.496052  0
N  N76  1  0.12039373  0.04237698  0.04237688  1  -0.760209  0  -0.272701  -0.24938  0  3.496038  0
N  N77  1  0.54237855  0.62039448  0.79484951  1  -0.754588  0  -0.272647  -0.249294  0  3.496028  0
N  N78  1  0.50076593  0.24923509  0.24923415  1  -0.318481  0  -0.15317  -0.116649  0  3.442497  0
N  N79  1  0.74923442  0.00076440  0.00076492  1  -0.305934  0  -0.153245  -0.116694  0  3.442465  0
N  N80  1  0.50076555  0.24923479  0.00076431  1  -0.305932  0  -0.153261  -0.116802  0  3.44254  0
N  N81  1  0.74923546  0.00076377  0.24923600  1  -0.314097  0  -0.15327  -0.116751  0  3.442457  0
N  N82  1  0.50076358  0.00076560  0.24923557  1  -0.305919  0  -0.15318  -0.116616  0  3.442399  0
N  N83  1  0.74923471  0.24923502  0.00076442  1  -0.309812  0  -0.153277  -0.116781  0  3.442468  0
N  N84  1  0.25076584  0.75076439  0.99923267  1  -0.31847  0  -0.153221  -0.116685  0  3.44246  0
N  N85  1  0.49923497  0.99923501  0.75076525  1  -0.305952  0  -0.153292  -0.116783  0  3.44246  0
N  N86  1  0.49923599  0.75076403  0.99923435  1  -0.305873  0  -0.15324  -0.11668  0  3.442534  0
N  N87  1  0.25076468  0.99923525  0.75076482  1  -0.3141  0  -0.153295  -0.116785  0  3.442456  0
N  N88  1  0.25076428  0.99923476  0.99923525  1  -0.305961  0  -0.153231  -0.116704  0  3.442499  0
N  N89  1  0.49923262  0.75076552  0.75076668  1  -0.318527  0  -0.153197  -0.116723  0  3.442483  0
