# generated using pymatgen
data_ZnH16C18(N3Cl)2
_symmetry_space_group_name_H-M   'P 1'
_cell_length_a   5.79180750
_cell_length_b   11.95378055
_cell_length_c   13.63186342
_cell_angle_alpha   90.76900648
_cell_angle_beta   102.26191778
_cell_angle_gamma   89.98248591
_symmetry_Int_Tables_number   1
_chemical_formula_structural   ZnH16C18(N3Cl)2
_chemical_formula_sum   'Zn2 H32 C36 N12 Cl4'
_cell_volume   922.17149041
_cell_formula_units_Z   2
loop_
 _symmetry_equiv_pos_site_id
 _symmetry_equiv_pos_as_xyz
  1  'x, y, z'
loop_
 _atom_site_type_symbol
 _atom_site_label
 _atom_site_symmetry_multiplicity
 _atom_site_fract_x
 _atom_site_fract_y
 _atom_site_fract_z
 _atom_site_occupancy
 _atom_site_hle17_bader_spin_density
 _atom_site_hle17_ddec_charge
 _atom_site_hle17_ddec_spin_density
 _atom_site_hle17_ddec_sum_bond_order
 _atom_site_hle17_magmom
 _atom_site_hse06_10hf_bader_spin_density
 _atom_site_hse06_10hf_ddec_charge
 _atom_site_hse06_10hf_ddec_spin_density
 _atom_site_hse06_10hf_ddec_sum_bond_order
 _atom_site_hse06_10hf_magmom
 _atom_site_hse06_bader_spin_density
 _atom_site_hse06_ddec_charge
 _atom_site_hse06_ddec_spin_density
 _atom_site_hse06_ddec_sum_bond_order
 _atom_site_hse06_magmom
 _atom_site_pbe_bader_spin_density
 _atom_site_pbe_cm5_charge
 _atom_site_pbe_ddec_charge
 _atom_site_pbe_ddec_spin_density
 _atom_site_pbe_ddec_sum_bond_order
 _atom_site_pbe_magmom
Zn  Zn0  1  0.41954828  0.25001450  0.99994051  1  0  0.836282  0  2.075803  0  0  0.654955  0  2.561917  0  0  0.694834  0  2.517776  0  0  0.563516  0.627547  0  2.591907  0
Zn  Zn1  1  0.58048240  0.74998620  0.00005952  1  0  0.836308  0  2.075841  0  0  0.655008  0  2.561946  0  0  0.694887  0  2.517823  0  0  0.563548  0.62759  0  2.591927  0
H  H2  1  0.53703783  0.31418404  0.21801880  1  0  0.076963  0  0.956812  0  0  0.084721  0  1.022129  0  0  0.087575  0  1.019376  0  0  0.107683  0.082585  0  1.024196  0
H  H3  1  0.31854474  0.18585552  0.78183769  1  0  0.07553  0  0.958223  0  0  0.083757  0  1.023166  0  0  0.086556  0  1.020463  0  0  0.107199  0.081602  0  1.025266  0
H  H4  1  0.46297166  0.68581834  0.78197920  1  0  0.076814  0  0.956807  0  0  0.084567  0  1.022149  0  0  0.08742  0  1.019395  0  0  0.107627  0.082439  0  1.024213  0
H  H5  1  0.68146290  0.81414350  0.21816155  1  0  0.075466  0  0.95807  0  0  0.083646  0  1.023079  0  0  0.086481  0  1.02033  0  0  0.107159  0.081497  0  1.025165  0
H  H6  1  0.36071303  0.42610151  0.33802020  1  0  0.116688  0  0.983758  0  0  0.119923  0  1.05498  0  0  0.123597  0  1.053746  0  0  0.107616  0.117293  0  1.055992  0
H  H7  1  0.02208973  0.07402682  0.66188217  1  0  0.116324  0  0.984567  0  0  0.119892  0  1.055415  0  0  0.123528  0  1.054262  0  0  0.10717  0.117255  0  1.056438  0
H  H8  1  0.63928396  0.57389167  0.66197790  1  0  0.11665  0  0.983801  0  0  0.119883  0  1.055046  0  0  0.123558  0  1.053814  0  0  0.107603  0.117254  0  1.056058  0
H  H9  1  0.97792499  0.92597304  0.33811776  1  0  0.116353  0  0.984525  0  0  0.119918  0  1.055376  0  0  0.123551  0  1.054221  0  0  0.107209  0.117298  0  1.056345  0
H  H10  1  0.75295410  0.47891329  0.09697998  1  0  0.110723  0  0.97431  0  0  0.1161  0  1.043894  0  0  0.119393  0  1.043266  0  0  0.096115  0.113727  0  1.044535  0
H  H11  1  0.65593097  0.02116581  0.90312741  1  0  0.111294  0  0.974605  0  0  0.116743  0  1.044133  0  0  0.120013  0  1.043584  0  0  0.096357  0.11438  0  1.044723  0
H  H12  1  0.24704154  0.52108497  0.90300854  1  0  0.11074  0  0.974399  0  0  0.116144  0  1.043911  0  0  0.119441  0  1.043277  0  0  0.096122  0.11377  0  1.044553  0
H  H13  1  0.34406580  0.97883569  0.09687815  1  0  0.111349  0  0.974665  0  0  0.116755  0  1.044242  0  0  0.120029  0  1.043689  0  0  0.09637  0.11439  0  1.044831  0
H  H14  1  0.28890015  0.67931367  0.31929755  1  0  0.118811  0  0.950277  0  0  0.128167  0  1.01195  0  0  0.131199  0  1.010613  0  0  0.118887  0.126018  0  1.012922  0
H  H15  1  0.96950335  0.82091810  0.68105996  1  0  0.118692  0  0.95  0  0  0.128001  0  1.011789  0  0  0.130966  0  1.01052  0  0  0.118601  0.125879  0  1.012736  0
H  H16  1  0.71106502  0.32067284  0.68069663  1  0  0.118721  0  0.950254  0  0  0.12813  0  1.011896  0  0  0.131163  0  1.010554  0  0  0.118817  0.125981  0  1.012869  0
H  H17  1  0.03049338  0.17907837  0.31894552  1  0  0.118699  0  0.949895  0  0  0.128004  0  1.011694  0  0  0.13097  0  1.010424  0  0  0.118574  0.125857  0  1.012667  0
H  H18  1  0.95704431  0.36819067  0.98655088  1  0  0.073993  0  0.994831  0  0  0.081126  0  1.063083  0  0  0.083212  0  1.061747  0  0  0.098545  0.079519  0  1.064192  0
H  H19  1  0.97060874  0.13186803  0.01352942  1  0  0.073666  0  0.99466  0  0  0.08111  0  1.062501  0  0  0.083212  0  1.061156  0  0  0.098646  0.07949  0  1.063627  0
H  H20  1  0.04297785  0.63181425  0.01344105  1  0  0.074023  0  0.994883  0  0  0.081178  0  1.063101  0  0  0.083263  0  1.061765  0  0  0.098623  0.079578  0  1.064208  0
H  H21  1  0.02939877  0.86813599  0.98647429  1  0  0.073722  0  0.994726  0  0  0.081121  0  1.062559  0  0  0.083222  0  1.061217  0  0  0.09865  0.07951  0  1.063685  0
H  H22  1  0.82699271  0.60220203  0.25340513  1  0  0.094694  0  0.939488  0  0  0.107816  0  1.003867  0  0  0.109229  0  1.002757  0  0  0.105351  0.106759  0  1.004748  0
H  H23  1  0.57321997  0.89810343  0.74670587  1  0  0.095117  0  0.939497  0  0  0.10803  0  1.004139  0  0  0.109419  0  1.002972  0  0  0.105372  0.106988  0  1.005067  0
H  H24  1  0.17298804  0.39778024  0.74659783  1  0  0.094564  0  0.939524  0  0  0.107744  0  1.003894  0  0  0.109159  0  1.002782  0  0  0.105352  0.106695  0  1.004767  0
H  H25  1  0.42678933  0.10190644  0.25329884  1  0  0.095046  0  0.939536  0  0  0.107995  0  1.004149  0  0  0.10939  0  1.002975  0  0  0.105313  0.106949  0  1.005079  0
H  H26  1  0.77852418  0.47962727  0.31798026  1  0  0.107017  0  0.975388  0  0  0.115628  0  1.045605  0  0  0.117977  0  1.044062  0  0  0.119451  0.113897  0  1.046746  0
H  H27  1  0.46011747  0.02056518  0.68201688  1  0  0.106661  0  0.975837  0  0  0.115468  0  1.045924  0  0  0.117787  0  1.04434  0  0  0.119586  0.113783  0  1.047083  0
H  H28  1  0.22146757  0.52035506  0.68201350  1  0  0.107002  0  0.97516  0  0  0.115622  0  1.045442  0  0  0.117969  0  1.043913  0  0  0.119495  0.113886  0  1.046596  0
H  H29  1  0.53991498  0.97944303  0.31798491  1  0  0.106595  0  0.975833  0  0  0.115416  0  1.045928  0  0  0.117742  0  1.044336  0  0  0.119603  0.113724  0  1.047086  0
H  H30  1  0.52042840  0.70930382  0.51869239  1  0  0.090818  0  0.986187  0  0  0.096032  0  1.054965  0  0  0.09797  0  1.055426  0  0  0.10545  0.094649  0  1.054714  0
H  H31  1  0.00305150  0.79115400  0.48183362  1  0  0.090844  0  0.987846  0  0  0.09637  0  1.056119  0  0  0.098254  0  1.056619  0  0  0.105542  0.094993  0  1.055881  0
H  H32  1  0.47952820  0.29069861  0.48129756  1  0  0.090646  0  0.986573  0  0  0.095882  0  1.055317  0  0  0.09782  0  1.055777  0  0  0.105406  0.094504  0  1.05507  0
H  H33  1  0.99692717  0.20884243  0.51818038  1  0  0.090815  0  0.987541  0  0  0.096249  0  1.055931  0  0  0.098181  0  1.056387  0  0  0.105554  0.094875  0  1.055688  0
C  C34  1  0.36389068  0.35289973  0.19465982  1  0  0.135772  0  3.70279  0  0  0.104709  0  3.951771  0  0  0.112463  0  3.969193  0  0  0.042654  0.099753  0  3.939987  0
C  C35  1  0.16887557  0.14719301  0.80527713  1  0  0.135904  0  3.704606  0  0  0.10438  0  3.953809  0  0  0.112164  0  3.971268  0  0  0.041948  0.09943  0  3.942005  0
C  C36  1  0.63613641  0.64710096  0.80534133  1  0  0.136026  0  3.702644  0  0  0.104961  0  3.951668  0  0  0.11271  0  3.969102  0  0  0.042676  0.099986  0  3.939877  0
C  C37  1  0.83115846  0.85281100  0.19472842  1  0  0.136019  0  3.704917  0  0  0.104577  0  3.954158  0  0  0.112336  0  3.971592  0  0  0.042028  0.099618  0  3.94236  0
C  C38  1  0.03852447  0.46197832  0.22773501  1  0  0.149889  0  3.690594  0  0  0.164506  0  3.927192  0  0  0.170417  0  3.947605  0  0  0.017189  0.160727  0  3.913307  0
C  C39  1  0.81041180  0.03818979  0.77223563  1  0  0.147825  0  3.689599  0  0  0.163481  0  3.925205  0  0  0.169335  0  3.945576  0  0  0.016751  0.159758  0  3.91133  0
C  C40  1  0.96149739  0.53802155  0.77226342  1  0  0.149756  0  3.690606  0  0  0.164546  0  3.92707  0  0  0.170458  0  3.94748  0  0  0.01715  0.160769  0  3.913193  0
C  C41  1  0.18959026  0.96181003  0.22777041  1  0  0.147755  0  3.689742  0  0  0.163377  0  3.925388  0  0  0.169235  0  3.945762  0  0  0.016698  0.15965  0  3.911517  0
C  C42  1  0.26149370  0.41423999  0.26130044  1  0  -0.171432  0  3.701073  0  0  -0.192386  0  3.954958  0  0  -0.200469  0  3.975331  0  0  -0.089468  -0.187298  0  3.941443  0
C  C43  1  0.99980703  0.08590145  0.73861464  1  0  -0.170107  0  3.700988  0  0  -0.19156  0  3.954214  0  0  -0.199618  0  3.974561  0  0  -0.088244  -0.186479  0  3.940704  0
C  C44  1  0.73851556  0.58575149  0.73870103  1  0  -0.171331  0  3.700855  0  0  -0.192324  0  3.954712  0  0  -0.200408  0  3.975088  0  0  -0.089343  -0.187238  0  3.941203  0
C  C45  1  0.00020409  0.91409088  0.26138483  1  0  -0.170127  0  3.701314  0  0  -0.19158  0  3.954554  0  0  -0.199641  0  3.974912  0  0  -0.08827  -0.186497  0  3.941062  0
C  C46  1  0.08148895  0.53914084  0.48478591  1  0  0.207245  0  3.764091  0  0  0.17891  0  4.037325  0  0  0.189804  0  4.051321  0  0  0.209596  0.171656  0  4.027678  0
C  C47  1  0.59690077  0.96097423  0.51533062  1  0  0.207121  0  3.76403  0  0  0.178694  0  4.037403  0  0  0.189622  0  4.051314  0  0  0.209385  0.171437  0  4.027785  0
C  C48  1  0.91848712  0.46086493  0.51520598  1  0  0.207337  0  3.764135  0  0  0.179011  0  4.037324  0  0  0.189936  0  4.051291  0  0  0.209645  0.171754  0  4.027677  0
C  C49  1  0.40309270  0.03903315  0.48467031  1  0  0.207034  0  3.764106  0  0  0.178572  0  4.037511  0  0  0.189506  0  4.051417  0  0  0.209298  0.17131  0  4.027898  0
C  C50  1  0.92669900  0.44365225  0.12738020  1  0  -0.170217  0  3.7022  0  0  -0.185805  0  3.948982  0  0  -0.195237  0  3.970976  0  0  -0.087453  -0.179792  0  3.934361  0
C  C51  1  0.79924656  0.05647434  0.87265748  1  0  -0.170825  0  3.70321  0  0  -0.186735  0  3.949684  0  0  -0.196206  0  3.971743  0  0  -0.087585  -0.18068  0  3.934993  0
C  C52  1  0.07331590  0.55634179  0.87261378  1  0  -0.170362  0  3.702663  0  0  -0.18593  0  3.949306  0  0  -0.195368  0  3.971302  0  0  -0.087542  -0.179918  0  3.934691  0
C  C53  1  0.20076464  0.94353555  0.12734375  1  0  -0.170703  0  3.702984  0  0  -0.186585  0  3.949404  0  0  -0.196064  0  3.971467  0  0  -0.087582  -0.180525  0  3.934713  0
C  C54  1  0.25573635  0.64466739  0.38820345  1  0  -0.064755  0  3.674724  0  0  -0.106402  0  3.935704  0  0  -0.104789  0  3.953521  0  0  -0.000792  -0.107312  0  3.923595  0
C  C55  1  0.86747180  0.85544868  0.61209320  1  0  -0.065295  0  3.674524  0  0  -0.107055  0  3.935778  0  0  -0.105395  0  3.953645  0  0  -0.00117  -0.107981  0  3.923645  0
C  C56  1  0.74422879  0.35534000  0.61179621  1  0  -0.064732  0  3.674287  0  0  -0.106453  0  3.935266  0  0  -0.104839  0  3.953088  0  0  -0.000814  -0.107367  0  3.923162  0
C  C57  1  0.13251230  0.14455362  0.38791922  1  0  -0.06534  0  3.674558  0  0  -0.107101  0  3.935801  0  0  -0.105442  0  3.953675  0  0  -0.001114  -0.108006  0  3.923678  0
C  C58  1  0.04140916  0.38218846  0.06505985  1  0  0.133169  0  3.719173  0  0  0.099636  0  3.969917  0  0  0.107413  0  3.98815  0  0  0.040535  0.094692  0  3.957534  0
C  C59  1  0.97632754  0.11787927  0.93496573  1  0  0.133847  0  3.719373  0  0  0.100151  0  3.970416  0  0  0.107913  0  3.988632  0  0  0.040313  0.095206  0  3.95804  0
C  C60  1  0.95861462  0.61781895  0.93493669  1  0  0.133277  0  3.719234  0  0  0.099704  0  3.969995  0  0  0.107486  0  3.988221  0  0  0.040556  0.094742  0  3.957602  0
C  C61  1  0.02366609  0.88212814  0.06503082  1  0  0.13354  0  3.719226  0  0  0.099995  0  3.970207  0  0  0.107756  0  3.988415  0  0  0.040278  0.095033  0  3.95784  0
C  C62  1  0.91582937  0.53037550  0.29488346  1  0  -0.066197  0  3.646887  0  0  -0.128104  0  3.885346  0  0  -0.125264  0  3.894335  0  0  -0.051716  -0.129875  0  3.879217  0
C  C63  1  0.62046036  0.96981895  0.70513685  1  0  -0.06477  0  3.646665  0  0  -0.127254  0  3.88575  0  0  -0.124212  0  3.894422  0  0  -0.051513  -0.129198  0  3.879871  0
C  C64  1  0.08417107  0.46961097  0.70511560  1  0  -0.065756  0  3.646206  0  0  -0.127906  0  3.884924  0  0  -0.125069  0  3.893912  0  0  -0.051766  -0.129682  0  3.878807  0
C  C65  1  0.37954022  0.03018092  0.29486171  1  0  -0.064623  0  3.646781  0  0  -0.127113  0  3.885777  0  0  -0.124077  0  3.894458  0  0  -0.051459  -0.129047  0  3.879889  0
C  C66  1  0.36762226  0.65759289  0.48745134  1  0  0.002795  0  3.791798  0  0  -0.025786  0  4.06976  0  0  -0.024342  0  4.087406  0  0  -0.008697  -0.026795  0  4.057734  0
C  C67  1  0.88100069  0.84267529  0.51292772  1  0  0.002838  0  3.793178  0  0  -0.026034  0  4.071073  0  0  -0.024531  0  4.088713  0  0  -0.008832  -0.027065  0  4.059081  0
C  C68  1  0.63233429  0.34239951  0.51253770  1  0  0.003019  0  3.791151  0  0  -0.025571  0  4.069109  0  0  -0.024132  0  4.086764  0  0  -0.008631  -0.026593  0  4.057093  0
C  C69  1  0.11899251  0.15731784  0.48707663  1  0  0.003008  0  3.792968  0  0  -0.025768  0  4.070877  0  0  -0.024308  0  4.08849  0  0  -0.008822  -0.026799  0  4.058875  0
N  N70  1  0.07376649  0.56964856  0.38667484  1  0  -0.085059  0  3.527351  0  0  0.008433  0  3.736801  0  0  -0.00589  0  3.76259  0  0  -0.237036  0.017989  0  3.719196  0
N  N71  1  0.68676277  0.93040578  0.61343505  1  0  -0.085434  0  3.528716  0  0  0.008476  0  3.737895  0  0  -0.00587  0  3.763559  0  0  -0.237167  0.01805  0  3.720362  0
N  N72  1  0.92621114  0.43035634  0.61332231  1  0  -0.085336  0  3.527151  0  0  0.008243  0  3.736599  0  0  -0.006092  0  3.762383  0  0  -0.237  0.017803  0  3.718995  0
N  N73  1  0.31323250  0.06960245  0.38656533  1  0  -0.085588  0  3.528799  0  0  0.008329  0  3.737982  0  0  -0.006024  0  3.76365  0  0  -0.237176  0.017904  0  3.720442  0
N  N74  1  0.25695821  0.33742826  0.09740807  1  0  -0.331131  0  3.331055  0  0  -0.243479  0  3.603399  0  0  -0.262985  0  3.61892  0  0  -0.340121  -0.230475  0  3.592719  0
N  N75  1  0.15937078  0.16267519  0.90255283  1  0  -0.330314  0  3.332127  0  0  -0.242788  0  3.604909  0  0  -0.262219  0  3.620326  0  0  -0.339379  -0.229789  0  3.594229  0
N  N76  1  0.74305832  0.66257327  0.90259134  1  0  -0.331296  0  3.33107  0  0  -0.243633  0  3.603448  0  0  -0.263139  0  3.618962  0  0  -0.340106  -0.230588  0  3.592739  0
N  N77  1  0.84063475  0.83732713  0.09745579  1  0  -0.330126  0  3.332261  0  0  -0.242766  0  3.605142  0  0  -0.26219  0  3.620558  0  0  -0.339362  -0.229761  0  3.594466  0
N  N78  1  0.25895127  0.59268327  0.54680496  1  0  -0.394162  0  3.051248  0  0  -0.360803  0  3.324418  0  0  -0.372712  0  3.33803  0  0  -0.343582  -0.35232  0  3.314847  0
N  N79  1  0.71309647  0.90757207  0.45347850  1  0  -0.393441  0  3.051316  0  0  -0.360071  0  3.324366  0  0  -0.372008  0  3.337972  0  0  -0.342975  -0.351578  0  3.314782  0
N  N80  1  0.74104059  0.40732330  0.45319140  1  0  -0.394123  0  3.051218  0  0  -0.360767  0  3.324381  0  0  -0.372684  0  3.337983  0  0  -0.343548  -0.352284  0  3.314808  0
N  N81  1  0.28689315  0.09242524  0.54652776  1  0  -0.393471  0  3.051309  0  0  -0.360095  0  3.324339  0  0  -0.372033  0  3.337959  0  0  -0.343014  -0.351603  0  3.314763  0
Cl  Cl82  1  0.55474477  0.35544881  0.88763933  1  0  -0.553535  0  0.97332  0  0  -0.490335  0  1.25139  0  0  -0.505907  0  1.2314  0  0  -0.291998  -0.479071  0  1.265056  0
Cl  Cl83  1  0.66704552  0.14456926  0.11229786  1  0  -0.553808  0  0.974047  0  0  -0.490618  0  1.252133  0  0  -0.506205  0  1.232125  0  0  -0.291745  -0.479344  0  1.265813  0
Cl  Cl84  1  0.44528058  0.64454604  0.11235935  1  0  -0.553583  0  0.973321  0  0  -0.490338  0  1.251309  0  0  -0.505917  0  1.231334  0  0  -0.292025  -0.479086  0  1.264983  0
Cl  Cl85  1  0.33295854  0.85543060  0.88770251  1  0  -0.55383  0  0.973988  0  0  -0.490644  0  1.252046  0  0  -0.506231  0  1.232041  0  0  -0.291766  -0.479379  0  1.265737  0
