# generated using pymatgen
data_ZnH22C20(NO)4
_symmetry_space_group_name_H-M   'P 1'
_cell_length_a   9.61065464
_cell_length_b   9.89670265
_cell_length_c   11.65407017
_cell_angle_alpha   79.08045473
_cell_angle_beta   73.60348417
_cell_angle_gamma   69.37725644
_symmetry_Int_Tables_number   1
_chemical_formula_structural   ZnH22C20(NO)4
_chemical_formula_sum   'Zn2 H44 C40 N8 O8'
_cell_volume   990.22774807
_cell_formula_units_Z   2
loop_
 _symmetry_equiv_pos_site_id
 _symmetry_equiv_pos_as_xyz
  1  'x, y, z'
loop_
 _atom_site_type_symbol
 _atom_site_label
 _atom_site_symmetry_multiplicity
 _atom_site_fract_x
 _atom_site_fract_y
 _atom_site_fract_z
 _atom_site_occupancy
 _atom_site_hle17_bader_spin_density
 _atom_site_hle17_ddec_charge
 _atom_site_hle17_ddec_spin_density
 _atom_site_hle17_ddec_sum_bond_order
 _atom_site_hle17_magmom
 _atom_site_hse06_10hf_bader_spin_density
 _atom_site_hse06_10hf_ddec_charge
 _atom_site_hse06_10hf_ddec_spin_density
 _atom_site_hse06_10hf_ddec_sum_bond_order
 _atom_site_hse06_10hf_magmom
 _atom_site_hse06_bader_spin_density
 _atom_site_hse06_ddec_charge
 _atom_site_hse06_ddec_spin_density
 _atom_site_hse06_ddec_sum_bond_order
 _atom_site_hse06_magmom
 _atom_site_pbe_bader_spin_density
 _atom_site_pbe_cm5_charge
 _atom_site_pbe_ddec_charge
 _atom_site_pbe_ddec_spin_density
 _atom_site_pbe_ddec_sum_bond_order
 _atom_site_pbe_magmom
Zn  Zn0  1  0.19226036  0.29990769  0.62242271  1  0  1.010818  0  1.857171  0  0  0.819961  0  2.333716  0  0  0.866254  0  2.279451  0  0  0.701227  0.787324  0  2.371994  0
Zn  Zn1  1  0.80774064  0.70009188  0.37757809  1  0  1.010806  0  1.857158  0  0  0.819926  0  2.333727  0  0  0.866216  0  2.279468  0  0  0.701219  0.787292  0  2.372005  0
H  H2  1  0.83763341  0.36761247  0.52972181  1  0  0.101854  0  0.914086  0  0  0.117135  0  0.974485  0  0  0.118583  0  0.973633  0  0  0.118199  0.115898  0  0.975376  0
H  H3  1  0.16236795  0.63238601  0.47027994  1  0  0.101847  0  0.914107  0  0  0.11713  0  0.974497  0  0  0.118579  0  0.973647  0  0  0.11821  0.11589  0  0.975389  0
H  H4  1  0.75325841  0.41249042  0.40525721  1  0  0.073308  0  0.96553  0  0  0.083049  0  1.038748  0  0  0.084006  0  1.038281  0  0  0.102474  0.08233  0  1.038904  0
H  H5  1  0.24673965  0.58751457  0.59474424  1  0  0.073286  0  0.965504  0  0  0.083019  0  1.038748  0  0  0.083978  0  1.03828  0  0  0.102434  0.082296  0  1.038903  0
H  H6  1  0.41171664  0.46199669  0.92735898  1  0  0.052005  0  0.954557  0  0  0.072735  0  1.014864  0  0  0.072355  0  1.017039  0  0  0.084044  0.072871  0  1.013586  0
H  H7  1  0.58828544  0.53800288  0.07264072  1  0  0.051976  0  0.954618  0  0  0.072748  0  1.014884  0  0  0.072358  0  1.017071  0  0  0.08404  0.072888  0  1.013607  0
H  H8  1  0.57901072  0.51332228  0.86651842  1  0  0.068019  0  0.964281  0  0  0.083664  0  1.029561  0  0  0.084704  0  1.030049  0  0  0.087125  0.082915  0  1.029256  0
H  H9  1  0.42099025  0.48668054  0.13348099  1  0  0.067994  0  0.964277  0  0  0.083657  0  1.029555  0  0  0.084697  0  1.03004  0  0  0.087114  0.082909  0  1.029248  0
H  H10  1  0.61756657  0.99424056  0.73803527  1  0  0.098253  0  0.960355  0  0  0.105491  0  1.026929  0  0  0.108844  0  1.025147  0  0  0.102516  0.103132  0  1.028062  0
H  H11  1  0.38243625  0.00575683  0.26196376  1  0  0.09824  0  0.960334  0  0  0.105455  0  1.026929  0  0  0.108806  0  1.025148  0  0  0.102516  0.103087  0  1.02807  0
H  H12  1  0.81224987  0.14231246  0.39452747  1  0  0.05657  0  0.969404  0  0  0.073763  0  1.034935  0  0  0.073681  0  1.036732  0  0  0.086253  0.073685  0  1.033921  0
H  H13  1  0.18774751  0.85769141  0.60546917  1  0  0.056591  0  0.969444  0  0  0.073786  0  1.034964  0  0  0.073704  0  1.036761  0  0  0.086253  0.073706  0  1.033947  0
H  H14  1  0.97047665  0.20630798  0.35760829  1  0  0.072903  0  0.956065  0  0  0.090251  0  1.018923  0  0  0.090097  0  1.021156  0  0  0.091231  0.09045  0  1.017122  0
H  H15  1  0.02951856  0.79369912  0.64238575  1  0  0.0729  0  0.956134  0  0  0.090237  0  1.019016  0  0  0.090083  0  1.02125  0  0  0.091231  0.09044  0  1.017207  0
H  H16  1  0.40659874  0.97439263  0.66240152  1  0  0.121157  0  0.973892  0  0  0.1237  0  1.047262  0  0  0.127727  0  1.042345  0  0  0.135547  0.120802  0  1.050619  0
H  H17  1  0.59340051  0.02560256  0.33759611  1  0  0.121196  0  0.973848  0  0  0.123772  0  1.047162  0  0  0.127803  0  1.042238  0  0  0.135544  0.12083  0  1.050577  0
H  H18  1  0.03117561  0.88304007  0.91992357  1  0  0.11002  0  0.973158  0  0  0.119076  0  1.036072  0  0  0.120873  0  1.036784  0  0  0.12013  0.117767  0  1.035613  0
H  H19  1  0.96882499  0.11696060  0.08008057  1  0  0.110014  0  0.973129  0  0  0.119073  0  1.036048  0  0  0.120871  0  1.036757  0  0  0.120126  0.117763  0  1.03559  0
H  H20  1  0.27218369  0.70259752  0.00786055  1  0  0.071139  0  0.933158  0  0  0.091284  0  0.990632  0  0  0.092095  0  0.990919  0  0  0.091611  0.090548  0  0.990725  0
H  H21  1  0.72781694  0.29740313  0.99213930  1  0  0.071161  0  0.933138  0  0  0.091309  0  0.990606  0  0  0.09212  0  0.990893  0  0  0.091628  0.090573  0  0.990703  0
H  H22  1  0.43983818  0.75473277  0.95075338  1  0  0.066963  0  0.940472  0  0  0.084802  0  1.003765  0  0  0.084817  0  1.005678  0  0  0.089158  0.084871  0  1.002223  0
H  H23  1  0.56016064  0.24527003  0.04924482  1  0  0.066972  0  0.940469  0  0  0.08481  0  1.003765  0  0  0.084824  0  1.005678  0  0  0.089152  0.08488  0  1.002219  0
H  H24  1  0.63745133  0.00939565  0.94360475  1  0  0.087145  0  0.957674  0  0  0.098074  0  1.017477  0  0  0.101123  0  1.016546  0  0  0.097652  0.095824  0  1.018302  0
H  H25  1  0.36255113  0.99060282  0.05639332  1  0  0.087123  0  0.957642  0  0  0.098048  0  1.017461  0  0  0.101094  0  1.016531  0  0  0.097645  0.095798  0  1.018287  0
H  H26  1  0.94170666  0.17499180  0.82594944  1  0  0.113009  0  0.969703  0  0  0.119003  0  1.033915  0  0  0.122494  0  1.03142  0  0  0.116571  0.116535  0  1.035703  0
H  H27  1  0.05829466  0.82500996  0.17405350  1  0  0.113004  0  0.969715  0  0  0.119003  0  1.033915  0  0  0.122494  0  1.031422  0  0  0.116551  0.116537  0  1.035699  0
H  H28  1  0.44668712  0.72334753  0.74352687  1  0  0.075863  0  0.93679  0  0  0.091564  0  1.001752  0  0  0.091634  0  1.002459  0  0  0.114967  0.091527  0  1.001136  0
H  H29  1  0.55331067  0.27664874  0.25647178  1  0  0.075813  0  0.936854  0  0  0.091517  0  1.001818  0  0  0.091581  0  1.002524  0  0  0.114948  0.091481  0  1.001197  0
H  H30  1  0.28048440  0.66848813  0.79497758  1  0  0.074606  0  0.910813  0  0  0.094061  0  0.967911  0  0  0.09451  0  0.968169  0  0  0.111759  0.093772  0  0.967591  0
H  H31  1  0.71951262  0.33151033  0.20502517  1  0  0.074627  0  0.910832  0  0  0.09407  0  0.967937  0  0  0.094513  0  0.968192  0  0  0.111758  0.093782  0  0.967618  0
H  H32  1  0.90706440  0.55693885  0.96113786  1  0  0.084897  0  0.964714  0  0  0.097381  0  1.023399  0  0  0.100622  0  1.02159  0  0  0.097134  0.094944  0  1.025001  0
H  H33  1  0.09293549  0.44306073  0.03886576  1  0  0.084915  0  0.964693  0  0  0.097397  0  1.023376  0  0  0.100652  0  1.021551  0  0  0.097112  0.094954  0  1.024979  0
H  H34  1  0.85690316  0.04915686  0.60142798  1  0  0.056146  0  0.946992  0  0  0.075405  0  1.008264  0  0  0.075362  0  1.010059  0  0  0.082585  0.075416  0  1.006921  0
H  H35  1  0.14310257  0.95084160  0.39856504  1  0  0.056184  0  0.947001  0  0  0.075433  0  1.008259  0  0  0.075386  0  1.01005  0  0  0.08261  0.075439  0  1.006923  0
H  H36  1  0.01442321  0.11426143  0.56468833  1  0  0.060431  0  0.957268  0  0  0.079072  0  1.020671  0  0  0.079225  0  1.022127  0  0  0.084631  0.078858  0  1.019865  0
H  H37  1  0.98558179  0.88573920  0.43530280  1  0  0.060449  0  0.957248  0  0  0.079102  0  1.020616  0  0  0.07925  0  1.022069  0  0  0.084608  0.078888  0  1.019811  0
H  H38  1  0.52687212  0.27250632  0.44228304  1  0  0.089897  0  0.970655  0  0  0.097195  0  1.040709  0  0  0.099591  0  1.037779  0  0  0.132094  0.095434  0  1.04279  0
H  H39  1  0.47312853  0.72749108  0.55771905  1  0  0.089899  0  0.97066  0  0  0.097188  0  1.040711  0  0  0.099579  0  1.037794  0  0  0.13211  0.095436  0  1.042779  0
H  H40  1  0.78364654  0.78819108  0.05593551  1  0  0.088332  0  0.955832  0  0  0.099901  0  1.014757  0  0  0.102728  0  1.013561  0  0  0.098883  0.097806  0  1.015773  0
H  H41  1  0.21635046  0.21181064  0.94406585  1  0  0.088314  0  0.955899  0  0  0.099874  0  1.014834  0  0  0.102699  0  1.013632  0  0  0.098885  0.097781  0  1.015851  0
H  H42  1  0.65906853  0.37154287  0.72450595  1  0  0.136892  0  0.997376  0  0  0.143479  0  1.06139  0  0  0.147604  0  1.058048  0  0  0.12266  0.140398  0  1.064044  0
H  H43  1  0.34092917  0.62846320  0.27549368  1  0  0.136952  0  0.997291  0  0  0.143529  0  1.061326  0  0  0.147657  0  1.057976  0  0  0.12267  0.140447  0  1.063976  0
H  H44  1  0.36106109  0.35159095  0.80618158  1  0  0.093589  0  0.981482  0  0  0.1018  0  1.047739  0  0  0.104243  0  1.046565  0  0  0.11151  0.100116  0  1.048568  0
H  H45  1  0.63893805  0.64841404  0.19381876  1  0  0.093557  0  0.981546  0  0  0.101774  0  1.047807  0  0  0.104216  0  1.046635  0  0  0.111499  0.100094  0  1.048636  0
C  C46  1  0.75210200  0.76935624  0.73297442  1  0  -0.082905  0  3.717048  0  0  -0.066065  0  3.948309  0  0  -0.072974  0  3.969446  0  0  -0.014494  -0.061754  0  3.934237  0
C  C47  1  0.24790009  0.23064008  0.26702752  1  0  -0.082886  0  3.717064  0  0  -0.066031  0  3.948341  0  0  -0.072939  0  3.969479  0  0  -0.014461  -0.061736  0  3.934276  0
C  C48  1  0.83551705  0.64511127  0.79574765  1  0  -0.032063  0  3.68673  0  0  -0.01808  0  3.919667  0  0  -0.01949  0  3.938071  0  0  -0.00075  -0.017153  0  3.90759  0
C  C49  1  0.16448430  0.35488722  0.20425496  1  0  -0.032099  0  3.686792  0  0  -0.018104  0  3.919741  0  0  -0.019516  0  3.938153  0  0  -0.000776  -0.01716  0  3.907642  0
C  C50  1  0.91761071  0.50053941  0.74476717  1  0  0.67205  0  3.922715  0  0  0.616172  0  4.230213  0  0  0.650897  0  4.219896  0  0  0.210367  0.592335  0  4.236673  0
C  C51  1  0.08238918  0.49946017  0.25523560  1  0  0.672087  0  3.92283  0  0  0.616179  0  4.230376  0  0  0.650904  0  4.220066  0  0  0.210352  0.592334  0  4.23684  0
C  C52  1  0.77934635  0.32979702  0.47991129  1  0  -0.010689  0  3.612521  0  0  -0.07373  0  3.872732  0  0  -0.069592  0  3.882806  0  0  -0.057315  -0.076231  0  3.865674  0
C  C53  1  0.22065320  0.67020362  0.52008795  1  0  -0.010636  0  3.612464  0  0  -0.073677  0  3.872668  0  0  -0.069545  0  3.88275  0  0  -0.057305  -0.076178  0  3.865605  0
C  C54  1  0.47610445  0.52800966  0.94086007  1  0  -0.107197  0  3.696171  0  0  -0.142702  0  3.948876  0  0  -0.144343  0  3.964906  0  0  -0.168744  -0.14144  0  3.937995  0
C  C55  1  0.52389689  0.47199209  0.05914030  1  0  -0.107165  0  3.696177  0  0  -0.142727  0  3.948911  0  0  -0.144364  0  3.964944  0  0  -0.168758  -0.141473  0  3.938031  0
C  C56  1  0.73852345  0.77265945  0.60663336  1  0  0.626232  0  3.929416  0  0  0.576314  0  4.22416  0  0  0.610085  0  4.217551  0  0  0.199478  0.55332  0  4.22816  0
C  C57  1  0.26147538  0.22734010  0.39336708  1  0  0.626202  0  3.929494  0  0  0.576213  0  4.224336  0  0  0.609985  0  4.217729  0  0  0.199413  0.553225  0  4.228328  0
C  C58  1  0.68033504  0.89886596  0.78847144  1  0  -0.079574  0  3.75727  0  0  -0.103781  0  4.009443  0  0  -0.103086  0  4.028683  0  0  -0.085813  -0.103945  0  3.99565  0
C  C59  1  0.31966671  0.10113142  0.21152697  1  0  -0.079563  0  3.757167  0  0  -0.103739  0  4.009326  0  0  -0.103045  0  4.028566  0  0  -0.085813  -0.10389  0  3.995537  0
C  C60  1  0.87923153  0.18474424  0.43264764  1  0  -0.125238  0  3.698449  0  0  -0.166388  0  3.960374  0  0  -0.167516  0  3.974493  0  0  -0.169348  -0.165541  0  3.950545  0
C  C61  1  0.12076802  0.81525963  0.56734678  1  0  -0.12526  0  3.698542  0  0  -0.166377  0  3.960376  0  0  -0.167509  0  3.974489  0  0  -0.169343  -0.16553  0  3.950545  0
C  C62  1  0.29202556  0.99287904  0.72081254  1  0  0.154795  0  3.628979  0  0  0.091945  0  3.896503  0  0  0.105532  0  3.908111  0  0  0.143855  0.083227  0  3.888058  0
C  C63  1  0.70797114  0.00711722  0.27918722  1  0  0.154728  0  3.628902  0  0  0.091853  0  3.8964  0  0  0.105438  0  3.908008  0  0  0.143849  0.083167  0  3.887982  0
C  C64  1  0.09429598  0.94706104  0.85499505  1  0  -0.068174  0  3.686542  0  0  -0.106193  0  3.940312  0  0  -0.105529  0  3.960986  0  0  0.000736  -0.106448  0  3.926107  0
C  C65  1  0.90570430  0.05293745  0.14500695  1  0  -0.068169  0  3.686545  0  0  -0.106195  0  3.940315  0  0  -0.105532  0  3.960988  0  0  0.000744  -0.106445  0  3.926106  0
C  C66  1  0.37773465  0.68725634  0.93598318  1  0  -0.12237  0  3.689302  0  0  -0.16459  0  3.952403  0  0  -0.166005  0  3.966276  0  0  -0.163027  -0.16355  0  3.9429  0
C  C67  1  0.62226490  0.31274430  0.06401692  1  0  -0.122424  0  3.68929  0  0  -0.164641  0  3.952422  0  0  -0.16606  0  3.96628  0  0  -0.163032  -0.163602  0  3.94292  0
C  C68  1  0.69158115  0.90702983  0.90335068  1  0  -0.087667  0  3.802093  0  0  -0.100042  0  4.052872  0  0  -0.10277  0  4.07304  0  0  -0.098654  -0.098323  0  4.038958  0
C  C69  1  0.30841840  0.09297080  0.09664770  1  0  -0.087634  0  3.802068  0  0  -0.100009  0  4.052849  0  0  -0.102736  0  4.073014  0  0  -0.09866  -0.09829  0  4.038935  0
C  C70  1  0.05116664  0.08994891  0.80890023  1  0  -0.0058  0  3.756485  0  0  -0.039064  0  4.023811  0  0  -0.037158  0  4.042428  0  0  -0.00246  -0.040369  0  4.011191  0
C  C71  1  0.94883397  0.91005175  0.19110220  1  0  -0.005786  0  3.756475  0  0  -0.039058  0  4.02378  0  0  -0.037152  0  4.042398  0  0  -0.002425  -0.040368  0  4.01116  0
C  C72  1  0.34002764  0.73604767  0.81320809  1  0  0.004483  0  3.639884  0  0  -0.060803  0  3.906538  0  0  -0.056374  0  3.918126  0  0  -0.048938  -0.063705  0  3.898362  0
C  C73  1  0.65997085  0.26394971  0.18679279  1  0  0.004528  0  3.639974  0  0  -0.060756  0  3.906627  0  0  -0.056304  0  3.918186  0  0  -0.048927  -0.063656  0  3.898445  0
C  C74  1  0.84362990  0.65378620  0.91238210  1  0  -0.102733  0  3.759681  0  0  -0.123364  0  4.007599  0  0  -0.126239  0  4.027335  0  0  -0.093343  -0.121492  0  3.994549  0
C  C75  1  0.15636858  0.34621119  0.08762050  1  0  -0.102818  0  3.759645  0  0  -0.123454  0  4.007564  0  0  -0.126342  0  4.027298  0  0  -0.093363  -0.121577  0  3.994504  0
C  C76  1  0.94848273  0.07088880  0.52625409  1  0  -0.099993  0  3.687938  0  0  -0.136531  0  3.941755  0  0  -0.137542  0  3.956914  0  0  -0.170664  -0.135687  0  3.931214  0
C  C77  1  0.05152407  0.92911292  0.47373644  1  0  -0.10007  0  3.687935  0  0  -0.136594  0  3.941684  0  0  -0.137579  0  3.95682  0  0  -0.170632  -0.135754  0  3.93115  0
C  C78  1  0.52024825  0.29832455  0.53010513  1  0  0.173202  0  3.641465  0  0  0.110972  0  3.903581  0  0  0.125062  0  3.915996  0  0  0.143196  0.102202  0  3.894787  0
C  C79  1  0.47975204  0.70167392  0.46989516  1  0  0.173113  0  3.641601  0  0  0.110897  0  3.903722  0  0  0.124988  0  3.916132  0  0  0.14312  0.102118  0  3.894936  0
C  C80  1  0.77328780  0.78334820  0.96601192  1  0  -0.072377  0  3.798919  0  0  -0.085998  0  4.050764  0  0  -0.085493  0  4.069937  0  0  -0.094385  -0.086267  0  4.03782  0
C  C81  1  0.22671070  0.21664917  0.03398724  1  0  -0.072272  0  3.798867  0  0  -0.085877  0  4.050696  0  0  -0.085365  0  4.069864  0  0  -0.094318  -0.086154  0  4.037757  0
C  C82  1  0.58524579  0.34804022  0.68098023  1  0  -0.070248  0  3.661254  0  0  -0.109962  0  3.914143  0  0  -0.10882  0  3.933166  0  0  0.002915  -0.110669  0  3.901526  0
C  C83  1  0.41475156  0.65196367  0.31901985  1  0  -0.070267  0  3.661101  0  0  -0.109968  0  3.913994  0  0  -0.108827  0  3.933013  0  0  0.002919  -0.110669  0  3.901375  0
C  C84  1  0.43962136  0.33822774  0.71877374  1  0  -0.027094  0  3.783568  0  0  -0.060501  0  4.052136  0  0  -0.059957  0  4.073489  0  0  -0.015174  -0.061042  0  4.037583  0
C  C85  1  0.56037779  0.66177725  0.28122574  1  0  -0.027079  0  3.783559  0  0  -0.060504  0  4.052138  0  0  -0.059962  0  4.073496  0  0  -0.015173  -0.061053  0  4.037595  0
N  N86  1  0.63365758  0.32318542  0.56134700  1  0  -0.048449  0  3.559825  0  0  0.047872  0  3.774492  0  0  0.033335  0  3.801164  0  0  -0.238486  0.057438  0  3.756238  0
N  N87  1  0.36634196  0.67681523  0.43865396  1  0  -0.048459  0  3.559829  0  0  0.04786  0  3.774489  0  0  0.033326  0  3.80116  0  0  -0.238462  0.05743  0  3.75623  0
N  N88  1  0.17551810  0.11672849  0.72554638  1  0  -0.390215  0  3.343421  0  0  -0.311047  0  3.650842  0  0  -0.330829  0  3.661871  0  0  -0.361833  -0.297596  0  3.643374  0
N  N89  1  0.82448256  0.88326889  0.27445314  1  0  -0.390228  0  3.34342  0  0  -0.311021  0  3.650807  0  0  -0.330802  0  3.661837  0  0  -0.361843  -0.297569  0  3.643331  0
N  N90  1  0.40043767  0.30711572  0.62368966  1  0  -0.388721  0  3.327946  0  0  -0.307224  0  3.624337  0  0  -0.327082  0  3.637456  0  0  -0.360427  -0.293821  0  3.615248  0
N  N91  1  0.59956187  0.69288493  0.37631130  1  0  -0.388648  0  3.327919  0  0  -0.307148  0  3.624288  0  0  -0.327005  0  3.637409  0  0  -0.360384  -0.293744  0  3.615206  0
N  N92  1  0.24644521  0.88779753  0.79866662  1  0  -0.063635  0  3.585269  0  0  0.031394  0  3.803821  0  0  0.016863  0  3.829977  0  0  -0.246689  0.04101  0  3.785912  0
N  N93  1  0.75355291  0.11220092  0.20133331  1  0  -0.063586  0  3.585262  0  0  0.031449  0  3.803813  0  0  0.01691  0  3.829965  0  0  -0.246661  0.041068  0  3.785893  0
O  O94  1  0.06451626  0.47050916  0.71267014  1  0  -0.652983  0  2.042619  0  0  -0.577764  0  2.317177  0  0  -0.60697  0  2.301771  0  0  -0.333764  -0.557136  0  2.327036  0
O  O95  1  0.93548545  0.52948826  0.28733428  1  0  -0.65296  0  2.042679  0  0  -0.57772  0  2.317249  0  0  -0.606919  0  2.301832  0  0  -0.333723  -0.557095  0  2.327116  0
O  O96  1  0.84451197  0.41856998  0.74401098  1  0  -0.61981  0  1.934522  0  0  -0.573978  0  2.163101  0  0  -0.597392  0  2.153171  0  0  -0.31725  -0.557174  0  2.169547  0
O  O97  1  0.15548939  0.58142850  0.25598906  1  0  -0.619865  0  1.934527  0  0  -0.57406  0  2.163182  0  0  -0.597473  0  2.153244  0  0  -0.317288  -0.557253  0  2.169627  0
O  O98  1  0.84247471  0.67455243  0.54163805  1  0  -0.621231  0  2.018378  0  0  -0.541391  0  2.280043  0  0  -0.569635  0  2.265458  0  0  -0.318499  -0.521824  0  2.289958  0
O  O99  1  0.15752701  0.32544498  0.45836380  1  0  -0.621215  0  2.018431  0  0  -0.541338  0  2.280111  0  0  -0.569576  0  2.265517  0  0  -0.318469  -0.52177  0  2.290022  0
O  O100  1  0.63011164  0.86931113  0.57003735  1  0  -0.615379  0  1.930882  0  0  -0.567307  0  2.158749  0  0  -0.590148  0  2.150113  0  0  -0.32045  -0.551573  0  2.164348  0
O  O101  1  0.36988974  0.13068410  0.42996494  1  0  -0.615419  0  1.9309  0  0  -0.567319  0  2.158787  0  0  -0.590165  0  2.150149  0  0  -0.320445  -0.55158  0  2.16439  0
