# generated using pymatgen
data_H9PbC13SNO5
_symmetry_space_group_name_H-M   'P 1'
_cell_length_a   7.89138268
_cell_length_b   8.24322555
_cell_length_c   11.54642579
_cell_angle_alpha   107.97872930
_cell_angle_beta   101.96748961
_cell_angle_gamma   102.06280543
_symmetry_Int_Tables_number   1
_chemical_formula_structural   H9PbC13SNO5
_chemical_formula_sum   'H18 Pb2 C26 S2 N2 O10'
_cell_volume   668.14326487
_cell_formula_units_Z   2
loop_
 _symmetry_equiv_pos_site_id
 _symmetry_equiv_pos_as_xyz
  1  'x, y, z'
loop_
 _atom_site_type_symbol
 _atom_site_label
 _atom_site_symmetry_multiplicity
 _atom_site_fract_x
 _atom_site_fract_y
 _atom_site_fract_z
 _atom_site_occupancy
 _atom_site_hle17_bader_spin_density
 _atom_site_hle17_ddec_charge
 _atom_site_hle17_ddec_spin_density
 _atom_site_hle17_ddec_sum_bond_order
 _atom_site_hle17_magmom
 _atom_site_hse06_10hf_bader_spin_density
 _atom_site_hse06_10hf_ddec_charge
 _atom_site_hse06_10hf_ddec_spin_density
 _atom_site_hse06_10hf_ddec_sum_bond_order
 _atom_site_hse06_10hf_magmom
 _atom_site_hse06_bader_spin_density
 _atom_site_hse06_ddec_charge
 _atom_site_hse06_ddec_spin_density
 _atom_site_hse06_ddec_sum_bond_order
 _atom_site_hse06_magmom
 _atom_site_pbe_bader_spin_density
 _atom_site_pbe_cm5_charge
 _atom_site_pbe_ddec_charge
 _atom_site_pbe_ddec_spin_density
 _atom_site_pbe_ddec_sum_bond_order
 _atom_site_pbe_magmom
H  H0  1  0.95865894  0.07691298  0.42377290  1  0  0.067944  0  0.94999  0  0  0.077533  0  1.018807  0  0  0.079652  0  1.016478  0  0  0.112032  0.075939  0  1.020591  0
H  H1  1  0.04133936  0.92307742  0.57621900  1  0  0.067958  0  0.949915  0  0  0.077585  0  1.018689  0  0  0.079704  0  1.01636  0  0  0.112068  0.075991  0  1.020474  0
H  H2  1  0.64109359  0.96654859  0.28295336  1  0  0.115961  0  0.952775  0  0  0.125931  0  1.013621  0  0  0.129425  0  1.012358  0  0  0.109966  0.123433  0  1.014704  0
H  H3  1  0.35890854  0.03344588  0.71704601  1  0  0.115963  0  0.952787  0  0  0.12594  0  1.013615  0  0  0.129435  0  1.01235  0  0  0.109965  0.123442  0  1.0147  0
H  H4  1  0.84487707  0.12891287  0.00385246  1  0  0.107978  0  0.964958  0  0  0.118784  0  1.025799  0  0  0.121781  0  1.025042  0  0  0.107899  0.116585  0  1.026584  0
H  H5  1  0.15511470  0.87108578  0.99614632  1  0  0.107947  0  0.964924  0  0  0.11873  0  1.025807  0  0  0.121729  0  1.02505  0  0  0.107855  0.116532  0  1.026592  0
H  H6  1  0.15595375  0.23232731  0.15622410  1  0  0.089594  0  0.931281  0  0  0.099665  0  0.991417  0  0  0.10247  0  0.988944  0  0  0.119717  0.097628  0  0.99315  0
H  H7  1  0.84403848  0.76766861  0.84377156  1  0  0.089613  0  0.93124  0  0  0.099709  0  0.991338  0  0  0.102518  0  0.98886  0  0  0.119709  0.097645  0  0.99311  0
H  H8  1  0.42919277  0.92659911  0.09472998  1  0  0.10853  0  0.964229  0  0  0.11892  0  1.026314  0  0  0.122095  0  1.024404  0  0  0.105755  0.116575  0  1.027822  0
H  H9  1  0.57079767  0.07340359  0.90527034  1  0  0.108557  0  0.964251  0  0  0.118879  0  1.026422  0  0  0.122051  0  1.02449  0  0  0.105777  0.116534  0  1.027928  0
H  H10  1  0.01671717  0.39367973  0.58623584  1  0  0.120681  0  0.935809  0  0  0.128034  0  1.000963  0  0  0.132113  0  0.997572  0  0  0.111012  0.125013  0  1.003574  0
H  H11  1  0.98328230  0.60632288  0.41376834  1  0  0.120694  0  0.935891  0  0  0.128085  0  1.000996  0  0  0.132165  0  0.997607  0  0  0.111039  0.125065  0  1.003607  0
H  H12  1  0.97826408  0.31969995  0.93443186  1  0  0.09572  0  0.967022  0  0  0.105428  0  1.031366  0  0  0.108199  0  1.029835  0  0  0.103957  0.103392  0  1.032506  0
H  H13  1  0.02174176  0.68031066  0.06557754  1  0  0.095715  0  0.96703  0  0  0.105426  0  1.031368  0  0  0.108189  0  1.029862  0  0  0.103953  0.103394  0  1.032503  0
H  H14  1  0.30084399  0.50142323  0.04185482  1  0  0.104642  0  0.953045  0  0  0.114102  0  1.012471  0  0  0.117643  0  1.010689  0  0  0.104195  0.111514  0  1.013933  0
H  H15  1  0.69916616  0.49858450  0.95814678  1  0  0.104653  0  0.953006  0  0  0.114094  0  1.012445  0  0  0.117635  0  1.010664  0  0  0.104197  0.111507  0  1.013908  0
H  H16  1  0.48272738  0.62306934  0.91696542  1  0  0.097819  0  0.960863  0  0  0.105984  0  1.026315  0  0  0.108967  0  1.024547  0  0  0.10626  0.10386  0  1.027482  0
H  H17  1  0.51728065  0.37693566  0.08303097  1  0  0.097838  0  0.960935  0  0  0.106021  0  1.026343  0  0  0.108998  0  1.02458  0  0  0.106267  0.103895  0  1.02751  0
Pb  Pb18  1  0.38625860  0.22018266  0.43882999  1  0  1.308641  0  1.408402  0  0  1.127735  0  1.796319  0  0  1.184169  0  1.756636  0  0  0.654551  1.087052  0  1.824057  0
Pb  Pb19  1  0.61373824  0.77982388  0.56116686  1  0  1.308612  0  1.40845  0  0  1.127712  0  1.796373  0  0  1.184145  0  1.756687  0  0  0.654544  1.087028  0  1.824106  0
C  C20  1  0.92870778  0.08528907  0.32951293  1  0  0.126105  0  3.745781  0  0  0.095168  0  3.998522  0  0  0.10245  0  4.018293  0  0  0.045739  0.090485  0  3.985021  0
C  C21  1  0.07129140  0.91470004  0.67048229  1  0  0.126069  0  3.745785  0  0  0.0951  0  3.99854  0  0  0.10238  0  4.018313  0  0  0.045707  0.090417  0  3.985043  0
C  C22  1  0.75171960  0.02412216  0.25136868  1  0  -0.146447  0  3.66483  0  0  -0.162513  0  3.905485  0  0  -0.170846  0  3.926887  0  0  -0.076756  -0.157233  0  3.89124  0
C  C23  1  0.24827441  0.97586700  0.74862407  1  0  -0.14649  0  3.664929  0  0  -0.162514  0  3.905611  0  0  -0.170847  0  3.927016  0  0  -0.076788  -0.157238  0  3.891366  0
C  C24  1  0.71496228  0.04096845  0.13181180  1  0  0.143726  0  3.785965  0  0  0.158729  0  4.015265  0  0  0.164523  0  4.037682  0  0  0.012841  0.155056  0  3.999989  0
C  C25  1  0.28503469  0.95902610  0.86818686  1  0  0.143815  0  3.785952  0  0  0.158701  0  4.015388  0  0  0.164496  0  4.037802  0  0  0.012856  0.155039  0  4.000092  0
C  C26  1  0.86416191  0.11541600  0.09622913  1  0  -0.166569  0  3.69281  0  0  -0.182337  0  3.937708  0  0  -0.191215  0  3.960669  0  0  -0.080324  -0.176522  0  3.92231  0
C  C27  1  0.13583031  0.88457990  0.90376566  1  0  -0.166612  0  3.692995  0  0  -0.18234  0  3.937957  0  0  -0.191219  0  3.960918  0  0  -0.08032  -0.176526  0  3.922549  0
C  C28  1  0.03722517  0.17256273  0.17982370  1  0  0.135088  0  3.715451  0  0  0.101751  0  3.972203  0  0  0.109561  0  3.990245  0  0  0.047517  0.096744  0  3.959775  0
C  C29  1  0.96277084  0.82744120  0.82017594  1  0  0.1351  0  3.71554  0  0  0.101759  0  3.972246  0  0  0.109569  0  3.990285  0  0  0.047543  0.096767  0  3.959824  0
C  C30  1  0.52763647  0.98712215  0.05497609  1  0  -0.088157  0  3.692367  0  0  -0.111739  0  3.948724  0  0  -0.114128  0  3.966191  0  0  -0.076397  -0.110107  0  3.936818  0
C  C31  1  0.47235871  0.01287916  0.94502548  1  0  -0.088209  0  3.692438  0  0  -0.111709  0  3.948856  0  0  -0.114081  0  3.966314  0  0  -0.076419  -0.110081  0  3.936945  0
C  C32  1  0.37371933  0.58347920  0.67117621  1  0  0.646374  0  3.903494  0  0  0.593656  0  4.189839  0  0  0.628823  0  4.184647  0  0  0.218419  0.569879  0  4.192407  0
C  C33  1  0.62628058  0.41652059  0.32881964  1  0  0.646571  0  3.903685  0  0  0.593786  0  4.190064  0  0  0.628957  0  4.184869  0  0  0.218489  0.570009  0  4.19263  0
C  C34  1  0.26269620  0.51193820  0.74432288  1  0  -0.068116  0  3.759549  0  0  -0.041253  0  3.992848  0  0  -0.050719  0  4.016121  0  0  -0.015025  -0.035294  0  3.977211  0
C  C35  1  0.73730847  0.48806026  0.25567770  1  0  -0.068138  0  3.75945  0  0  -0.041131  0  3.992602  0  0  -0.0506  0  4.015877  0  0  -0.015007  -0.035174  0  3.976962  0
C  C36  1  0.07976791  0.41470224  0.68515518  1  0  -0.066847  0  3.697083  0  0  -0.104489  0  3.945193  0  0  -0.101665  0  3.963755  0  0  -0.075534  -0.106113  0  3.932703  0
C  C37  1  0.92023759  0.58529890  0.31484696  1  0  -0.06685  0  3.697082  0  0  -0.104573  0  3.94517  0  0  -0.101752  0  3.963733  0  0  -0.075565  -0.106194  0  3.932678  0
C  C38  1  0.97916510  0.34815219  0.75533844  1  0  -0.114191  0  3.743985  0  0  -0.084477  0  3.9889  0  0  -0.093084  0  4.011619  0  0  -0.019475  -0.078999  0  3.973736  0
C  C39  1  0.02083650  0.65185310  0.24466836  1  0  -0.11419  0  3.743915  0  0  -0.084484  0  3.988859  0  0  -0.093085  0  4.011574  0  0  -0.019484  -0.07901  0  3.973701  0
C  C40  1  0.05895028  0.37507278  0.88230803  1  0  -0.049658  0  3.735037  0  0  -0.078281  0  3.983487  0  0  -0.076015  0  4.003576  0  0  -0.079678  -0.079531  0  3.969802  0
C  C41  1  0.94105597  0.62493907  0.11769650  1  0  -0.049641  0  3.7349  0  0  -0.078256  0  3.98333  0  0  -0.075998  0  4.003417  0  0  -0.079664  -0.079506  0  3.969648  0
C  C42  1  0.24026549  0.47508795  0.94148202  1  0  -0.079322  0  3.738191  0  0  -0.087556  0  3.989911  0  0  -0.092534  0  4.010403  0  0  -0.088057  -0.084369  0  3.976004  0
C  C43  1  0.75974126  0.52491714  0.05851854  1  0  -0.079179  0  3.738223  0  0  -0.087381  0  3.989915  0  0  -0.09236  0  4.010412  0  0  -0.088004  -0.084198  0  3.976008  0
C  C44  1  0.34153485  0.54384894  0.87280709  1  0  -0.039222  0  3.700706  0  0  -0.068202  0  3.949171  0  0  -0.065132  0  3.967668  0  0  -0.072335  -0.069783  0  3.936374  0
C  C45  1  0.65847110  0.45614941  0.12718845  1  0  -0.039427  0  3.700919  0  0  -0.068477  0  3.949377  0  0  -0.065403  0  3.967874  0  0  -0.072416  -0.070063  0  3.936593  0
S  S46  1  0.74339117  0.23377614  0.68462042  1  0  1.26537  0  5.704786  0  0  1.174292  0  6.210979  0  0  1.222739  0  6.190013  0  0  0.502457  1.14091  0  6.224041  0
S  S47  1  0.25661259  0.76622775  0.31538465  1  0  1.265395  0  5.704837  0  0  1.174311  0  6.211022  0  0  1.222756  0  6.190056  0  0  0.502522  1.140929  0  6.224084  0
N  N48  1  0.06948974  0.15903810  0.29528484  1  0  -0.351173  0  3.235158  0  0  -0.273832  0  3.489919  0  0  -0.294319  0  3.511029  0  0  -0.304691  -0.25984  0  3.475243  0
N  N49  1  0.93050294  0.84095512  0.70470945  1  0  -0.351175  0  3.235034  0  0  -0.27384  0  3.489814  0  0  -0.294327  0  3.510924  0  0  -0.304695  -0.259845  0  3.47513  0
O  O50  1  0.64661838  0.36890969  0.70532820  1  0  -0.660459  0  1.938514  0  0  -0.614065  0  2.185093  0  0  -0.637669  0  2.174692  0  0  -0.332255  -0.597264  0  2.191543  0
O  O51  1  0.35338114  0.63108893  0.29467688  1  0  -0.660491  0  1.938549  0  0  -0.614096  0  2.185118  0  0  -0.637697  0  2.174716  0  0  -0.332328  -0.597294  0  2.19157  0
O  O52  1  0.72035982  0.13695288  0.54795496  1  0  -0.737585  0  1.995  0  0  -0.677511  0  2.249884  0  0  -0.703879  0  2.240587  0  0  -0.334545  -0.658829  0  2.255745  0
O  O53  1  0.27964307  0.86305240  0.45205202  1  0  -0.737627  0  1.994969  0  0  -0.677567  0  2.249872  0  0  -0.703935  0  2.240579  0  0  -0.334567  -0.658886  0  2.255735  0
O  O54  1  0.69969599  0.10755834  0.74927648  1  0  -0.685136  0  1.980674  0  0  -0.627718  0  2.234905  0  0  -0.650814  0  2.221936  0  0  -0.32893  -0.611194  0  2.243076  0
O  O55  1  0.30030993  0.89244423  0.25073122  1  0  -0.685138  0  1.980785  0  0  -0.627699  0  2.234981  0  0  -0.65081  0  2.222055  0  0  -0.328905  -0.611177  0  2.243153  0
O  O56  1  0.32069995  0.51358049  0.54921177  1  0  -0.682781  0  1.993344  0  0  -0.608268  0  2.229342  0  0  -0.638972  0  2.22191  0  0  -0.301039  -0.586559  0  2.23362  0
O  O57  1  0.67929698  0.48641806  0.45078686  1  0  -0.682851  0  1.993408  0  0  -0.608324  0  2.229419  0  0  -0.63904  0  2.222002  0  0  -0.301056  -0.586615  0  2.233697  0
O  O58  1  0.51742866  0.71391915  0.73274290  1  0  -0.598449  0  1.963243  0  0  -0.523413  0  2.189937  0  0  -0.55356  0  2.184596  0  0  -0.277256  -0.502359  0  2.192686  0
O  O59  1  0.48257558  0.28607788  0.26725212  1  0  -0.598543  0  1.963401  0  0  -0.523505  0  2.190111  0  0  -0.553632  0  2.184731  0  0  -0.277295  -0.502457  0  2.192876  0
