# generated using pymatgen
data_ZnH12C32N7O8
_symmetry_space_group_name_H-M   'P 1'
_cell_length_a   18.48240818
_cell_length_b   19.16006750
_cell_length_c   19.65353924
_cell_angle_alpha   88.76756143
_cell_angle_beta   89.99036109
_cell_angle_gamma   89.93495015
_symmetry_Int_Tables_number   1
_chemical_formula_structural   ZnH12C32N7O8
_chemical_formula_sum   'Zn2 H24 C64 N14 O16'
_cell_volume   6958.17904071
_cell_formula_units_Z   2
loop_
 _symmetry_equiv_pos_site_id
 _symmetry_equiv_pos_as_xyz
  1  'x, y, z'
loop_
 _atom_site_type_symbol
 _atom_site_label
 _atom_site_symmetry_multiplicity
 _atom_site_fract_x
 _atom_site_fract_y
 _atom_site_fract_z
 _atom_site_occupancy
 _atom_site_pbe_bader_charge
 _atom_site_pbe_bader_spin_density
 _atom_site_pbe_cm5_charge
 _atom_site_pbe_ddec_charge
 _atom_site_pbe_ddec_spin_density
 _atom_site_pbe_ddec_sum_bond_order
 _atom_site_pbe_magmom
Zn  Zn0  1  0.42287418  0.49976249  0.49863175  1  1.302924  0  0.67911  0.83736  0  2.398227  0
Zn  Zn1  1  0.57728967  0.49962900  0.49900551  1  1.317366  0  0.679362  0.836482  0  2.400823  0
H  H2  1  0.38352302  0.28007599  0.51059986  1  0.098454  0  0.104409  0.11068  0  1.004286  0
H  H3  1  0.61588323  0.71868337  0.50792076  1  0.106541  0  0.105504  0.111857  0  1.000216  0
H  H4  1  0.38373679  0.71908258  0.50797907  1  0.094509  0  0.105827  0.112457  0  0.999022  0
H  H5  1  0.61571862  0.28014538  0.50982879  1  0.094997  0  0.104368  0.110645  0  1.004603  0
H  H6  1  0.38338848  0.14994820  0.52635607  1  0.092889  0  0.106895  0.106052  0  1.012231  0
H  H7  1  0.61636314  0.84809790  0.52470723  1  0.106798  0  0.106757  0.105821  0  1.012386  0
H  H8  1  0.38344190  0.84849168  0.52484028  1  0.098939  0  0.106484  0.105055  0  1.012597  0
H  H9  1  0.61633234  0.15002319  0.52564155  1  0.095954  0  0.106584  0.105255  0  1.011389  0
H  H10  1  0.45779025  0.39094413  0.05387986  1  0.091372  0  0.113228  0.121825  0  0.974528  0
H  H11  1  0.54029845  0.61354380  0.94388309  1  0.080837  0  0.11088  0.115723  0  0.979658  0
H  H12  1  0.45722533  0.40442069  0.92774969  1  0.091362  0  0.11154  0.11681  0  0.9791  0
H  H13  1  0.54195273  0.59971016  0.07001265  1  0.082969  0  0.113527  0.120862  0  0.9736  0
H  H14  1  0.16872506  0.58282321  0.42267929  1  0.138917  0  0.129324  0.143447  0  0.965663  0
H  H15  1  0.83156289  0.41691640  0.57555515  1  0.130054  0  0.128948  0.143146  0  0.966935  0
H  H16  1  0.16869909  0.41739819  0.57600417  1  0.125616  0  0.128803  0.143086  0  0.967408  0
H  H17  1  0.83103922  0.58292262  0.42278426  1  0.142321  0  0.129816  0.14438  0  0.964505  0
H  H18  1  0.06660624  0.48073854  0.60770922  1  0.057218  0  0.114865  0.116271  0  0.982054  0
H  H19  1  0.93335115  0.51907654  0.39024277  1  0.073587  0  0.116407  0.118624  0  0.980147  0
H  H20  1  0.06669336  0.51907156  0.39027911  1  0.072194  0  0.116014  0.117962  0  0.980643  0
H  H21  1  0.93330087  0.48065855  0.60766724  1  0.056603  0  0.115189  0.116977  0  0.981065  0
H  H22  1  0.69281962  0.43904502  0.08135956  1  0.621339  0  0.355752  0.395637  0  0.829742  0
H  H23  1  0.27832988  0.46467366  0.87061891  1  0.626783  0  0.354878  0.392523  0  0.832755  0
H  H24  1  0.71296388  0.57935604  0.87727428  1  0.606819  0  0.356043  0.394248  0  0.829664  0
H  H25  1  0.30024423  0.53419879  0.09068961  1  0.619657  0  0.35556  0.394159  0  0.829552  0
C  C26  1  0.50091715  0.50583163  0.63264005  1  1.647731  0  0.221367  0.588926  0  4.19397  0
C  C27  1  0.50062573  0.49449712  0.36554391  1  1.64064  0  0.222968  0.593619  0  4.186932  0
C  C28  1  0.50061881  0.48801614  0.14511437  1  0.069959  0  0.018829  0.045427  0  3.952996  0
C  C29  1  0.49896090  0.51571515  0.85278928  1  0.043578  0  0.02224  0.049736  0  3.956401  0
C  C30  1  0.50081736  0.48771468  0.28934724  1  0.064549  0  0.020616  -0.0644  0  3.847158  0
C  C31  1  0.50022958  0.51425277  0.70864720  1  0.098244  0  0.020798  -0.06126  0  3.845219  0
C  C32  1  0.47538290  0.43979689  0.02975644  1  -0.015873  0  -0.081872  -0.111874  0  3.965842  0
C  C33  1  0.52309760  0.56455219  0.96804362  1  0.023206  0  -0.082089  -0.112026  0  3.965724  0
C  C34  1  0.47476211  0.44745382  0.95920481  1  -0.035125  0  -0.082599  -0.115404  0  3.96494  0
C  C35  1  0.52388559  0.55687831  0.03860237  1  -0.060389  0  -0.080853  -0.111766  0  3.960689  0
C  C36  1  0.49865225  0.50976251  0.92807737  1  -0.044475  0  -0.008496  0.061485  0  4.02469  0
C  C37  1  0.50005769  0.49451960  0.06977051  1  0.023152  0  -0.011441  0.053316  0  4.030626  0
C  C38  1  0.27109056  0.54440544  0.45865326  1  0.565598  0  0.162155  0.24442  0  4.011661  0
C  C39  1  0.72910570  0.45554999  0.54012534  1  0.548923  0  0.160319  0.241541  0  4.015185  0
C  C40  1  0.27106209  0.45606954  0.54052985  1  0.534431  0  0.161278  0.242779  0  4.014529  0
C  C41  1  0.72879942  0.54433765  0.45868207  1  0.561735  0  0.161535  0.243496  0  4.013109  0
C  C42  1  0.19548186  0.54535343  0.45667297  1  0.057929  0  -0.048247  -0.178322  0  3.839926  0
C  C43  1  0.80471620  0.45444825  0.54170400  1  0.093826  0  -0.048925  -0.180161  0  3.842413  0
C  C44  1  0.19544399  0.45483898  0.54203718  1  0.100389  0  -0.049359  -0.180557  0  3.84246  0
C  C45  1  0.80440589  0.54531765  0.45666923  1  0.059052  0  -0.048016  -0.179339  0  3.838035  0
C  C46  1  0.15589892  0.49998679  0.49917777  1  0.006791  0  0.029058  0.136271  0  3.983703  0
C  C47  1  0.84410603  0.49982197  0.49902920  1  0.003712  0  0.029074  0.138315  0  3.980764  0
C  C48  1  0.03757602  0.48798638  0.55975246  1  -0.125969  0  -0.075795  -0.112076  0  3.966316  0
C  C49  1  0.96239818  0.51178718  0.43818831  1  -0.05338  0  -0.075083  -0.111721  0  3.962958  0
C  C50  1  0.03762890  0.51179002  0.43821233  1  0.123139  0  -0.074523  -0.110567  0  3.963092  0
C  C51  1  0.96239455  0.48794313  0.55973708  1  0.049504  0  -0.075649  -0.112473  0  3.965297  0
C  C52  1  0.92380942  0.49982644  0.49894658  1  -0.054251  0  0.000371  0.060122  0  3.993578  0
C  C53  1  0.07620214  0.49988552  0.49899416  1  -0.055443  0  0.000284  0.060535  0  3.994769  0
C  C54  1  0.49941535  0.36529125  0.50253564  1  1.532873  0  0.222854  0.601395  0  4.145091  0
C  C55  1  0.49977789  0.63398204  0.50155227  1  1.531116  0  0.221974  0.600948  0  4.145674  0
C  C56  1  0.43402195  0.25090264  0.51330423  1  -0.044014  0  -0.078118  -0.078166  0  3.96004  0
C  C57  1  0.56549139  0.74775624  0.51194095  1  -0.005913  0  -0.078431  -0.079488  0  3.959091  0
C  C58  1  0.43417934  0.74798961  0.51192232  1  0.018282  0  -0.077945  -0.079708  0  3.958422  0
C  C59  1  0.56531341  0.25094019  0.51283646  1  -0.030935  0  -0.077909  -0.07845  0  3.960006  0
C  C60  1  0.43398196  0.17878720  0.52211150  1  0.016011  0  -0.080166  -0.106464  0  3.95883  0
C  C61  1  0.56571046  0.81945224  0.52098142  1  -0.088507  0  -0.080305  -0.107316  0  3.960189  0
C  C62  1  0.43405267  0.81968127  0.52102536  1  -0.055662  0  -0.080532  -0.106461  0  3.959488  0
C  C63  1  0.56562347  0.17882119  0.52167734  1  0.005287  0  -0.080393  -0.10561  0  3.956769  0
C  C64  1  0.49987269  0.14216258  0.52698227  1  -0.020201  0  -0.002403  0.020851  0  3.99606  0
C  C65  1  0.49990700  0.85593114  0.52635906  1  0.04753  0  -0.003064  0.020232  0  3.995846  0
C  C66  1  0.49959937  0.28749093  0.50903596  1  -0.0262  0  -0.010246  -0.022396  0  3.945593  0
C  C67  1  0.49980821  0.71148689  0.50804093  1  -0.03046  0  -0.00966  -0.021412  0  3.946327  0
C  C68  1  0.49996920  0.93135164  0.53759196  1  0.93081  0  0.240436  0.24843  0  3.990482  0
C  C69  1  0.49996742  0.06621033  0.53791743  1  0.943321  0  0.241463  0.249718  0  3.986915  0
C  C70  1  0.56660786  0.48733251  0.25289713  1  0.173369  0  0.032652  0.047014  0  3.998893  0
C  C71  1  0.43410549  0.51545171  0.74443813  1  0.012601  0  0.032115  0.046443  0  3.993404  0
C  C72  1  0.56555538  0.51887646  0.74530710  1  0.093485  0  0.031688  0.045878  0  3.996466  0
C  C73  1  0.43512103  0.48366307  0.25315583  1  0.146886  0  0.031835  0.044788  0  4.002706  0
C  C74  1  0.56615449  0.48823911  0.18114139  1  -0.10426  0  0.018102  -0.07211  0  3.862729  0
C  C75  1  0.43378602  0.51490932  0.81624031  1  0.077367  0  0.0178  -0.073288  0  3.860091  0
C  C76  1  0.56452184  0.52005343  0.81707400  1  0.016708  0  0.018662  -0.071286  0  3.859115  0
C  C77  1  0.43544511  0.48365679  0.18145159  1  -0.064313  0  0.019291  -0.067588  0  3.861782  0
C  C78  1  0.63581704  0.48279656  0.28567339  1  0.899607  0  0.183821  0.264573  0  4.006579  0
C  C79  1  0.36539607  0.52069656  0.71078946  1  0.898957  0  0.183467  0.266631  0  4.008666  0
C  C80  1  0.63504757  0.52183483  0.71290613  1  0.849342  0  0.18272  0.262896  0  4.008779  0
C  C81  1  0.36573777  0.48032905  0.28570981  1  0.897162  0  0.183583  0.263594  0  4.003989  0
C  C82  1  0.63606566  0.49202733  0.14185343  1  1.548591  0  0.236428  0.579442  0  4.151426  0
C  C83  1  0.36353123  0.51725199  0.85487190  1  1.553446  0  0.236725  0.579744  0  4.151715  0
C  C84  1  0.63441059  0.52018605  0.85645574  1  1.550367  0  0.23788  0.582471  0  4.151704  0
C  C85  1  0.36549526  0.47842572  0.14261782  1  1.559136  0  0.237425  0.580739  0  4.156203  0
C  C86  1  0.30773162  0.59423662  0.41536631  1  0.884468  0  0.192695  0.21009  0  3.952777  0
C  C87  1  0.69267760  0.40591310  0.58376968  1  0.90125  0  0.194018  0.210762  0  3.953425  0
C  C88  1  0.30752733  0.40679108  0.58462865  1  0.892748  0  0.193901  0.212421  0  3.952185  0
C  C89  1  0.69193667  0.59460388  0.41598792  1  0.88172  0  0.193248  0.209502  0  3.951732  0
N  N90  1  0.56419393  0.03283510  0.54590244  1  -0.565771  0  -0.157936  -0.151743  0  3.220054  0
N  N91  1  0.43582144  0.96431995  0.54621185  1  -0.532219  0  -0.157656  -0.151575  0  3.223653  0
N  N92  1  0.56418967  0.96418731  0.54575037  1  -0.538533  0  -0.157961  -0.152573  0  3.222806  0
N  N93  1  0.43581164  0.03295884  0.54638835  1  -0.571468  0  -0.157858  -0.152311  0  3.221152  0
N  N94  1  0.30926400  0.50021762  0.49962339  1  -1.165606  0  -0.279106  -0.250343  0  3.352267  0
N  N95  1  0.69079034  0.49988240  0.49943469  1  -1.178502  0  -0.279414  -0.249862  0  3.353836  0
N  N96  1  0.69572588  0.47569938  0.30353057  1  -1.12047  0  -0.316785  -0.36718  0  2.686558  0
N  N97  1  0.30559925  0.52872612  0.69291955  1  -1.117994  0  -0.319419  -0.37318  0  2.691074  0
N  N98  1  0.69560439  0.52600387  0.69617578  1  -1.111078  0  -0.317594  -0.36949  0  2.690706  0
N  N99  1  0.30522956  0.47622629  0.30260051  1  -1.119316  0  -0.315458  -0.365411  0  2.685004  0
N  N100  1  0.32968584  0.63800539  0.37876344  1  -1.052956  0  -0.271697  -0.285886  0  2.648258  0
N  N101  1  0.67100064  0.36246443  0.62088932  1  -1.05719  0  -0.269712  -0.2852  0  2.657924  0
N  N102  1  0.32896288  0.36373720  0.62236016  1  -1.04909  0  -0.271184  -0.28801  0  2.656942  0
N  N103  1  0.66961205  0.63891158  0.38016348  1  -1.046544  0  -0.269449  -0.282241  0  2.647067  0
O  O104  1  0.43968219  0.50245619  0.60405391  1  -1.151732  0  -0.291419  -0.520512  0  2.372288  0
O  O105  1  0.56189734  0.49819864  0.39397296  1  -1.152996  0  -0.292591  -0.520844  0  2.374437  0
O  O106  1  0.43907266  0.49691517  0.39372418  1  -1.149025  0  -0.291959  -0.520089  0  2.370595  0
O  O107  1  0.56251703  0.50176419  0.60490271  1  -1.140087  0  -0.290919  -0.518112  0  2.368526  0
O  O108  1  0.43803763  0.39573048  0.50048759  1  -1.159782  0  -0.314298  -0.546998  0  2.376844  0
O  O109  1  0.56107153  0.60346134  0.50044333  1  -1.159542  0  -0.312984  -0.547411  0  2.383092  0
O  O110  1  0.43846325  0.60373543  0.49895917  1  -1.161277  0  -0.313581  -0.547651  0  2.380158  0
O  O111  1  0.56063538  0.39586422  0.49993214  1  -1.163656  0  -0.314751  -0.547666  0  2.376375  0
O  O112  1  0.67535160  0.54293873  0.13976631  1  -1.10146  0  -0.278059  -0.46452  0  2.047813  0
O  O113  1  0.64850094  0.43218352  0.10822123  1  -1.098991  0  -0.323062  -0.469629  0  2.202105  0
O  O114  1  0.34455247  0.56619979  0.88912636  1  -1.107845  0  -0.280542  -0.464821  0  2.044435  0
O  O115  1  0.32447268  0.45820966  0.84686709  1  -1.112376  0  -0.322235  -0.471098  0  2.215389  0
O  O116  1  0.65844486  0.46960765  0.88740698  1  -1.098448  0  -0.27807  -0.462523  0  2.042969  0
O  O117  1  0.66662085  0.58365803  0.85315882  1  -1.095931  0  -0.323852  -0.47431  0  2.210996  0
O  O118  1  0.33309291  0.42398043  0.13451521  1  -1.106836  0  -0.278821  -0.467133  0  2.046922  0
O  O119  1  0.34457013  0.54142905  0.11712056  1  -1.103461  0  -0.321256  -0.465878  0  2.200583  0
