# generated using pymatgen
data_KH7C9(N2O)2
_symmetry_space_group_name_H-M   'P 1'
_cell_length_a   4.16641075
_cell_length_b   7.85726796
_cell_length_c   15.09554996
_cell_angle_alpha   88.17787950
_cell_angle_beta   84.77057580
_cell_angle_gamma   87.34125832
_symmetry_Int_Tables_number   1
_chemical_formula_structural   KH7C9(N2O)2
_chemical_formula_sum   'K2 H14 C18 N8 O4'
_cell_volume   491.40159545
_cell_formula_units_Z   2
loop_
 _symmetry_equiv_pos_site_id
 _symmetry_equiv_pos_as_xyz
  1  'x, y, z'
loop_
 _atom_site_type_symbol
 _atom_site_label
 _atom_site_symmetry_multiplicity
 _atom_site_fract_x
 _atom_site_fract_y
 _atom_site_fract_z
 _atom_site_occupancy
 _atom_site_hle17_bader_spin_density
 _atom_site_hle17_ddec_charge
 _atom_site_hle17_ddec_spin_density
 _atom_site_hle17_ddec_sum_bond_order
 _atom_site_hle17_magmom
 _atom_site_hse06_10hf_bader_spin_density
 _atom_site_hse06_10hf_ddec_charge
 _atom_site_hse06_10hf_ddec_spin_density
 _atom_site_hse06_10hf_ddec_sum_bond_order
 _atom_site_hse06_10hf_magmom
 _atom_site_hse06_bader_spin_density
 _atom_site_hse06_ddec_charge
 _atom_site_hse06_ddec_spin_density
 _atom_site_hse06_ddec_sum_bond_order
 _atom_site_hse06_magmom
 _atom_site_pbe_bader_spin_density
 _atom_site_pbe_cm5_charge
 _atom_site_pbe_ddec_charge
 _atom_site_pbe_ddec_spin_density
 _atom_site_pbe_ddec_sum_bond_order
 _atom_site_pbe_magmom
K  K0  1  0.91229299  0.97573466  0.63863249  1  0  0.899475  0  0.455482  0  0  0.824401  0  0.653056  0  0  0.840802  0  0.631634  0  0  0.771722  0.812219  0  0.668288  0
K  K1  1  0.08770102  0.02428211  0.36135677  1  0  0.899444  0  0.455524  0  0  0.824396  0  0.653035  0  0  0.840802  0  0.631617  0  0  0.771704  0.812216  0  0.668265  0
H  H2  1  0.94405389  0.56157159  0.71926708  1  0  0.111246  0  0.976231  0  0  0.117509  0  1.046095  0  0  0.120873  0  1.042781  0  0  0.126562  0.115068  0  1.048437  0
H  H3  1  0.05595830  0.43842839  0.28073651  1  0  0.111252  0  0.97632  0  0  0.117496  0  1.04621  0  0  0.12086  0  1.042893  0  0  0.126549  0.115057  0  1.048553  0
H  H4  1  0.89565837  0.35509113  0.87099529  1  0  0.113916  0  0.973994  0  0  0.127101  0  1.030397  0  0  0.129666  0  1.030717  0  0  0.103377  0.12519  0  1.030417  0
H  H5  1  0.10433995  0.64490002  0.12900415  1  0  0.113884  0  0.974011  0  0  0.127108  0  1.030373  0  0  0.129673  0  1.030693  0  0  0.10337  0.125197  0  1.030393  0
H  H6  1  0.31944943  0.08144936  0.82543233  1  0  0.089513  0  0.987506  0  0  0.099248  0  1.051312  0  0  0.101138  0  1.050216  0  0  0.118012  0.097821  0  1.052178  0
H  H7  1  0.68054877  0.91854312  0.17456246  1  0  0.089494  0  0.987508  0  0  0.099231  0  1.051304  0  0  0.101122  0  1.050206  0  0  0.118011  0.097809  0  1.052174  0
H  H8  1  0.92432177  0.98001534  0.92554454  1  0  0.086533  0  0.955632  0  0  0.101621  0  1.011158  0  0  0.102956  0  1.010839  0  0  0.114362  0.100618  0  1.011477  0
H  H9  1  0.07567169  0.01997704  0.07446096  1  0  0.086458  0  0.955699  0  0  0.101578  0  1.011197  0  0  0.102912  0  1.01088  0  0  0.11434  0.100583  0  1.011496  0
H  H10  1  0.59398005  0.75207105  0.03809302  1  0  0.112472  0  0.994106  0  0  0.122388  0  1.056134  0  0  0.125305  0  1.055832  0  0  0.099367  0.120329  0  1.056433  0
H  H11  1  0.40599157  0.24792274  0.96190640  1  0  0.11245  0  0.994124  0  0  0.122388  0  1.056123  0  0  0.125299  0  1.055841  0  0  0.099363  0.120328  0  1.056422  0
H  H12  1  0.29672127  0.55565348  0.92277313  1  0  0.092348  0  0.97764  0  0  0.102577  0  1.043155  0  0  0.10464  0  1.042321  0  0  0.115451  0.101082  0  1.043735  0
H  H13  1  0.70325690  0.44434927  0.07722070  1  0  0.092284  0  0.977737  0  0  0.102547  0  1.04322  0  0  0.104605  0  1.042402  0  0  0.11541  0.101049  0  1.043805  0
H  H14  1  0.46600504  0.68039429  0.76618395  1  0  0.282212  0  0.939869  0  0  0.257047  0  1.013465  0  0  0.265957  0  1.00592  0  0  0.318603  0.250709  0  1.018936  0
H  H15  1  0.53399949  0.31961090  0.23381249  1  0  0.282171  0  0.939919  0  0  0.257071  0  1.013429  0  0  0.265981  0  1.005879  0  0  0.318581  0.250734  0  1.018901  0
C  C16  1  0.36467144  0.33168254  0.51129484  1  0  0.300869  0  3.838512  0  0  0.282555  0  4.117632  0  0  0.303617  0  4.122774  0  0  0.127501  0.268308  0  4.113866  0
C  C17  1  0.63533564  0.66832131  0.48870685  1  0  0.300814  0  3.838538  0  0  0.28252  0  4.117682  0  0  0.303575  0  4.122838  0  0  0.127503  0.268268  0  4.113927  0
C  C18  1  0.38680518  0.43159570  0.58724264  1  0  -0.143696  0  3.769885  0  0  -0.183685  0  4.046974  0  0  -0.20104  0  4.075122  0  0  0.041187  -0.172054  0  4.027933  0
C  C19  1  0.61321173  0.56840555  0.41276016  1  0  -0.1436  0  3.769764  0  0  -0.183646  0  4.046883  0  0  -0.200998  0  4.075032  0  0  0.041269  -0.172013  0  4.027846  0
C  C20  1  0.49686715  0.59885746  0.58032752  1  0  0.274514  0  3.841608  0  0  0.254243  0  4.119671  0  0  0.273843  0  4.128105  0  0  0.115181  0.241151  0  4.113516  0
C  C21  1  0.50314226  0.40114762  0.41967608  1  0  0.274419  0  3.841656  0  0  0.254206  0  4.119655  0  0  0.273802  0  4.128085  0  0  0.115135  0.241113  0  4.113502  0
C  C22  1  0.06501129  0.44092006  0.73438769  1  0  0.009019  0  3.648866  0  0  -0.056285  0  3.912721  0  0  -0.047581  0  3.924211  0  0  0.016804  -0.061688  0  3.904833  0
C  C23  1  0.93500331  0.55907991  0.26561585  1  0  0.009007  0  3.64913  0  0  -0.056284  0  3.91296  0  0  -0.047581  0  3.924458  0  0  0.016792  -0.06168  0  3.905053  0
C  C24  1  0.04639336  0.33480195  0.80956626  1  0  -0.215465  0  3.80461  0  0  -0.22682  0  4.068739  0  0  -0.236457  0  4.090518  0  0  -0.123452  -0.220482  0  4.053983  0
C  C25  1  0.95361435  0.66519298  0.19043420  1  0  -0.215524  0  3.80465  0  0  -0.226923  0  4.0688  0  0  -0.236563  0  4.090579  0  0  -0.123492  -0.220581  0  4.054048  0
C  C26  1  0.25742536  0.19468457  0.78656365  1  0  0.015194  0  3.827549  0  0  -0.019148  0  4.109275  0  0  -0.012869  0  4.125157  0  0  -0.002973  -0.022935  0  4.098141  0
C  C27  1  0.74258243  0.80530911  0.21343550  1  0  0.015188  0  3.827577  0  0  -0.019162  0  4.10934  0  0  -0.012882  0  4.125225  0  0  -0.002995  -0.022961  0  4.09822  0
C  C28  1  0.77438458  0.87867620  0.90878338  1  0  0.033951  0  3.790797  0  0  0.001477  0  4.066561  0  0  0.007295  0  4.082755  0  0  0.005648  -0.00214  0  4.055341  0
C  C29  1  0.22560877  0.12131749  0.09121946  1  0  0.034061  0  3.790705  0  0  0.00157  0  4.066446  0  0  0.007389  0  4.082635  0  0  0.005697  -0.002045  0  4.055227  0
C  C30  1  0.60630787  0.76138955  0.96609579  1  0  -0.242598  0  3.813994  0  0  -0.251769  0  4.068595  0  0  -0.261298  0  4.090131  0  0  -0.130864  -0.245492  0  4.053958  0
C  C31  1  0.39367564  0.23860674  0.03390462  1  0  -0.242593  0  3.814136  0  0  -0.251792  0  4.068733  0  0  -0.261322  0  4.090266  0  0  -0.13085  -0.245513  0  4.054093  0
C  C32  1  0.45561114  0.66052497  0.90974058  1  0  0.034069  0  3.735713  0  0  -0.009142  0  3.992562  0  0  -0.001634  0  4.009435  0  0  0.009181  -0.013757  0  3.980908  0
C  C33  1  0.54438189  0.33947260  0.09025691  1  0  0.034231  0  3.735834  0  0  -0.008995  0  3.992671  0  0  -0.00149  0  4.009542  0  0  0.009285  -0.01361  0  3.981019  0
N  N34  1  0.27567070  0.36395328  0.67232173  1  0  0.082535  0  3.644645  0  0  0.206373  0  3.810204  0  0  0.201635  0  3.832272  0  0  -0.141701  0.209009  0  3.795935  0
N  N35  1  0.72434370  0.63604927  0.32767978  1  0  0.082501  0  3.644652  0  0  0.206352  0  3.81021  0  0  0.201622  0  3.832258  0  0  -0.141708  0.20899  0  3.795944  0
N  N36  1  0.39765398  0.21163212  0.70335453  1  0  -0.349506  0  2.987016  0  0  -0.340369  0  3.256312  0  0  -0.348786  0  3.270415  0  0  -0.344844  -0.334534  0  3.246759  0
N  N37  1  0.60235575  0.78836792  0.29664382  1  0  -0.349398  0  2.987087  0  0  -0.340268  0  3.256389  0  0  -0.348686  0  3.270491  0  0  -0.344765  -0.334435  0  3.24684  0
N  N38  1  0.53628372  0.71934189  0.82590812  1  0  -0.162592  0  3.54041  0  0  -0.093939  0  3.777372  0  0  -0.107379  0  3.795726  0  0  -0.291222  -0.085011  0  3.764995  0
N  N39  1  0.46371156  0.28065819  0.17409127  1  0  -0.162543  0  3.540468  0  0  -0.093966  0  3.777451  0  0  -0.107399  0  3.795792  0  0  -0.291209  -0.085041  0  3.765083  0
N  N40  1  0.73216642  0.85248025  0.82319629  1  0  -0.277612  0  2.966869  0  0  -0.261332  0  3.252169  0  0  -0.267423  0  3.266144  0  0  -0.297994  -0.25705  0  3.242643  0
N  N41  1  0.26783379  0.14751851  0.17680630  1  0  -0.277704  0  2.966844  0  0  -0.261419  0  3.252172  0  0  -0.267508  0  3.266142  0  0  -0.298088  -0.257141  0  3.24265  0
O  O42  1  0.23300042  0.19061855  0.51346560  1  0  -0.563301  0  1.975646  0  0  -0.519708  0  2.199782  0  0  -0.537661  0  2.194115  0  0  -0.389485  -0.507091  0  2.203398  0
O  O43  1  0.76699200  0.80938790  0.48653510  1  0  -0.563328  0  1.975621  0  0  -0.519732  0  2.199752  0  0  -0.537682  0  2.19409  0  0  -0.389542  -0.507113  0  2.203376  0
O  O44  1  0.49175440  0.69980996  0.64465375  1  0  -0.583022  0  2.036956  0  0  -0.534293  0  2.268916  0  0  -0.555536  0  2.264482  0  0  -0.360363  -0.519222  0  2.27131  0
O  O45  1  0.50826445  0.30019767  0.35534758  1  0  -0.583044  0  2.036994  0  0  -0.534328  0  2.268865  0  0  -0.555593  0  2.264484  0  0  -0.360422  -0.519258  0  2.271256  0
