# generated using pymatgen
data_ErH8C6NO7
_symmetry_space_group_name_H-M   'P 1'
_cell_length_a   6.55833302
_cell_length_b   6.75064763
_cell_length_c   19.40510581
_cell_angle_alpha   93.34411754
_cell_angle_beta   90.00004907
_cell_angle_gamma   89.99991750
_symmetry_Int_Tables_number   1
_chemical_formula_structural   ErH8C6NO7
_chemical_formula_sum   'Er4 H32 C24 N4 O28'
_cell_volume   857.65924245
_cell_formula_units_Z   4
loop_
 _symmetry_equiv_pos_site_id
 _symmetry_equiv_pos_as_xyz
  1  'x, y, z'
loop_
 _atom_site_type_symbol
 _atom_site_label
 _atom_site_symmetry_multiplicity
 _atom_site_fract_x
 _atom_site_fract_y
 _atom_site_fract_z
 _atom_site_occupancy
 _atom_site_hle17_bader_spin_density
 _atom_site_hle17_ddec_charge
 _atom_site_hle17_ddec_spin_density
 _atom_site_hle17_ddec_sum_bond_order
 _atom_site_hle17_magmom
 _atom_site_hse06_10hf_bader_spin_density
 _atom_site_hse06_10hf_ddec_charge
 _atom_site_hse06_10hf_ddec_spin_density
 _atom_site_hse06_10hf_ddec_sum_bond_order
 _atom_site_hse06_10hf_magmom
 _atom_site_hse06_bader_spin_density
 _atom_site_hse06_ddec_charge
 _atom_site_hse06_ddec_spin_density
 _atom_site_hse06_ddec_sum_bond_order
 _atom_site_hse06_magmom
 _atom_site_pbe_bader_spin_density
 _atom_site_pbe_cm5_charge
 _atom_site_pbe_ddec_charge
 _atom_site_pbe_ddec_spin_density
 _atom_site_pbe_ddec_sum_bond_order
 _atom_site_pbe_magmom
Er  Er0  1  0.75683328  0.76660137  0.89788817  1  0  2.209815  0  1.645977  0  0  2.045732  0  2.138474  0  0  2.189271  0  1.92191  0  0  1.504345  2.007955  0  2.168417  0
Er  Er1  1  0.74317093  0.26657008  0.39789841  1  0  2.209855  0  1.646002  0  0  2.045712  0  2.138589  0  0  2.189331  0  1.921893  0  0  1.504352  2.007977  0  2.16849  0
Er  Er2  1  0.24315627  0.23340564  0.10211096  1  0  2.209801  0  1.646047  0  0  2.045639  0  2.138723  0  0  2.189282  0  1.921998  0  0  1.504358  2.007953  0  2.168533  0
Er  Er3  1  0.25683539  0.73342208  0.60210299  1  0  2.20979  0  1.64605  0  0  2.045662  0  2.138612  0  0  2.189259  0  1.921944  0  0  1.504325  2.007979  0  2.168432  0
H  H4  1  0.70535540  0.95483145  0.03290576  1  0  0.437923  0  0.856912  0  0  0.405109  0  0.92569  0  0  0.417013  0  0.908523  0  0  0.30434  0.396745  0  0.937935  0
H  H5  1  0.79465815  0.45484330  0.53290784  1  0  0.437835  0  0.857013  0  0  0.404992  0  0.925842  0  0  0.416893  0  0.90868  0  0  0.304286  0.396628  0  0.938087  0
H  H6  1  0.29464177  0.04517555  0.96709285  1  0  0.43787  0  0.85692  0  0  0.40506  0  0.925746  0  0  0.41696  0  0.908584  0  0  0.304324  0.396698  0  0.937987  0
H  H7  1  0.20536190  0.54514590  0.46709247  1  0  0.437789  0  0.857058  0  0  0.404985  0  0.925844  0  0  0.416884  0  0.908684  0  0  0.304308  0.396622  0  0.938087  0
H  H8  1  0.92067087  0.85106879  0.03768071  1  0  0.445863  0  0.832939  0  0  0.41342  0  0.906279  0  0  0.425276  0  0.88893  0  0  0.309705  0.405149  0  0.918586  0
H  H9  1  0.57933980  0.35108835  0.53768444  1  0  0.445856  0  0.832825  0  0  0.413421  0  0.906244  0  0  0.425277  0  0.888894  0  0  0.309687  0.405149  0  0.918554  0
H  H10  1  0.07932173  0.14893079  0.96231878  1  0  0.445848  0  0.832932  0  0  0.413405  0  0.906287  0  0  0.425258  0  0.88894  0  0  0.309703  0.405128  0  0.918603  0
H  H11  1  0.42067567  0.64890975  0.46231605  1  0  0.445863  0  0.832934  0  0  0.41343  0  0.906253  0  0  0.425287  0  0.8889  0  0  0.309717  0.405154  0  0.918569  0
H  H12  1  0.68130058  0.27178295  0.79362870  1  0  0.108043  0  0.922583  0  0  0.123754  0  0.98058  0  0  0.12635  0  0.97765  0  0  0.119802  0.122134  0  0.98239  0
H  H13  1  0.81871703  0.77175314  0.29363504  1  0  0.108128  0  0.922696  0  0  0.123841  0  0.98064  0  0  0.126406  0  0.977685  0  0  0.119775  0.122218  0  0.982451  0
H  H14  1  0.31868896  0.72822256  0.20637142  1  0  0.1081  0  0.922471  0  0  0.123817  0  0.98042  0  0  0.126408  0  0.97749  0  0  0.119822  0.122219  0  0.982211  0
H  H15  1  0.18128929  0.22823605  0.70636475  1  0  0.108091  0  0.922667  0  0  0.123829  0  0.980617  0  0  0.12641  0  0.977665  0  0  0.119797  0.122206  0  0.982428  0
H  H16  1  0.48136577  0.18868174  0.84426259  1  0  0.123238  0  0.930943  0  0  0.136338  0  0.986848  0  0  0.140145  0  0.983691  0  0  0.117619  0.133816  0  0.98899  0
H  H17  1  0.01865106  0.68865084  0.34426935  1  0  0.123299  0  0.930783  0  0  0.136366  0  0.986701  0  0  0.140142  0  0.98353  0  0  0.117573  0.133846  0  0.98884  0
H  H18  1  0.51862530  0.81132823  0.15573917  1  0  0.123292  0  0.930906  0  0  0.136368  0  0.986753  0  0  0.140171  0  0.983599  0  0  0.117621  0.13385  0  0.988896  0
H  H19  1  0.98135374  0.31133984  0.65573099  1  0  0.123204  0  0.930923  0  0  0.136294  0  0.986842  0  0  0.140084  0  0.98368  0  0  0.117571  0.133777  0  0.988977  0
H  H20  1  0.32371406  0.49583999  0.74898741  1  0  0.102905  0  0.964171  0  0  0.112415  0  1.031241  0  0  0.115279  0  1.02987  0  0  0.112638  0.110226  0  1.032991  0
H  H21  1  0.17628678  0.99582817  0.24899357  1  0  0.102674  0  0.96418  0  0  0.112174  0  1.031346  0  0  0.115024  0  1.029978  0  0  0.11257  0.109977  0  1.033105  0
H  H22  1  0.67627854  0.50417295  0.25101389  1  0  0.1028  0  0.964257  0  0  0.112405  0  1.031233  0  0  0.115254  0  1.029868  0  0  0.112647  0.110213  0  1.032985  0
H  H23  1  0.82372106  0.00416844  0.75100637  1  0  0.102724  0  0.964299  0  0  0.112235  0  1.031407  0  0  0.115088  0  1.030049  0  0  0.11258  0.110046  0  1.033155  0
H  H24  1  0.59114785  0.49200137  0.73535517  1  0  0.117183  0  0.910571  0  0  0.133395  0  0.96445  0  0  0.136064  0  0.962661  0  0  0.125455  0.131612  0  0.965844  0
H  H25  1  0.90884639  0.99197588  0.23536369  1  0  0.11708  0  0.910498  0  0  0.133236  0  0.964512  0  0  0.135896  0  0.962726  0  0  0.125362  0.131451  0  0.965908  0
H  H26  1  0.40884169  0.50801009  0.26464610  1  0  0.117102  0  0.910568  0  0  0.13333  0  0.964451  0  0  0.135991  0  0.96266  0  0  0.1254  0.131543  0  0.965853  0
H  H27  1  0.09115993  0.00801480  0.76463665  1  0  0.117086  0  0.910586  0  0  0.133268  0  0.964527  0  0  0.135936  0  0.962741  0  0  0.125369  0.131484  0  0.965919  0
H  H28  1  0.33168286  0.41716808  0.92492799  1  0  0.137356  0  0.93176  0  0  0.151131  0  0.987883  0  0  0.154472  0  0.985848  0  0  0.129277  0.148945  0  0.989279  0
H  H29  1  0.16834758  0.91712957  0.42492999  1  0  0.137263  0  0.931762  0  0  0.151056  0  0.987838  0  0  0.154395  0  0.985811  0  0  0.129262  0.148876  0  0.989239  0
H  H30  1  0.66831279  0.58284634  0.07507438  1  0  0.137392  0  0.93184  0  0  0.151179  0  0.987917  0  0  0.154522  0  0.98588  0  0  0.129277  0.148992  0  0.989312  0
H  H31  1  0.83166637  0.08285518  0.57506765  1  0  0.137347  0  0.931768  0  0  0.15113  0  0.987836  0  0  0.154468  0  0.985807  0  0  0.129278  0.148952  0  0.989239  0
H  H32  1  0.18621435  0.46575784  0.85092457  1  0  0.110248  0  0.924417  0  0  0.120376  0  0.986166  0  0  0.123653  0  0.983816  0  0  0.112811  0.118163  0  0.987852  0
H  H33  1  0.31380055  0.96574287  0.35092555  1  0  0.110221  0  0.924292  0  0  0.120286  0  0.986136  0  0  0.123566  0  0.983785  0  0  0.112772  0.118077  0  0.987817  0
H  H34  1  0.81377825  0.53423877  0.14907692  1  0  0.110239  0  0.924422  0  0  0.120363  0  0.986168  0  0  0.123634  0  0.983825  0  0  0.112787  0.118153  0  0.98785  0
H  H35  1  0.68620882  0.03425226  0.64907179  1  0  0.110265  0  0.924429  0  0  0.120339  0  0.986214  0  0  0.123608  0  0.983875  0  0  0.112791  0.118125  0  0.9879  0
C  C36  1  0.59745920  0.30508572  0.84190465  1  0  -0.190927  0  3.664852  0  0  -0.247852  0  3.923719  0  0  -0.249621  0  3.930936  0  0  -0.071081  -0.247208  0  3.921102  0
C  C37  1  0.90254783  0.80505431  0.34191253  1  0  -0.191192  0  3.665033  0  0  -0.247899  0  3.923716  0  0  -0.249495  0  3.930717  0  0  -0.070893  -0.247249  0  3.921086  0
C  C38  1  0.40252882  0.69492425  0.15809505  1  0  -0.191213  0  3.664778  0  0  -0.247955  0  3.923449  0  0  -0.249708  0  3.930651  0  0  -0.071094  -0.247346  0  3.920851  0
C  C39  1  0.09745544  0.19493786  0.65808784  1  0  -0.191028  0  3.664842  0  0  -0.247835  0  3.923726  0  0  -0.249501  0  3.930808  0  0  -0.070948  -0.247193  0  3.921104  0
C  C40  1  0.75253834  0.28799443  0.89949164  1  0  0.744697  0  3.798543  0  0  0.698391  0  4.09877  0  0  0.733572  0  4.093252  0  0  0.234027  0.674865  0  4.105455  0
C  C41  1  0.74746583  0.78796471  0.39949591  1  0  0.745201  0  3.798272  0  0  0.698794  0  4.098568  0  0  0.733939  0  4.093035  0  0  0.234223  0.675272  0  4.105256  0
C  C42  1  0.24745426  0.71201554  0.10050703  1  0  0.744842  0  3.798737  0  0  0.698527  0  4.098895  0  0  0.73371  0  4.093377  0  0  0.234118  0.67501  0  4.105581  0
C  C43  1  0.25254049  0.21203042  0.60050401  1  0  0.744995  0  3.798432  0  0  0.698557  0  4.09884  0  0  0.733717  0  4.093309  0  0  0.234108  0.675039  0  4.105518  0
C  C44  1  0.46987923  0.55551532  0.76890609  1  0  -0.198551  0  3.669872  0  0  -0.253277  0  3.924906  0  0  -0.256573  0  3.935696  0  0  -0.071184  -0.252104  0  3.921203  0
C  C45  1  0.03011623  0.05549768  0.26891346  1  0  -0.198051  0  3.669475  0  0  -0.252716  0  3.924779  0  0  -0.255977  0  3.93555  0  0  -0.07115  -0.25154  0  3.921074  0
C  C46  1  0.53011031  0.44449613  0.23109519  1  0  -0.198274  0  3.669807  0  0  -0.253076  0  3.924949  0  0  -0.256329  0  3.935715  0  0  -0.071148  -0.2519  0  3.921248  0
C  C47  1  0.96989009  0.94449893  0.73108597  1  0  -0.198302  0  3.66971  0  0  -0.252888  0  3.924924  0  0  -0.256179  0  3.935743  0  0  -0.071197  -0.251718  0  3.921224  0
C  C48  1  0.47692810  0.77785788  0.76041785  1  0  0.735932  0  3.814978  0  0  0.689977  0  4.113854  0  0  0.725183  0  4.107888  0  0  0.222875  0.666559  0  4.120628  0
C  C49  1  0.02307310  0.27782690  0.26041619  1  0  0.735894  0  3.815049  0  0  0.68974  0  4.114207  0  0  0.724941  0  4.108247  0  0  0.222883  0.666324  0  4.120979  0
C  C50  1  0.52306907  0.22215061  0.23958130  1  0  0.73567  0  3.815204  0  0  0.689684  0  4.114143  0  0  0.72488  0  4.108192  0  0  0.222775  0.666265  0  4.12092  0
C  C51  1  0.97692559  0.72216527  0.73958469  1  0  0.73593  0  3.814972  0  0  0.689644  0  4.114338  0  0  0.724847  0  4.108393  0  0  0.222839  0.666224  0  4.12111  0
C  C52  1  0.31903317  0.51608855  0.88188983  1  0  -0.204063  0  3.626921  0  0  -0.252188  0  3.87  0  0  -0.256453  0  3.88016  0  0  -0.069401  -0.249807  0  3.865472  0
C  C53  1  0.18097945  0.01606180  0.38189396  1  0  -0.203964  0  3.626681  0  0  -0.251956  0  3.869781  0  0  -0.256237  0  3.879987  0  0  -0.06941  -0.249587  0  3.865275  0
C  C54  1  0.68095638  0.48391697  0.11811030  1  0  -0.204106  0  3.626955  0  0  -0.252228  0  3.870022  0  0  -0.256493  0  3.880188  0  0  -0.069397  -0.249856  0  3.865501  0
C  C55  1  0.81902992  0.98392739  0.61810428  1  0  -0.204246  0  3.626941  0  0  -0.252232  0  3.870028  0  0  -0.256497  0  3.880213  0  0  -0.069397  -0.249864  0  3.865533  0
C  C56  1  0.27739595  0.72087830  0.91525857  1  0  0.758201  0  3.790415  0  0  0.710519  0  4.085062  0  0  0.746362  0  4.078774  0  0  0.238219  0.686356  0  4.09226  0
C  C57  1  0.22261950  0.22084408  0.41526823  1  0  0.75848  0  3.790059  0  0  0.710739  0  4.084741  0  0  0.746578  0  4.07847  0  0  0.238391  0.686576  0  4.091961  0
C  C58  1  0.72259359  0.27913316  0.08473859  1  0  0.758191  0  3.790384  0  0  0.710599  0  4.084858  0  0  0.746445  0  4.078575  0  0  0.238214  0.686446  0  4.092051  0
C  C59  1  0.77738834  0.77914215  0.58473408  1  0  0.758513  0  3.790032  0  0  0.710797  0  4.084673  0  0  0.746633  0  4.078397  0  0  0.238382  0.686633  0  4.091893  0
N  N60  1  0.50909971  0.50498137  0.84052364  1  0  -0.226799  0  3.341772  0  0  -0.155316  0  3.595002  0  0  -0.176447  0  3.621767  0  0  -0.385575  -0.146161  0  3.58045  0
N  N61  1  0.99090777  0.00495124  0.34053139  1  0  -0.227078  0  3.341868  0  0  -0.155695  0  3.59485  0  0  -0.176894  0  3.621585  0  0  -0.385633  -0.146544  0  3.580331  0
N  N62  1  0.49089289  0.49503008  0.15947712  1  0  -0.226732  0  3.341376  0  0  -0.155477  0  3.595127  0  0  -0.176635  0  3.621896  0  0  -0.385585  -0.146322  0  3.580593  0
N  N63  1  0.00909702  0.99503795  0.65946841  1  0  -0.226792  0  3.341667  0  0  -0.155402  0  3.594582  0  0  -0.176566  0  3.621324  0  0  -0.385605  -0.146257  0  3.58007  0
O  O64  1  0.81013217  0.44687327  0.93197307  1  0  -0.689615  0  1.962644  0  0  -0.637711  0  2.210955  0  0  -0.675329  0  2.195889  0  0  -0.378642  -0.620026  0  2.217216  0
O  O65  1  0.68987796  0.94683621  0.43197923  1  0  -0.689738  0  1.962465  0  0  -0.637824  0  2.210892  0  0  -0.675458  0  2.195839  0  0  -0.378751  -0.620145  0  2.217164  0
O  O66  1  0.18986500  0.55313521  0.06802608  1  0  -0.689654  0  1.962776  0  0  -0.637704  0  2.211042  0  0  -0.675336  0  2.195965  0  0  -0.378646  -0.620034  0  2.217293  0
O  O67  1  0.31013141  0.05315298  0.56802211  1  0  -0.689671  0  1.962524  0  0  -0.63775  0  2.210975  0  0  -0.675377  0  2.195911  0  0  -0.378659  -0.620076  0  2.217232  0
O  O68  1  0.82430672  0.11643974  0.90981416  1  0  -0.728492  0  1.982964  0  0  -0.670707  0  2.235817  0  0  -0.708797  0  2.217704  0  0  -0.369849  -0.652538  0  2.24394  0
O  O69  1  0.67570079  0.61641160  0.40981895  1  0  -0.728669  0  1.982659  0  0  -0.670927  0  2.235696  0  0  -0.709037  0  2.217591  0  0  -0.36995  -0.652762  0  2.243823  0
O  O70  1  0.17568893  0.88357023  0.09018503  1  0  -0.728536  0  1.98295  0  0  -0.670798  0  2.235889  0  0  -0.70891  0  2.21778  0  0  -0.369944  -0.652645  0  2.24401  0
O  O71  1  0.32430400  0.38358057  0.59018090  1  0  -0.728594  0  1.98285  0  0  -0.670835  0  2.235901  0  0  -0.708936  0  2.217794  0  0  -0.369925  -0.652674  0  2.244016  0
O  O72  1  0.55639493  0.88620628  0.80869500  1  0  -0.725812  0  2.115073  0  0  -0.672901  0  2.369529  0  0  -0.710267  0  2.358104  0  0  -0.379892  -0.654665  0  2.374585  0
O  O73  1  0.94359664  0.38618215  0.30870595  1  0  -0.726025  0  2.114453  0  0  -0.673016  0  2.369004  0  0  -0.710396  0  2.357585  0  0  -0.380081  -0.65479  0  2.374076  0
O  O74  1  0.44360987  0.11380518  0.19130319  1  0  -0.725668  0  2.115167  0  0  -0.672702  0  2.369614  0  0  -0.710071  0  2.358184  0  0  -0.379833  -0.654483  0  2.374682  0
O  O75  1  0.05640511  0.61381150  0.69129497  1  0  -0.726003  0  2.114425  0  0  -0.672973  0  2.369034  0  0  -0.71035  0  2.35762  0  0  -0.380052  -0.654749  0  2.374102  0
O  O76  1  0.41138083  0.84329758  0.70454955  1  0  -0.730883  0  2.057496  0  0  -0.679826  0  2.320783  0  0  -0.718932  0  2.307457  0  0  -0.394444  -0.661181  0  2.326105  0
O  O77  1  0.08860334  0.34328134  0.20456005  1  0  -0.730687  0  2.058067  0  0  -0.679559  0  2.3215  0  0  -0.718671  0  2.308192  0  0  -0.394225  -0.660912  0  2.326812  0
O  O78  1  0.58861329  0.15670942  0.29545061  1  0  -0.730802  0  2.057434  0  0  -0.679718  0  2.320761  0  0  -0.718829  0  2.307442  0  0  -0.394393  -0.661061  0  2.326083  0
O  O79  1  0.91139230  0.65671527  0.79543989  1  0  -0.730651  0  2.058042  0  0  -0.679499  0  2.321532  0  0  -0.718595  0  2.30823  0  0  -0.394205  -0.660853  0  2.326876  0
O  O80  1  0.09772373  0.78568803  0.91919261  1  0  -0.718971  0  2.084299  0  0  -0.662615  0  2.346415  0  0  -0.701441  0  2.329202  0  0  -0.394381  -0.644075  0  2.353509  0
O  O81  1  0.40228859  0.28565505  0.41920389  1  0  -0.71896  0  2.083978  0  0  -0.662714  0  2.346317  0  0  -0.701548  0  2.329095  0  0  -0.394395  -0.644184  0  2.353425  0
O  O82  1  0.90226582  0.21432491  0.08080354  1  0  -0.718857  0  2.084105  0  0  -0.662579  0  2.346276  0  0  -0.70142  0  2.329056  0  0  -0.394358  -0.644062  0  2.353373  0
O  O83  1  0.59771773  0.71432672  0.58080039  1  0  -0.718921  0  2.083983  0  0  -0.662671  0  2.346289  0  0  -0.701501  0  2.32907  0  0  -0.394371  -0.644149  0  2.353397  0
O  O84  1  0.42960685  0.81936490  0.94075851  1  0  -0.726621  0  2.025696  0  0  -0.667034  0  2.272011  0  0  -0.706484  0  2.258231  0  0  -0.383328  -0.647492  0  2.278452  0
O  O85  1  0.07040548  0.31933831  0.44076571  1  0  -0.726758  0  2.025565  0  0  -0.667073  0  2.271889  0  0  -0.706535  0  2.258116  0  0  -0.383396  -0.64753  0  2.278338  0
O  O86  1  0.57037965  0.18064803  0.05923867  1  0  -0.726666  0  2.025613  0  0  -0.667072  0  2.27194  0  0  -0.706542  0  2.258163  0  0  -0.383325  -0.647542  0  2.278374  0
O  O87  1  0.92960389  0.68065089  0.55923408  1  0  -0.726806  0  2.025521  0  0  -0.667151  0  2.271901  0  0  -0.706609  0  2.258122  0  0  -0.383446  -0.647615  0  2.278346  0
O  O88  1  0.78213107  0.83271053  0.01793182  1  0  -0.890701  0  1.897175  0  0  -0.841124  0  2.106787  0  0  -0.872287  0  2.064814  0  0  -0.633315  -0.827266  0  2.130882  0
O  O89  1  0.71788109  0.33271951  0.51793949  1  0  -0.890632  0  1.897148  0  0  -0.840975  0  2.106876  0  0  -0.872149  0  2.064908  0  0  -0.633262  -0.827123  0  2.130981  0
O  O90  1  0.21786152  0.16729351  0.98206725  1  0  -0.890628  0  1.897172  0  0  -0.841028  0  2.106861  0  0  -0.872202  0  2.064895  0  0  -0.633289  -0.827184  0  2.130947  0
O  O91  1  0.28213133  0.66727413  0.48206142  1  0  -0.890595  0  1.897321  0  0  -0.840983  0  2.106899  0  0  -0.872151  0  2.064929  0  0  -0.633305  -0.827134  0  2.130991  0
