# generated using pymatgen
data_Tb2U3H26(C3O4)10
_symmetry_space_group_name_H-M   'P 1'
_cell_length_a   10.55694116
_cell_length_b   11.45981877
_cell_length_c   13.43060000
_cell_angle_alpha   69.04627301
_cell_angle_beta   78.55741481
_cell_angle_gamma   63.11118446
_symmetry_Int_Tables_number   1
_chemical_formula_structural   Tb2U3H26(C3O4)10
_chemical_formula_sum   'Tb2 U3 H26 C30 O40'
_cell_volume   1352.02854279
_cell_formula_units_Z   1
loop_
 _symmetry_equiv_pos_site_id
 _symmetry_equiv_pos_as_xyz
  1  'x, y, z'
loop_
 _atom_site_type_symbol
 _atom_site_label
 _atom_site_symmetry_multiplicity
 _atom_site_fract_x
 _atom_site_fract_y
 _atom_site_fract_z
 _atom_site_occupancy
 _atom_site_hle17_bader_spin_density
 _atom_site_hle17_ddec_charge
 _atom_site_hle17_ddec_spin_density
 _atom_site_hle17_ddec_sum_bond_order
 _atom_site_hle17_magmom
 _atom_site_hse06_10hf_bader_spin_density
 _atom_site_hse06_10hf_ddec_charge
 _atom_site_hse06_10hf_ddec_spin_density
 _atom_site_hse06_10hf_ddec_sum_bond_order
 _atom_site_hse06_10hf_magmom
 _atom_site_hse06_bader_spin_density
 _atom_site_hse06_ddec_charge
 _atom_site_hse06_ddec_spin_density
 _atom_site_hse06_ddec_sum_bond_order
 _atom_site_hse06_magmom
 _atom_site_pbe_bader_charge
 _atom_site_pbe_bader_spin_density
 _atom_site_pbe_cm5_charge
 _atom_site_pbe_ddec_charge
 _atom_site_pbe_ddec_spin_density
 _atom_site_pbe_ddec_sum_bond_order
 _atom_site_pbe_magmom
Tb  Tb0  1  0.58446395  0.24864350  0.74277179  1  0  2.329266  0  1.553416  0  0  2.259535  0  1.879869  0  0  2.300464  0  1.839042  0  2.21604  0  1.506984  2.155187  0  2.047181  0
Tb  Tb1  1  0.41553566  0.75135548  0.25722873  1  0  2.329261  0  1.553474  0  0  2.25954  0  1.87993  0  0  2.300474  0  1.839099  0  2.21608  0  1.506959  2.15513  0  2.047336  0
U  U2  1  0.61989219  0.71549080  0.84109889  1  0  2.465933  0  4.136909  0  0  2.522344  0  4.791575  0  0  2.628159  0  4.759117  0  2.921811  0  2.202196  2.446745  0  4.816171  0
U  U3  1  0.38010750  0.28451024  0.15890248  1  0  2.466069  0  4.137295  0  0  2.522478  0  4.791905  0  0  2.628251  0  4.759516  0  2.921777  0  2.202293  2.446793  0  4.816644  0
U  U4  1  0.99999116  0.50000258  0.49998920  1  0  2.445616  0  4.022518  0  0  2.496713  0  4.665492  0  0  2.608468  0  4.633712  0  2.906345  0  2.157173  2.417519  0  4.690569  0
H  H5  1  0.65451651  0.21144159  0.53229616  1  0  0.436939  0  0.867537  0  0  0.400907  0  0.939019  0  0  0.41225  0  0.922696  0  0.656826  0  0.295485  0.393069  0  0.949942  0
H  H6  1  0.34548363  0.78855842  0.46770545  1  0  0.436937  0  0.867544  0  0  0.400895  0  0.939046  0  0  0.412241  0  0.922719  0  0.656864  0  0.295478  0.393059  0  0.949967  0
H  H7  1  0.71623482  0.06269459  0.61966783  1  0  0.453179  0  0.797517  0  0  0.433994  0  0.851498  0  0  0.442012  0  0.839789  0  0.640323  0  0.332356  0.428185  0  0.85978  0
H  H8  1  0.28376391  0.93730646  0.38033146  1  0  0.453163  0  0.797538  0  0  0.433974  0  0.851525  0  0  0.441991  0  0.839818  0  0.640313  0  0.332345  0.428164  0  0.859808  0
H  H9  1  0.55239031  0.52644601  0.59035834  1  0  0.430945  0  0.874282  0  0  0.399391  0  0.939393  0  0  0.409876  0  0.924162  0  0.643665  0  0.304917  0.391926  0  0.95001  0
H  H10  1  0.44760648  0.47355503  0.40964274  1  0  0.430951  0  0.874272  0  0  0.399395  0  0.939386  0  0  0.40988  0  0.924157  0  0.643655  0  0.304907  0.391928  0  0.950007  0
H  H11  1  0.71612732  0.41732766  0.59653419  1  0  0.436276  0  0.866905  0  0  0.405246  0  0.930875  0  0  0.417366  0  0.913111  0  0.653688  0  0.30899  0.397022  0  0.942543  0
H  H12  1  0.28386850  0.58267338  0.40346629  1  0  0.436263  0  0.866924  0  0  0.405249  0  0.930864  0  0  0.41737  0  0.913099  0  0.653651  0  0.308975  0.397026  0  0.942531  0
H  H13  1  0.37619785  0.47119612  0.58048855  1  0  0.453816  0  0.815926  0  0  0.428067  0  0.876407  0  0  0.438001  0  0.861636  0  0.643773  0  0.322873  0.420461  0  0.887603  0
H  H14  1  0.62379656  0.52880595  0.41951258  1  0  0.453805  0  0.815974  0  0  0.428064  0  0.876417  0  0  0.437997  0  0.861648  0  0.643781  0  0.322891  0.420455  0  0.887616  0
H  H15  1  0.27021599  0.41331597  0.65272857  1  0  0.463343  0  0.814334  0  0  0.440713  0  0.86212  0  0  0.450406  0  0.847891  0  0.642722  0  0.317574  0.433435  0  0.872743  0
H  H16  1  0.72978257  0.58668095  0.34727051  1  0  0.4633  0  0.814363  0  0  0.440632  0  0.862204  0  0  0.45032  0  0.847982  0  0.642674  0  0.31757  0.433354  0  0.872825  0
H  H17  1  0.49669132  0.52156168  0.78593337  1  0  0.450887  0  0.835545  0  0  0.421195  0  0.896081  0  0  0.432765  0  0.878933  0  0.651597  0  0.312624  0.412602  0  0.908636  0
H  H18  1  0.50331215  0.47843731  0.21406730  1  0  0.45083  0  0.835632  0  0  0.421203  0  0.896097  0  0  0.432777  0  0.878938  0  0.651598  0  0.312603  0.412609  0  0.908654  0
H  H19  1  0.49429166  0.41005564  0.89817844  1  0  0.464455  0  0.813946  0  0  0.441632  0  0.862672  0  0  0.451958  0  0.847215  0  0.638045  0  0.318135  0.434055  0  0.873857  0
H  H20  1  0.50571226  0.58994231  0.10182098  1  0  0.464471  0  0.813909  0  0  0.441657  0  0.862623  0  0  0.451981  0  0.847167  0  0.63805  0  0.318142  0.43408  0  0.873806  0
H  H21  1  0.73394867  0.93924395  0.87039938  1  0  0.450305  0  0.841795  0  0  0.419706  0  0.903477  0  0  0.430341  0  0.887998  0  0.656778  0  0.310645  0.411645  0  0.915116  0
H  H22  1  0.26605102  0.06075709  0.12960199  1  0  0.450292  0  0.841809  0  0  0.419691  0  0.903494  0  0  0.430326  0  0.888014  0  0.656802  0  0.310635  0.411628  0  0.915135  0
H  H23  1  0.83443658  0.01671486  0.85343237  1  0  0.447383  0  0.804632  0  0  0.431256  0  0.850475  0  0  0.439331  0  0.83886  0  0.622092  0  0.335958  0.425034  0  0.85928  0
H  H24  1  0.16556222  0.98328824  0.14656628  1  0  0.447373  0  0.804662  0  0  0.431241  0  0.850502  0  0  0.439315  0  0.838888  0  0.622106  0  0.335938  0.425018  0  0.859309  0
H  H25  1  0.09129872  0.36960470  0.96845996  1  0  0.137505  0  0.936102  0  0  0.145297  0  0.997906  0  0  0.150199  0  0.993501  0  0.166914  0  0.123674  0.141533  0  1.001527  0
H  H26  1  0.90870415  0.63039120  0.03153726  1  0  0.137492  0  0.936068  0  0  0.145305  0  0.997854  0  0  0.150202  0  0.993446  0  0.166868  0  0.123686  0.141543  0  1.001469  0
H  H27  1  0.15437954  0.10956751  0.72219983  1  0  0.119645  0  0.939245  0  0  0.130409  0  0.99628  0  0  0.134521  0  0.993765  0  0.097989  0  0.116237  0.127311  0  0.998747  0
H  H28  1  0.84562132  0.89042633  0.27779983  1  0  0.119679  0  0.939273  0  0  0.130474  0  0.996265  0  0  0.134586  0  0.993747  0  0.097558  0  0.116252  0.127376  0  0.998734  0
H  H29  1  0.72929915  0.00106999  0.41207830  1  0  0.119239  0  0.924739  0  0  0.132855  0  0.976097  0  0  0.136895  0  0.973485  0  0.087906  0  0.118834  0.129624  0  0.978665  0
H  H30  1  0.27069719  0.99893208  0.58792551  1  0  0.119213  0  0.924716  0  0  0.132845  0  0.976057  0  0  0.136885  0  0.973441  0  0.087841  0  0.118802  0.129599  0  0.978642  0
C  C31  1  0.99113804  0.34328873  0.85851634  1  0  -0.058695  0  3.730794  0  0  -0.044258  0  3.962228  0  0  -0.051374  0  3.981549  0  0.014789  0  -0.000958  -0.039323  0  3.949447  0
C  C32  1  0.00886330  0.65671745  0.14148245  1  0  -0.058843  0  3.730733  0  0  -0.044421  0  3.962232  0  0  -0.051538  0  3.981551  0  0.014811  0  -0.001072  -0.039486  0  3.949453  0
C  C33  1  0.10636814  0.31262598  0.91393664  1  0  -0.044088  0  3.654909  0  0  -0.0796  0  3.901635  0  0  -0.075989  0  3.917198  0  -0.009028  0  -0.058085  -0.081861  0  3.891489  0
C  C34  1  0.89363244  0.68737301  0.08606298  1  0  -0.044021  0  3.654751  0  0  -0.079574  0  3.901492  0  0  -0.075952  0  3.917045  0  -0.009242  0  -0.058069  -0.081837  0  3.891348  0
C  C35  1  0.24150343  0.21616352  0.89513489  1  0  -0.100107  0  3.739735  0  0  -0.090811  0  3.981786  0  0  -0.098342  0  4.001402  0  -0.020541  0  -0.006141  -0.085498  0  3.96772  0
C  C36  1  0.75849320  0.78383341  0.10486970  1  0  -0.100136  0  3.739715  0  0  -0.090775  0  3.981725  0  0  -0.098305  0  4.001334  0  -0.020335  0  -0.006096  -0.08547  0  3.967657  0
C  C37  1  0.25915617  0.14614655  0.82243090  1  0  -0.029693  0  3.691517  0  0  -0.017986  0  3.926873  0  0  -0.018751  0  3.943944  0  -0.028249  0  0.011425  -0.017254  0  3.915286  0
C  C38  1  0.74084328  0.85384832  0.17757313  1  0  -0.029576  0  3.691827  0  0  -0.017886  0  3.927154  0  0  -0.018646  0  3.944234  0  -0.028252  0  0.011524  -0.01713  0  3.915537  0
C  C39  1  0.14054458  0.16734179  0.77555748  1  0  -0.091212  0  3.688599  0  0  -0.126621  0  3.942635  0  0  -0.129048  0  3.960066  0  0.051583  0  -0.071346  -0.125541  0  3.932131  0
C  C40  1  0.85945168  0.83265822  0.22444250  1  0  -0.091271  0  3.68867  0  0  -0.126705  0  3.942698  0  0  -0.129132  0  3.960124  0  0.051987  0  -0.071383  -0.125634  0  3.932192  0
C  C41  1  0.00683336  0.26771932  0.79077509  1  0  -0.025148  0  3.683481  0  0  -0.020024  0  3.925492  0  0  -0.020802  0  3.942523  0  -0.060772  0  0.016357  -0.020055  0  3.915369  0
C  C42  1  0.99316790  0.73228480  0.20922435  1  0  -0.025092  0  3.683367  0  0  -0.019962  0  3.925417  0  0  -0.020742  0  3.942449  0  -0.060842  0  0.016407  -0.019996  0  3.915291  0
C  C43  1  0.62768982  0.00198580  0.45014898  1  0  -0.073728  0  3.676471  0  0  -0.108819  0  3.929466  0  0  -0.108409  0  3.946389  0  0.021876  0  -0.065714  -0.109318  0  3.918979  0
C  C44  1  0.37230520  0.99801935  0.54985410  1  0  -0.073688  0  3.676304  0  0  -0.108799  0  3.929319  0  0  -0.108388  0  3.946246  0  0.021799  0  -0.065662  -0.109289  0  3.91884  0
C  C45  1  0.62134714  0.87602208  0.50794662  1  0  -0.028889  0  3.694482  0  0  -0.013685  0  3.925304  0  0  -0.017179  0  3.942769  0  0.003545  0  0.007625  -0.011285  0  3.913766  0
C  C46  1  0.37865025  0.12398205  0.49205640  1  0  -0.028853  0  3.694657  0  0  -0.013634  0  3.925446  0  0  -0.017134  0  3.942917  0  0.003746  0  0.007608  -0.011233  0  3.913903  0
C  C47  1  0.49190136  0.87390471  0.55879036  1  0  -0.062829  0  3.704364  0  0  -0.057343  0  3.954167  0  0  -0.060771  0  3.972202  0  -0.029286  0  0.009058  -0.055268  0  3.942522  0
C  C48  1  0.50809744  0.12609839  0.44121424  1  0  -0.06299  0  3.70472  0  0  -0.05747  0  3.954449  0  0  -0.060899  0  3.972487  0  -0.029018  0  0.009057  -0.055396  0  3.942811  0
C  C49  1  0.85717594  0.46389224  0.86435802  1  0  0.634905  0  3.887288  0  0  0.597174  0  4.186509  0  0  0.633583  0  4.180221  0  1.535832  0  0.211895  0.572107  0  4.189943  0
C  C50  1  0.14283245  0.53610880  0.13563679  1  0  0.635121  0  3.887305  0  0  0.597348  0  4.186543  0  0  0.633759  0  4.180252  0  1.535801  0  0.212014  0.572281  0  4.189968  0
C  C51  1  0.36042226  0.19156816  0.95540092  1  0  0.725654  0  3.81735  0  0  0.682984  0  4.111373  0  0  0.720151  0  4.098681  0  1.566936  0  0.256076  0.657068  0  4.11707  0
C  C52  1  0.63958299  0.80842671  0.04459997  1  0  0.725555  0  3.817143  0  0  0.682822  0  4.111246  0  0  0.719991  0  4.098554  0  1.566958  0  0.255983  0.656905  0  4.116947  0
C  C53  1  0.40159795  0.04844348  0.79138561  1  0  0.720968  0  3.851591  0  0  0.679786  0  4.153298  0  0  0.716507  0  4.140703  0  1.611916  0  0.24621  0.653918  0  4.159606  0
C  C54  1  0.59841116  0.95155139  0.20861245  1  0  0.720813  0  3.85204  0  0  0.67966  0  4.153704  0  0  0.716358  0  4.141151  0  1.611846  0  0.246071  0.653783  0  4.160007  0
C  C55  1  0.88689197  0.29390477  0.72936369  1  0  0.742333  0  3.805413  0  0  0.699918  0  4.098582  0  0  0.738786  0  4.082536  0  1.629197  0  0.256708  0.672659  0  4.107087  0
C  C56  1  0.11310450  0.70608805  0.27064069  1  0  0.742414  0  3.805305  0  0  0.699931  0  4.098607  0  0  0.738803  0  4.082559  0  1.629212  0  0.256761  0.672685  0  4.107087  0
C  C57  1  0.47516314  0.74303814  0.62205200  1  0  0.714041  0  3.81923  0  0  0.662904  0  4.122927  0  0  0.70063  0  4.10944  0  1.6086  0  0.251127  0.636954  0  4.1319  0
C  C58  1  0.52483357  0.25696084  0.37795046  1  0  0.714132  0  3.819126  0  0  0.662992  0  4.122815  0  0  0.700717  0  4.109327  0  1.608326  0  0.251081  0.637036  0  4.131793  0
C  C59  1  0.75273101  0.74721326  0.51265970  1  0  0.631958  0  3.898486  0  0  0.591671  0  4.204495  0  0  0.627669  0  4.198171  0  1.553698  0  0.210793  0.567141  0  4.208027  0
C  C60  1  0.24726534  0.25278881  0.48733815  1  0  0.631968  0  3.898496  0  0  0.591689  0  4.204481  0  0  0.62769  0  4.198162  0  1.553667  0  0.210816  0.567159  0  4.208014  0
O  O61  1  0.52860323  0.63736822  0.95604625  1  0  -0.723189  0  1.560502  0  0  -0.725005  0  1.829391  0  0  -0.745905  0  1.813221  0  -0.888438  0  -0.74756  -0.712499  0  1.841989  0
O  O62  1  0.47140499  0.36262870  0.04395355  1  0  -0.723245  0  1.56052  0  0  -0.725055  0  1.829403  0  0  -0.745952  0  1.813248  0  -0.888194  0  -0.747534  -0.71253  0  1.842017  0
O  O63  1  0.71439402  0.79337697  0.73067404  1  0  -0.693133  0  1.533945  0  0  -0.701964  0  1.806774  0  0  -0.722134  0  1.795  0  -0.855084  0  -0.757442  -0.690562  0  1.816238  0
O  O64  1  0.28561357  0.20662818  0.26931814  1  0  -0.693146  0  1.5344  0  0  -0.701964  0  1.807241  0  0  -0.722128  0  1.795482  0  -0.855341  0  -0.757544  -0.690548  0  1.816728  0
O  O65  1  0.08457384  0.48828203  0.61108740  1  0  -0.72935  0  1.578084  0  0  -0.725482  0  1.849028  0  0  -0.746989  0  1.836778  0  -0.887168  0  -0.74786  -0.712076  0  1.859166  0
O  O66  1  0.91542778  0.51171901  0.38891665  1  0  -0.729175  0  1.579007  0  0  -0.725246  0  1.850016  0  0  -0.746735  0  1.837755  0  -0.887293  0  -0.748145  -0.711852  0  1.860161  0
O  O67  1  0.84560514  0.54021403  0.91887323  1  0  -0.615119  0  1.929464  0  0  -0.602069  0  2.170568  0  0  -0.634111  0  2.165266  0  -1.134819  0  -0.344631  -0.57848  0  2.173315  0
O  O68  1  0.15440370  0.45978599  0.08111958  1  0  -0.615183  0  1.929467  0  0  -0.602136  0  2.170584  0  0  -0.634176  0  2.165284  0  -1.134827  0  -0.344672  -0.578538  0  2.173335  0
O  O69  1  0.75381736  0.49686867  0.80879871  1  0  -0.60414  0  2.024751  0  0  -0.58904  0  2.283689  0  0  -0.621749  0  2.281555  0  -1.123121  0  -0.336741  -0.565614  0  2.284042  0
O  O70  1  0.24619014  0.50313443  0.19119784  1  0  -0.604324  0  2.025019  0  0  -0.589102  0  2.283874  0  0  -0.62181  0  2.281737  0  -1.123025  0  -0.336745  -0.565669  0  2.284235  0
O  O71  1  0.80321836  0.23746772  0.77551140  1  0  -0.71082  0  2.007522  0  0  -0.675192  0  2.246242  0  0  -0.700924  0  2.231798  0  -1.186451  0  -0.374489  -0.646328  0  2.258634  0
O  O72  1  0.19678378  0.76253435  0.22448629  1  0  -0.710945  0  2.007127  0  0  -0.675295  0  2.245885  0  0  -0.70103  0  2.231439  0  -1.186339  0  -0.3746  -0.646423  0  2.258272  0
O  O73  1  0.88151194  0.36457956  0.63066884  1  0  -0.648914  0  2.108296  0  0  -0.616583  0  2.360473  0  0  -0.650189  0  2.352216  0  -1.161382  0  -0.332265  -0.592525  0  2.365095  0
O  O74  1  0.11848775  0.63542148  0.36933029  1  0  -0.648906  0  2.108588  0  0  -0.616544  0  2.360799  0  0  -0.650153  0  2.352539  0  -1.161465  0  -0.332234  -0.592496  0  2.365418  0
O  O75  1  0.41596196  0.92497742  0.81339461  1  0  -0.658519  0  2.008097  0  0  -0.651845  0  2.275628  0  0  -0.685745  0  2.268754  0  -1.157774  0  -0.37124  -0.626765  0  2.280122  0
O  O76  1  0.58403882  0.07501437  0.18660867  1  0  -0.658432  0  2.008257  0  0  -0.651767  0  2.27577  0  0  -0.685646  0  2.268904  0  -1.157714  0  -0.371208  -0.626677  0  2.280271  0
O  O77  1  0.49448383  0.09197899  0.74410014  1  0  -0.714554  0  2.067089  0  0  -0.680918  0  2.321859  0  0  -0.707965  0  2.312817  0  -1.18251  0  -0.364039  -0.651388  0  2.329736  0
O  O78  1  0.50551243  0.90802102  0.25590207  1  0  -0.714561  0  2.067054  0  0  -0.680935  0  2.321797  0  0  -0.707983  0  2.312779  0  -1.182496  0  -0.363998  -0.651392  0  2.329679  0
O  O79  1  0.47941928  0.18316037  0.91174283  1  0  -0.691367  0  2.060781  0  0  -0.655775  0  2.310025  0  0  -0.679829  0  2.297716  0  -1.174962  0  -0.363439  -0.627483  0  2.319704  0
O  O80  1  0.52057558  0.81684067  0.08825855  1  0  -0.691294  0  2.060516  0  0  -0.655687  0  2.309794  0  0  -0.679744  0  2.297487  0  -1.175001  0  -0.363394  -0.627385  0  2.319477  0
O  O81  1  0.33049328  0.18183341  0.05563967  1  0  -0.691504  0  2.078362  0  0  -0.659971  0  2.338018  0  0  -0.693874  0  2.330846  0  -1.17863  0  -0.368208  -0.63592  0  2.34323  0
O  O82  1  0.66950589  0.81816660  0.94435986  1  0  -0.6915  0  2.078386  0  0  -0.659939  0  2.338056  0  0  -0.693846  0  2.330883  0  -1.178607  0  -0.368206  -0.6359  0  2.343261  0
O  O83  1  0.49759545  0.69345786  0.72217175  1  0  -0.666361  0  2.063675  0  0  -0.635862  0  2.321402  0  0  -0.669476  0  2.312429  0  -1.1664  0  -0.354334  -0.61194  0  2.32708  0
O  O84  1  0.50241129  0.30653804  0.27783232  1  0  -0.666259  0  2.063595  0  0  -0.635842  0  2.321412  0  0  -0.669451  0  2.312434  0  -1.166317  0  -0.354271  -0.611911  0  2.327104  0
O  O85  1  0.43105736  0.69075668  0.57591573  1  0  -0.598155  0  1.99624  0  0  -0.534286  0  2.20144  0  0  -0.560422  0  2.189191  0  -1.170353  0  -0.279775  -0.516608  0  2.209998  0
O  O86  1  0.56893476  0.30924847  0.42408631  1  0  -0.598237  0  1.996092  0  0  -0.53437  0  2.201298  0  0  -0.560509  0  2.189051  0  -1.170349  0  -0.279795  -0.516679  0  2.209852  0
O  O87  1  0.74841596  0.63018254  0.55727062  1  0  -0.615337  0  2.0234  0  0  -0.599353  0  2.286383  0  0  -0.631979  0  2.285094  0  -1.137988  0  -0.325735  -0.576312  0  2.287071  0
O  O88  1  0.25157934  0.36981747  0.44272431  1  0  -0.615327  0  2.02341  0  0  -0.59938  0  2.286461  0  0  -0.631982  0  2.285111  0  -1.137979  0  -0.325702  -0.576337  0  2.287146  0
O  O89  1  0.87006469  0.75244500  0.46924256  1  0  -0.612525  0  1.962537  0  0  -0.599185  0  2.208698  0  0  -0.631744  0  2.205481  0  -1.133135  0  -0.33687  -0.576141  0  2.210569  0
O  O90  1  0.12992936  0.24756015  0.53075471  1  0  -0.612574  0  1.96253  0  0  -0.59924  0  2.208698  0  0  -0.631802  0  2.205481  0  -1.133138  0  -0.33693  -0.576195  0  2.210567  0
O  O91  1  0.70453456  0.15725141  0.60170158  1  0  -0.900994  0  1.821506  0  0  -0.863868  0  2.000965  0  0  -0.881452  0  1.970274  0  -1.261755  0  -0.646035  -0.841395  0  2.028591  0
O  O92  1  0.29546416  0.84274963  0.39829845  1  0  -0.900983  0  1.821519  0  0  -0.863852  0  2.000988  0  0  -0.881438  0  1.970296  0  -1.261747  0  -0.646016  -0.84137  0  2.028617  0
O  O93  1  0.61686874  0.43023126  0.59128280  1  0  -0.905847  0  1.85571  0  0  -0.853831  0  2.040265  0  0  -0.874902  0  2.007179  0  -1.279589  0  -0.62881  -0.830102  0  2.067305  0
O  O94  1  0.38312857  0.56977081  0.40871863  1  0  -0.905864  0  1.855725  0  0  -0.85385  0  2.040262  0  0  -0.874924  0  2.007175  0  -1.279558  0  -0.628802  -0.830113  0  2.067307  0
O  O95  1  0.37024645  0.39982548  0.64629386  1  0  -0.919803  0  1.816106  0  0  -0.884694  0  1.995592  0  0  -0.900934  0  1.963097  0  -1.258418  0  -0.631846  -0.861971  0  2.024729  0
O  O96  1  0.62974648  0.60017556  0.35370633  1  0  -0.919731  0  1.816131  0  0  -0.884591  0  1.995642  0  0  -0.900826  0  1.963149  0  -1.258348  0  -0.631844  -0.861864  0  2.024795  0
O  O97  1  0.49790852  0.42902560  0.82007043  1  0  -0.94053  0  1.832492  0  0  -0.90371  0  2.005259  0  0  -0.920623  0  1.970288  0  -1.262936  0  -0.642656  -0.880564  0  2.035889  0
O  O98  1  0.50209302  0.57097339  0.17993054  1  0  -0.940512  0  1.832578  0  0  -0.903768  0  2.005204  0  0  -0.920682  0  1.970235  0  -1.262945  0  -0.642637  -0.880611  0  2.035837  0
O  O99  1  0.75451309  0.01938109  0.82574417  1  0  -0.897245  0  1.855587  0  0  -0.85762  0  2.031231  0  0  -0.874559  0  2.000174  0  -1.242528  0  -0.626981  -0.836404  0  2.059127  0
O  O100  1  0.24548704  0.98061892  0.17425521  1  0  -0.897227  0  1.855616  0  0  -0.857596  0  2.031257  0  0  -0.874533  0  2.000202  0  -1.242564  0  -0.62696  -0.83637  0  2.059159  0
