# generated using pymatgen
data_AlH3C8(NO5)2
_symmetry_space_group_name_H-M   'P 1'
_cell_length_a   6.63465245
_cell_length_b   8.80515711
_cell_length_c   11.16925118
_cell_angle_alpha   85.04268804
_cell_angle_beta   71.09713057
_cell_angle_gamma   74.73876282
_symmetry_Int_Tables_number   1
_chemical_formula_structural   AlH3C8(NO5)2
_chemical_formula_sum   'Al2 H6 C16 N4 O20'
_cell_volume   595.53904328
_cell_formula_units_Z   2
loop_
 _symmetry_equiv_pos_site_id
 _symmetry_equiv_pos_as_xyz
  1  'x, y, z'
loop_
 _atom_site_type_symbol
 _atom_site_label
 _atom_site_symmetry_multiplicity
 _atom_site_fract_x
 _atom_site_fract_y
 _atom_site_fract_z
 _atom_site_occupancy
 _atom_site_pbe_bader_charge
 _atom_site_pbe_bader_spin_density
 _atom_site_pbe_cm5_charge
 _atom_site_pbe_ddec_charge
 _atom_site_pbe_ddec_spin_density
 _atom_site_pbe_ddec_sum_bond_order
 _atom_site_pbe_magmom
Al  Al0  1  0.50687430  0.49758360  0.50241639  1  2.50277  0  0.396658  1.638707  0  2.58102  0
Al  Al1  1  0.00525605  0.49499772  0.50472122  1  2.501785  0  0.395062  1.646502  0  2.566875  0
H  H2  1  0.80735767  0.59447208  0.35472913  1  0.666526  0  0.340516  0.424881  0  0.882543  0
H  H3  1  0.26246036  0.32762084  0.60288706  1  0.645806  0  0.339784  0.420736  0  0.891395  0
H  H4  1  0.26449301  0.23021305  0.22202972  1  0.136656  0  0.130911  0.14752  0  0.979745  0
H  H5  1  0.31075679  0.37972521  0.77571267  1  0.17879  0  0.131004  0.140145  0  1.040135  0
H  H6  1  0.76527350  0.86943060  0.53402162  1  0.632724  0  0.325234  0.369143  0  0.921925  0
H  H7  1  0.23183632  0.12131146  0.47734317  1  0.622353  0  0.317591  0.352815  0  0.955021  0
C  C8  1  0.40134584  0.46197394  0.27651964  1  1.643486  0  0.272202  0.64117  0  4.110764  0
C  C9  1  0.15749380  0.77648224  0.49431903  1  1.578368  0  0.266263  0.615006  0  4.086873  0
C  C10  1  0.60754155  0.53712709  0.72843087  1  1.65491  0  0.275004  0.64003  0  4.118619  0
C  C11  1  0.84808988  0.21291009  0.51740745  1  1.525668  0  0.264159  0.612614  0  4.074613  0
C  C12  1  0.89485743  0.04061924  0.51751305  1  0.663596  0  0.073011  0.053093  0  4.055271  0
C  C13  1  0.10792282  0.94860338  0.49501774  1  0.529439  0  0.071033  0.048551  0  4.049714  0
C  C14  1  0.46803310  0.47038347  0.13410753  1  0.086789  0  0.018186  -0.082705  0  3.847409  0
C  C15  1  0.38225843  0.38672201  0.06634992  1  0.013559  0  0.02464  0.096987  0  3.906949  0
C  C16  1  0.58967950  0.57469368  0.06887673  1  0.265813  0  0.098947  0.021031  0  3.900894  0
C  C17  1  0.27542153  0.26652457  0.12497378  1  0.110589  0  -0.049818  -0.118082  0  3.845404  0
C  C18  1  0.19117684  0.18957745  0.05831902  1  0.255865  0  0.09623  0.04679  0  3.918949  0
C  C19  1  0.53652793  0.52806729  0.87105988  1  0.120236  0  0.026181  -0.062191  0  3.834681  0
C  C20  1  0.62114983  0.60483707  0.93898657  1  0.20053  0  0.097208  0.017874  0  3.903246  0
C  C21  1  0.41104344  0.41945963  0.93478799  1  0.064177  0  0.023603  0.088676  0  3.907131  0
C  C22  1  0.31058516  0.34378401  0.87113424  1  -0.014395  0  -0.053121  -0.123836  0  3.866366  0
C  C23  1  0.19969400  0.23409757  0.93213642  1  0.275712  0  0.091444  0.033713  0  3.924597  0
N  N24  1  0.74410685  0.72232905  0.87418485  1  0.417828  0  0.061911  0.510168  0  4.221475  0
N  N25  1  0.67331316  0.66736925  0.13905992  1  0.451376  0  0.067784  0.511819  0  4.236986  0
N  N26  1  0.11356688  0.04969536  0.11627616  1  0.414422  0  0.06064  0.513531  0  4.238971  0
N  N27  1  0.06755790  0.18097316  0.86835718  1  0.374078  0  0.068797  0.526548  0  4.200479  0
O  O28  1  0.54941810  0.44033483  0.32884620  1  -1.241392  0  -0.225824  -0.565716  0  2.343585  0
O  O29  1  0.99583965  0.71162192  0.51544079  1  -1.249932  0  -0.230665  -0.59471  0  2.38349  0
O  O30  1  0.81485554  0.50456292  0.67709371  1  -1.254657  0  -0.225031  -0.574773  0  2.360037  0
O  O31  1  0.64916792  0.29051541  0.53922955  1  -1.264964  0  -0.231325  -0.574294  0  2.374064  0
O  O32  1  0.46303245  0.56251192  0.67340920  1  -1.247237  0  -0.216044  -0.541144  0  2.333353  0
O  O33  1  0.01235437  0.27602228  0.49587478  1  -1.249459  0  -0.237816  -0.614446  0  2.41011  0
O  O34  1  0.19548551  0.48456343  0.33028463  1  -1.249684  0  -0.220785  -0.568732  0  2.35569  0
O  O35  1  0.35717944  0.70119021  0.47118037  1  -1.257276  0  -0.227006  -0.566192  0  2.382479  0
O  O36  1  0.77093278  0.55506115  0.44141849  1  -1.469475  0  -0.450779  -0.996112  0  2.201065  0
O  O37  1  0.24633040  0.43135275  0.56346552  1  -1.450602  0  -0.451797  -1.000325  0  2.206913  0
O  O38  1  0.71528936  0.98600750  0.53817959  1  -1.091791  0  -0.332348  -0.373268  0  2.355358  0
O  O39  1  0.28736814  0.00497375  0.47109184  1  -1.092358  0  -0.337837  -0.376468  0  2.354859  0
O  O40  1  0.66521714  0.81558220  0.80242148  1  -0.407833  0  -0.095152  -0.283351  0  1.930998  0
O  O41  1  0.91526587  0.71780897  0.89799316  1  -0.422447  0  -0.109799  -0.295365  0  1.909768  0
O  O42  1  0.84549479  0.60126201  0.16211445  1  -0.426966  0  -0.089172  -0.29106  0  1.98973  0
O  O43  1  0.56063186  0.80174512  0.17029826  1  -0.416426  0  -0.092316  -0.268397  0  1.897763  0
O  O44  1  0.00423275  0.05698735  0.22953891  1  -0.434364  0  -0.110292  -0.303077  0  1.932256  0
O  O45  1  0.17232272  0.93367080  0.04661800  1  -0.436505  0  -0.122517  -0.320265  0  1.933845  0
O  O46  1  0.13861151  0.16763271  0.75180581  1  -0.429831  0  -0.101441  -0.298644  0  1.952929  0
O  O47  1  0.88782033  0.16053998  0.93666749  1  -0.426257  0  -0.12312  -0.324898  0  1.925247  0
