# generated using pymatgen
data_Zn2H5C9O7F
_symmetry_space_group_name_H-M   'P 1'
_cell_length_a   18.70826721
_cell_length_b   18.79390954
_cell_length_c   26.45859235
_cell_angle_alpha   89.90215283
_cell_angle_beta   90.15271481
_cell_angle_gamma   89.93600249
_symmetry_Int_Tables_number   1
_chemical_formula_structural   Zn2H5C9O7F
_chemical_formula_sum   'Zn16 H40 C72 O56 F8'
_cell_volume   9302.82781010
_cell_formula_units_Z   8
loop_
 _symmetry_equiv_pos_site_id
 _symmetry_equiv_pos_as_xyz
  1  'x, y, z'
loop_
 _atom_site_type_symbol
 _atom_site_label
 _atom_site_symmetry_multiplicity
 _atom_site_fract_x
 _atom_site_fract_y
 _atom_site_fract_z
 _atom_site_occupancy
 _atom_site_pbe_bader_charge
 _atom_site_pbe_bader_spin_density
 _atom_site_pbe_cm5_charge
 _atom_site_pbe_ddec_charge
 _atom_site_pbe_ddec_spin_density
 _atom_site_pbe_ddec_sum_bond_order
 _atom_site_pbe_magmom
Zn  Zn0  1  0.83442245  0.24975697  0.79364280  1  1.313777  0  0.669821  0.970312  0  2.355093  0
Zn  Zn1  1  0.74857552  0.33619135  0.29428239  1  1.316446  0  0.671626  0.963753  0  2.357743  0
Zn  Zn2  1  0.24810709  0.83650745  0.20635705  1  1.315189  0  0.672103  0.965257  0  2.353446  0
Zn  Zn3  1  0.24757102  0.83649374  0.79383151  1  1.316291  0  0.67217  0.964926  0  2.356835  0
Zn  Zn4  1  0.74640647  0.16577670  0.70729082  1  1.316245  0  0.672001  0.966352  0  2.381141  0
Zn  Zn5  1  0.74698456  0.16613077  0.29288950  1  1.316531  0  0.671482  0.965233  0  2.384391  0
Zn  Zn6  1  0.24620640  0.66655126  0.20796246  1  1.318646  0  0.671476  0.96535  0  2.385342  0
Zn  Zn7  1  0.24677982  0.66600410  0.79306927  1  1.314552  0  0.671276  0.964896  0  2.383431  0
Zn  Zn8  1  0.83431153  0.24983320  0.20636991  1  1.313232  0  0.669716  0.969693  0  2.356157  0
Zn  Zn9  1  0.33440764  0.74979779  0.29431203  1  1.313751  0  0.669766  0.969561  0  2.357583  0
Zn  Zn10  1  0.33482814  0.74899682  0.70738001  1  1.309894  0  0.669481  0.967963  0  2.364911  0
Zn  Zn11  1  0.66428935  0.25048707  0.79261567  1  1.31672  0  0.670622  0.959151  0  2.4005  0
Zn  Zn12  1  0.66429375  0.25196181  0.20695664  1  1.317244  0  0.670819  0.961616  0  2.387391  0
Zn  Zn13  1  0.16434128  0.75153232  0.29385543  1  1.316646  0  0.671012  0.961624  0  2.384754  0
Zn  Zn14  1  0.16442345  0.75167555  0.70667610  1  1.318256  0  0.671277  0.962032  0  2.388308  0
Zn  Zn15  1  0.74799521  0.33628552  0.70585033  1  1.31591  0  0.672228  0.965371  0  2.355389  0
H  H16  1  0.09957103  0.00819200  0.80301791  1  0.103581  0  0.111631  0.108444  0  0.975578  0
H  H17  1  0.85849980  0.24871184  0.95387021  1  0.105454  0  0.110794  0.108018  0  0.978285  0
H  H18  1  0.36087471  0.76020317  0.54639610  1  0.125499  0  0.111855  0.109195  0  0.976524  0
H  H19  1  0.35947248  0.74176860  0.45402641  1  0.099618  0  0.11162  0.108953  0  0.979116  0
H  H20  1  0.69488021  0.26196813  0.04143925  1  0.104324  0  0.115139  0.133998  0  0.978967  0
H  H21  1  0.69395729  0.24157000  0.95808875  1  0.096963  0  0.11582  0.134303  0  0.979929  0
H  H22  1  0.19785906  0.73682611  0.54198105  1  0.101667  0  0.115248  0.134175  0  0.980024  0
H  H23  1  0.19721376  0.76985575  0.45923032  1  0.089948  0  0.115371  0.13419  0  0.980658  0
H  H24  1  0.01670337  0.93307817  0.71752353  1  0.127567  0  0.109353  0.135504  0  1.006206  0
H  H25  1  0.01402412  0.92950789  0.27847397  1  0.107336  0  0.108979  0.134114  0  1.008149  0
H  H26  1  0.51674565  0.43253099  0.21973681  1  0.124107  0  0.108692  0.133895  0  1.008994  0
H  H27  1  0.10121742  0.01113372  0.19844276  1  0.124308  0  0.111723  0.108811  0  0.975049  0
H  H28  1  0.51439623  0.42874002  0.77887964  1  0.105759  0  0.109312  0.134781  0  1.007789  0
H  H29  1  0.01071094  0.10351542  0.79984266  1  0.127247  0  0.117801  0.138882  0  0.978189  0
H  H30  1  0.00817249  0.10229081  0.19827539  1  0.123376  0  0.117977  0.138554  0  0.980032  0
H  H31  1  0.51113206  0.60498321  0.29989572  1  0.112021  0  0.118131  0.138792  0  0.978533  0
H  H32  1  0.50302533  0.59729082  0.69485545  1  0.122505  0  0.117839  0.13843  0  0.980494  0
H  H33  1  0.06518756  0.51974508  0.77915915  1  0.144718  0  0.114235  0.165303  0  1.012855  0
H  H34  1  0.06299605  0.52230033  0.22001665  1  0.115089  0  0.114117  0.165336  0  1.011274  0
H  H35  1  0.56671256  0.01897697  0.27842555  1  0.150023  0  0.114218  0.165042  0  1.011769  0
H  H36  1  0.57042287  0.01346915  0.72557649  1  0.14956  0  0.114509  0.166025  0  1.010354  0
H  H37  1  0.90603254  0.49943473  0.69100616  1  0.119662  0  0.118271  0.155017  0  0.98681  0
H  H38  1  0.60162140  0.51140797  0.30247238  1  0.105365  0  0.111855  0.108726  0  0.974415  0
H  H39  1  0.90556891  0.49884767  0.30865872  1  0.121096  0  0.11812  0.154425  0  0.987268  0
H  H40  1  0.40581236  0.99900173  0.19188449  1  0.126003  0  0.118295  0.154784  0  0.98788  0
H  H41  1  0.39457008  0.01020355  0.79689925  1  0.120431  0  0.118337  0.154909  0  0.989224  0
H  H42  1  0.75710132  0.35570086  0.45386464  1  0.102595  0  0.113115  0.11125  0  0.97643  0
H  H43  1  0.74124921  0.35546837  0.54633550  1  0.095947  0  0.112828  0.110608  0  0.977235  0
H  H44  1  0.24920019  0.85728871  0.95409106  1  0.086724  0  0.112503  0.109966  0  0.977235  0
H  H45  1  0.25607214  0.85673363  0.04658118  1  0.131733  0  0.112564  0.110308  0  0.976884  0
H  H46  1  0.96779982  0.39180772  0.81150692  1  0.64993  0  0.329332  0.364845  0  0.900924  0
H  H47  1  0.96769407  0.39243548  0.18826576  1  0.64094  0  0.3293  0.365012  0  0.899507  0
H  H48  1  0.46829844  0.89194835  0.31238671  1  0.631882  0  0.32908  0.364873  0  0.900123  0
H  H49  1  0.59881064  0.50888547  0.69663412  1  0.09576  0  0.111758  0.108127  0  0.974923  0
H  H50  1  0.49175124  0.86700844  0.71282325  1  0.639756  0  0.329406  0.365179  0  0.899934  0
H  H51  1  0.73328599  0.19349661  0.45867012  1  0.088974  0  0.114803  0.133765  0  0.98139  0
H  H52  1  0.76925367  0.19386544  0.54197263  1  0.131345  0  0.114457  0.133189  0  0.981591  0
H  H53  1  0.25825059  0.69355110  0.95825059  1  0.087002  0  0.11456  0.132933  0  0.981865  0
H  H54  1  0.24228636  0.69335809  0.04219056  1  0.085962  0  0.114441  0.132887  0  0.981028  0
H  H55  1  0.85801938  0.23902206  0.04637380  1  0.113096  0  0.111338  0.108242  0  0.979417  0
C  C56  1  0.61143220  0.11549703  0.75043382  1  1.512362  0  0.214205  0.668608  0  4.18532  0
C  C57  1  0.99966972  0.55249018  0.28118156  1  0.386809  0  0.114618  0.374692  0  4.049575  0
C  C58  1  0.50018184  0.05223199  0.21946083  1  0.402207  0  0.114034  0.374386  0  4.044596  0
C  C59  1  0.49636331  0.05557038  0.77641420  1  0.377456  0  0.114319  0.374832  0  4.047807  0
C  C60  1  0.05731734  0.56049302  0.75053153  1  0.06362  0  -0.1192  -0.394073  0  3.856388  0
C  C61  1  0.05681896  0.56094969  0.25015470  1  0.121407  0  -0.118729  -0.393605  0  3.856843  0
C  C62  1  0.55872467  0.05936127  0.24954066  1  0.077408  0  -0.118873  -0.393565  0  3.856678  0
C  C63  1  0.55866099  0.05817213  0.75016119  1  0.087585  0  -0.118731  -0.393938  0  3.857355  0
C  C64  1  0.94624075  0.49825181  0.72079286  1  0.142312  0  -0.108792  -0.314059  0  3.985791  0
C  C65  1  0.94597074  0.49807096  0.27914961  1  0.134438  0  -0.108334  -0.31269  0  3.985166  0
C  C66  1  0.44647326  0.99778411  0.22134395  1  0.130797  0  -0.108309  -0.31256  0  3.985466  0
C  C67  1  0.61324644  0.11498437  0.24737703  1  1.50562  0  0.214154  0.66746  0  4.18585  0
C  C68  1  0.44362557  0.00017276  0.77609848  1  0.137997  0  -0.108671  -0.31444  0  3.990288  0
C  C69  1  0.94059094  0.44446894  0.75496492  1  0.47628  0  0.084358  0.190327  0  4.041847  0
C  C70  1  0.94030831  0.44481254  0.24466794  1  0.475427  0  0.084194  0.190117  0  4.042096  0
C  C71  1  0.44078082  0.94441588  0.25583660  1  0.471774  0  0.08404  0.188527  0  4.040827  0
C  C72  1  0.44807987  0.93628137  0.75234132  1  0.436429  0  0.084563  0.190064  0  4.04194  0
C  C73  1  0.75046734  0.30435206  0.47274852  1  -0.055646  0  -0.064854  -0.018889  0  3.973396  0
C  C74  1  0.74937317  0.30430396  0.52759142  1  -0.02377  0  -0.064328  -0.017644  0  3.97234  0
C  C75  1  0.25183300  0.80546269  0.97282885  1  -0.067768  0  -0.065277  -0.019725  0  3.972104  0
C  C76  1  0.25214390  0.80517774  0.02772339  1  0.030397  0  -0.065507  -0.020287  0  3.969402  0
C  C77  1  0.74240084  0.24648833  0.44309875  1  -0.061685  0  -0.084663  -0.223177  0  3.871506  0
C  C78  1  0.11183715  0.61603091  0.25259642  1  1.502799  0  0.214326  0.668907  0  4.185939  0
C  C79  1  0.75860069  0.24660500  0.55739578  1  0.010679  0  -0.084627  -0.223133  0  3.87069  0
C  C80  1  0.25472297  0.74737359  0.94294292  1  -0.022444  0  -0.08336  -0.219424  0  3.869469  0
C  C81  1  0.24728623  0.74697321  0.05751956  1  -0.023554  0  -0.083395  -0.219477  0  3.866071  0
C  C82  1  0.80645182  0.24586502  0.02745282  1  0.090335  0  -0.066199  -0.020022  0  3.973326  0
C  C83  1  0.80651444  0.24675334  0.97259076  1  -0.03003  0  -0.065977  -0.021265  0  3.975113  0
C  C84  1  0.30908241  0.75320343  0.52783743  1  -0.076708  0  -0.06535  -0.019307  0  3.971226  0
C  C85  1  0.30836090  0.75042022  0.47299041  1  -0.141481  0  -0.065285  -0.018703  0  3.971661  0
C  C86  1  0.74825364  0.25357448  0.05704104  1  -0.086328  0  -0.082859  -0.218801  0  3.864484  0
C  C87  1  0.74790026  0.24480205  0.94274697  1  -0.097396  0  -0.083313  -0.21862  0  3.867981  0
C  C88  1  0.25098548  0.74638773  0.55761597  1  0.053098  0  -0.083654  -0.221274  0  3.869286  0
C  C89  1  0.11152347  0.61644898  0.74898951  1  1.501059  0  0.213815  0.667915  0  4.186243  0
C  C90  1  0.24989676  0.75881548  0.44350824  1  0.024206  0  -0.084041  -0.222113  0  3.868722  0
C  C91  1  0.88337768  0.38880608  0.75116507  1  1.554855  0  0.223118  0.541088  0  4.212165  0
C  C92  1  0.88294260  0.38932604  0.24816264  1  1.563794  0  0.222943  0.539546  0  4.21436  0
C  C93  1  0.38312483  0.88914781  0.25248094  1  1.542487  0  0.22454  0.543178  0  4.210346  0
C  C94  1  0.38801244  0.88352402  0.75347006  1  1.591906  0  0.2246  0.544164  0  4.211703  0
C  C95  1  0.75141664  0.24730052  0.88703215  1  1.510173  0  0.219281  0.640291  0  4.189759  0
C  C96  1  0.75155320  0.25139393  0.11279222  1  1.510988  0  0.218674  0.638608  0  4.19034  0
C  C97  1  0.25212722  0.75431268  0.38778853  1  1.540858  0  0.218632  0.639334  0  4.187997  0
C  C98  1  0.25362802  0.75020274  0.61334514  1  1.503814  0  0.219087  0.639978  0  4.186241  0
C  C99  1  0.75462795  0.24994884  0.61310438  1  1.516351  0  0.219634  0.64024  0  4.187058  0
C  C100  1  0.93943910  0.05791424  0.75035415  1  0.42537  0  0.102396  0.144336  0  3.966616  0
C  C101  1  0.74517836  0.24995788  0.38734221  1  1.531766  0  0.219795  0.639401  0  4.18823  0
C  C102  1  0.24847349  0.75065349  0.11328639  1  1.502098  0  0.219135  0.638577  0  4.18794  0
C  C103  1  0.25223344  0.75119088  0.88719491  1  1.514764  0  0.219612  0.640041  0  4.187574  0
C  C104  1  0.61461209  0.38865668  0.74956570  1  1.525287  0  0.217835  0.639396  0  4.186569  0
C  C105  1  0.61565706  0.39037521  0.25032868  1  1.526536  0  0.218795  0.642393  0  4.183056  0
C  C106  1  0.11393650  0.88866804  0.24904531  1  1.514884  0  0.218103  0.64028  0  4.183005  0
C  C107  1  0.11491389  0.88986110  0.74879532  1  1.51105  0  0.219021  0.6423  0  4.182266  0
C  C108  1  0.88506152  0.11603859  0.75176456  1  1.619033  0  0.218267  0.545061  0  4.251538  0
C  C109  1  0.88958323  0.12041008  0.25312971  1  1.615268  0  0.218979  0.5455  0  4.251049  0
C  C110  1  0.38687900  0.61811198  0.25030035  1  1.627988  0  0.219604  0.545442  0  4.250735  0
C  C111  1  0.94487309  0.06309832  0.25520283  1  0.397558  0  0.101684  0.143504  0  3.969493  0
C  C112  1  0.38595459  0.61576685  0.75069818  1  1.574054  0  0.217931  0.544333  0  4.251913  0
C  C113  1  0.05564948  0.00174009  0.77610292  1  0.020356  0  -0.068445  0.009635  0  3.987172  0
C  C114  1  0.05650536  0.00308195  0.22433436  1  -0.083168  0  -0.068504  0.007726  0  3.988319  0
C  C115  1  0.55723719  0.50379119  0.27608377  1  -0.092597  0  -0.068642  0.008587  0  3.988731  0
C  C116  1  0.55458259  0.50082417  0.72293890  1  -0.038875  0  -0.068655  0.008845  0  3.988776  0
C  C117  1  0.05739350  0.94356826  0.74594639  1  -0.018322  0  -0.088871  -0.232104  0  3.857234  0
C  C118  1  0.05656475  0.94247236  0.25212535  1  0.010367  0  -0.088215  -0.228467  0  3.856671  0
C  C119  1  0.55834968  0.44432907  0.24721334  1  0.00736  0  -0.088557  -0.229767  0  3.858969  0
C  C120  1  0.55639631  0.44151135  0.75206047  1  0.01326  0  -0.088672  -0.229613  0  3.860826  0
C  C121  1  0.00190033  0.05689650  0.77617513  1  0.008006  0  -0.087602  -0.180959  0  4.003632  0
C  C122  1  0.44164670  0.56030812  0.24876274  1  0.413297  0  0.102533  0.144557  0  3.965395  0
C  C123  1  0.00284745  0.05834785  0.22494630  1  0.109028  0  -0.087991  -0.180308  0  4.006019  0
C  C124  1  0.50320833  0.55875767  0.27568680  1  0.116721  0  -0.088244  -0.181318  0  4.002456  0
C  C125  1  0.49942112  0.55454805  0.72264179  1  0.084221  0  -0.08822  -0.181133  0  4.006409  0
C  C126  1  0.44195229  0.55930948  0.75335839  1  0.410917  0  0.101914  0.144447  0  3.967309  0
C  C127  1  0.99947570  0.55321739  0.71978572  1  0.405193  0  0.115169  0.375601  0  4.045823  0
O  O128  1  0.75071563  0.25201500  0.74966212  1  -1.236506  0  -0.571257  -1.031333  0  2.528603  0
O  O129  1  0.74162800  0.18980140  0.36490210  1  -1.157295  0  -0.31753  -0.545215  0  2.296671  0
O  O130  1  0.24854604  0.69034607  0.13583252  1  -1.161196  0  -0.317528  -0.5458  0  2.296127  0
O  O131  1  0.24912134  0.69089587  0.86492725  1  -1.157703  0  -0.317688  -0.545996  0  2.301062  0
O  O132  1  0.60590804  0.16609594  0.78241795  1  -1.163601  0  -0.321359  -0.555761  0  2.341534  0
O  O133  1  0.60495295  0.16831944  0.21781277  1  -1.15639  0  -0.321931  -0.556384  0  2.333268  0
O  O134  1  0.10776462  0.66540472  0.28571421  1  -1.160839  0  -0.322763  -0.558123  0  2.33382  0
O  O135  1  0.10291084  0.67027978  0.71999083  1  -1.156644  0  -0.321414  -0.555551  0  2.3359  0
O  O136  1  0.83666405  0.39342213  0.71664325  1  -1.149421  0  -0.300428  -0.507517  0  2.333664  0
O  O137  1  0.83624432  0.39413841  0.28247629  1  -1.152681  0  -0.300395  -0.505684  0  2.337598  0
O  O138  1  0.33626210  0.89395897  0.21809569  1  -1.167494  0  -0.301111  -0.507866  0  2.337793  0
O  O139  1  0.75083726  0.25228959  0.25026865  1  -1.236792  0  -0.570722  -1.030875  0  2.526835  0
O  O140  1  0.33250562  0.89716343  0.77889029  1  -1.167308  0  -0.300713  -0.508553  0  2.336629  0
O  O141  1  0.66106618  0.10902774  0.71710466  1  -1.144708  0  -0.329412  -0.561172  0  2.285808  0
O  O142  1  0.66678191  0.10467513  0.27717667  1  -1.169054  0  -0.328927  -0.560013  0  2.293508  0
O  O143  1  0.16157109  0.60932521  0.21940658  1  -1.156549  0  -0.328735  -0.56022  0  2.293143  0
O  O144  1  0.16512438  0.60586630  0.77874025  1  -1.159498  0  -0.329008  -0.561031  0  2.291661  0
O  O145  1  0.88895138  0.34036059  0.78530686  1  -1.180267  0  -0.312819  -0.551532  0  2.344606  0
O  O146  1  0.88844861  0.34087548  0.21415365  1  -1.186221  0  -0.312861  -0.551944  0  2.342276  0
O  O147  1  0.38855267  0.84083572  0.28673515  1  -1.152841  0  -0.3137  -0.552972  0  2.339154  0
O  O148  1  0.40078045  0.82772301  0.72694657  1  -1.174901  0  -0.31405  -0.5529  0  2.345402  0
O  O149  1  0.69105449  0.25106556  0.86452646  1  -1.159833  0  -0.315337  -0.542624  0  2.301666  0
O  O150  1  0.25057122  0.75252971  0.25049384  1  -1.23591  0  -0.571092  -1.031074  0  2.525947  0
O  O151  1  0.69132835  0.25620679  0.13517472  1  -1.157394  0  -0.315275  -0.543265  0  2.298917  0
O  O152  1  0.19185674  0.76084707  0.36543281  1  -1.151318  0  -0.314591  -0.541527  0  2.294481  0
O  O153  1  0.19307698  0.74571894  0.63529341  1  -1.160883  0  -0.314346  -0.542405  0  2.299644  0
O  O154  1  0.74713069  0.31085587  0.63400350  1  -1.17119  0  -0.320241  -0.557814  0  2.31807  0
O  O155  1  0.75078913  0.31099972  0.36621480  1  -1.173096  0  -0.320524  -0.557194  0  2.317459  0
O  O156  1  0.24926977  0.81191987  0.13433281  1  -1.165706  0  -0.320243  -0.557551  0  2.316425  0
O  O157  1  0.25305171  0.81241572  0.86591895  1  -1.162204  0  -0.320555  -0.558327  0  2.313414  0
O  O158  1  0.60668479  0.33516945  0.77896349  1  -1.159537  0  -0.317604  -0.543936  0  2.31064  0
O  O159  1  0.60800035  0.33780903  0.22018171  1  -1.168532  0  -0.317701  -0.544936  0  2.305255  0
O  O160  1  0.10499442  0.83441828  0.27756842  1  -1.163933  0  -0.317518  -0.544737  0  2.304589  0
O  O161  1  0.25047584  0.75208852  0.75037009  1  -1.236654  0  -0.571136  -1.031056  0  2.529494  0
O  O162  1  0.11014814  0.83967786  0.71633616  1  -1.152198  0  -0.318401  -0.546007  0  2.302055  0
O  O163  1  0.82898482  0.10510939  0.72597980  1  -1.153964  0  -0.307491  -0.51938  0  2.358017  0
O  O164  1  0.83692483  0.11248126  0.28266261  1  -1.143978  0  -0.30708  -0.519007  0  2.355842  0
O  O165  1  0.33185258  0.60819757  0.22315004  1  -1.157305  0  -0.307391  -0.519645  0  2.356431  0
O  O166  1  0.33553161  0.61041403  0.78237985  1  -1.142881  0  -0.30698  -0.518415  0  2.352501  0
O  O167  1  0.66698741  0.39939733  0.71935242  1  -1.165229  0  -0.321902  -0.55871  0  2.30881  0
O  O168  1  0.66708102  0.39939568  0.28179125  1  -1.172379  0  -0.322087  -0.560381  0  2.311011  0
O  O169  1  0.16678232  0.89956409  0.21926625  1  -1.167187  0  -0.322199  -0.559475  0  2.308444  0
O  O170  1  0.16381825  0.89683561  0.78242926  1  -1.182085  0  -0.321607  -0.558658  0  2.314105  0
O  O171  1  0.90032070  0.17054377  0.77860390  1  -1.162079  0  -0.316622  -0.537239  0  2.321437  0
O  O172  1  0.81302625  0.24570740  0.86595555  1  -1.164478  0  -0.324139  -0.563625  0  2.314726  0
O  O173  1  0.90060280  0.17102976  0.22174170  1  -1.16564  0  -0.316161  -0.536585  0  2.326691  0
O  O174  1  0.40081439  0.67135256  0.27871150  1  -1.169765  0  -0.31708  -0.536555  0  2.324264  0
O  O175  1  0.39439038  0.66344548  0.71673648  1  -1.151902  0  -0.316672  -0.536844  0  2.333548  0
O  O176  1  0.98538937  0.43531014  0.79452427  1  -1.146098  0  -0.327809  -0.39105  0  2.304105  0
O  O177  1  0.98524543  0.43583455  0.20535415  1  -1.1402  0  -0.327089  -0.390335  0  2.302507  0
O  O178  1  0.48597920  0.93521269  0.29515597  1  -1.125928  0  -0.327599  -0.390419  0  2.299936  0
O  O179  1  0.50527741  0.91466998  0.72542286  1  -1.135266  0  -0.328222  -0.391114  0  2.300399  0
O  O180  1  0.81288088  0.24499871  0.13406978  1  -1.163903  0  -0.3239  -0.562259  0  2.314643  0
O  O181  1  0.31282721  0.74448944  0.36650518  1  -1.168516  0  -0.324093  -0.563305  0  2.316238  0
O  O182  1  0.31459804  0.75737522  0.63504653  1  -1.166084  0  -0.324081  -0.562372  0  2.307663  0
O  O183  1  0.75892424  0.18983093  0.63573707  1  -1.157949  0  -0.318243  -0.546725  0  2.293398  0
F  F184  1  0.92032552  0.00317203  0.72005277  1  -0.620518  0  -0.079207  -0.098919  0  1.389541  0
F  F185  1  0.93121646  0.01307745  0.29072733  1  -0.626133  0  -0.079322  -0.099094  0  1.392482  0
F  F186  1  0.42384686  0.50646238  0.21727074  1  -0.621004  0  -0.079328  -0.098899  0  1.390554  0
F  F187  1  0.43026467  0.51093215  0.79034525  1  -0.620445  0  -0.079159  -0.099005  0  1.388912  0
F  F188  1  0.98709729  0.60076519  0.68191990  1  -0.618737  0  -0.099028  -0.141969  0  1.311176  0
F  F189  1  0.98845247  0.59812125  0.32023600  1  -0.619519  0  -0.099081  -0.141865  0  1.310821  0
F  F190  1  0.48747264  0.09945060  0.18143693  1  -0.620382  0  -0.099042  -0.142078  0  1.309091  0
F  F191  1  0.47667988  0.11055771  0.80674832  1  -0.620686  0  -0.099039  -0.141823  0  1.311943  0
