# generated using pymatgen
data_ZnH24C24(NO3)2
_symmetry_space_group_name_H-M   'P 1'
_cell_length_a   11.58357380
_cell_length_b   14.91880547
_cell_length_c   15.12858385
_cell_angle_alpha   106.94030199
_cell_angle_beta   89.99999355
_cell_angle_gamma   90.00004393
_symmetry_Int_Tables_number   1
_chemical_formula_structural   ZnH24C24(NO3)2
_chemical_formula_sum   'Zn4 H96 C96 N8 O24'
_cell_volume   2500.97470890
_cell_formula_units_Z   4
loop_
 _symmetry_equiv_pos_site_id
 _symmetry_equiv_pos_as_xyz
  1  'x, y, z'
loop_
 _atom_site_type_symbol
 _atom_site_label
 _atom_site_symmetry_multiplicity
 _atom_site_fract_x
 _atom_site_fract_y
 _atom_site_fract_z
 _atom_site_occupancy
 _atom_site_pbe_bader_charge
 _atom_site_pbe_bader_spin_density
 _atom_site_pbe_cm5_charge
 _atom_site_pbe_ddec_charge
 _atom_site_pbe_ddec_spin_density
 _atom_site_pbe_ddec_sum_bond_order
 _atom_site_pbe_magmom
Zn  Zn0  1  0.41541000  0.51166002  0.57149312  1  1.329648  0  0.664162  0.897289  0  2.34882  0
Zn  Zn1  1  0.91540879  0.98834140  0.42850644  1  1.330215  0  0.664172  0.897347  0  2.34877  0
Zn  Zn2  1  0.58459095  0.48834117  0.42850673  1  1.330213  0  0.66419  0.897361  0  2.348772  0
Zn  Zn3  1  0.08459044  0.01165980  0.57149341  1  1.329646  0  0.664162  0.897282  0  2.348812  0
H  H4  1  0.94039033  0.25292677  0.76615636  1  0.097776  0  0.104472  0.120578  0  1.029647  0
H  H5  1  0.44038924  0.24707512  0.23384401  1  0.097751  0  0.104457  0.120518  0  1.029709  0
H  H6  1  0.05960890  0.74707512  0.23384435  1  0.097759  0  0.104483  0.120582  0  1.029591  0
H  H7  1  0.55961086  0.75292748  0.76615558  1  0.097801  0  0.104486  0.120584  0  1.029647  0
H  H8  1  0.77163501  0.27444667  0.51990900  1  0.127255  0  0.102938  0.119398  0  1.007211  0
H  H9  1  0.27163731  0.22555372  0.48009029  1  0.127264  0  0.102925  0.119372  0  1.007268  0
H  H10  1  0.22836422  0.72555382  0.48009065  1  0.127252  0  0.102937  0.119399  0  1.007211  0
H  H11  1  0.72836623  0.77444607  0.51990916  1  0.127252  0  0.102968  0.119404  0  1.007199  0
H  H12  1  0.64804376  0.46246631  0.00603742  1  0.102802  0  0.101928  0.109184  0  1.05954  0
H  H13  1  0.14804320  0.03753330  0.99396233  1  0.102793  0  0.101916  0.10919  0  1.059528  0
H  H14  1  0.35195806  0.53753348  0.99396269  1  0.10279  0  0.101929  0.109194  0  1.059531  0
H  H15  1  0.85195689  0.96246719  0.00603798  1  0.10285  0  0.101929  0.109221  0  1.059511  0
H  H16  1  0.67045055  0.61279358  0.12677517  1  0.079301  0  0.109338  0.116026  0  0.988686  0
H  H17  1  0.17045036  0.88720839  0.87322392  1  0.079284  0  0.109349  0.116044  0  0.988627  0
H  H18  1  0.32955041  0.38720832  0.87322423  1  0.07928  0  0.10935  0.116049  0  0.988643  0
H  H19  1  0.82954887  0.11279280  0.12677726  1  0.079283  0  0.109351  0.116035  0  0.988637  0
H  H20  1  0.75470442  0.77600418  0.17669796  1  0.050773  0  0.102432  0.103092  0  0.996831  0
H  H21  1  0.25470321  0.72399784  0.82329981  1  0.050715  0  0.102445  0.10309  0  0.996813  0
H  H22  1  0.24529654  0.22399632  0.82329905  1  0.050722  0  0.102455  0.103126  0  0.996724  0
H  H23  1  0.74529429  0.27600335  0.17670005  1  0.05075  0  0.102435  0.103083  0  0.996813  0
H  H24  1  0.89074108  0.89338730  0.14891685  1  0.098954  0  0.102069  0.108222  0  1.01905  0
H  H25  1  0.39073975  0.60661270  0.85108033  1  0.098914  0  0.102093  0.108247  0  1.018991  0
H  H26  1  0.10925901  0.10661249  0.85108194  1  0.098917  0  0.102067  0.108228  0  1.019031  0
H  H27  1  0.60925775  0.39338639  0.14891892  1  0.098886  0  0.102099  0.108266  0  1.018985  0
H  H28  1  0.00166917  0.85547160  0.00013704  1  0.051003  0  0.094154  0.083437  0  1.053722  0
H  H29  1  0.50166839  0.64452815  0.99986208  1  0.051028  0  0.094155  0.083455  0  1.05367  0
H  H30  1  0.99833092  0.14452889  0.99986261  1  0.051039  0  0.094156  0.083429  0  1.053716  0
H  H31  1  0.49832998  0.35547164  0.00013802  1  0.05102  0  0.094181  0.083494  0  1.05365  0
H  H32  1  0.97739294  0.70121874  0.88253796  1  0.063286  0  0.104824  0.117859  0  0.996625  0
H  H33  1  0.47738846  0.79878061  0.11746034  1  0.063341  0  0.104842  0.117879  0  0.996558  0
H  H34  1  0.02261061  0.29878175  0.11746037  1  0.063351  0  0.104835  0.117891  0  0.996554  0
H  H35  1  0.52260904  0.20121918  0.88253779  1  0.063305  0  0.104824  0.117859  0  0.996627  0
H  H36  1  0.50254972  0.43586678  0.77409625  1  0.058117  0  0.094136  0.146566  0  1.014167  0
H  H37  1  0.00255018  0.06413274  0.22590348  1  0.058119  0  0.094133  0.146561  0  1.014183  0
H  H38  1  0.49745123  0.56413231  0.22590366  1  0.058107  0  0.094133  0.14657  0  1.01418  0
H  H39  1  0.99745078  0.93586635  0.77409643  1  0.058099  0  0.094138  0.146568  0  1.014166  0
H  H40  1  0.51355067  0.49482796  0.89509143  1  -0.001629  0  0.081497  0.111103  0  1.04687  0
H  H41  1  0.01355108  0.00517087  0.10490809  1  -0.001598  0  0.081483  0.111091  0  1.046782  0
H  H42  1  0.48644943  0.50517043  0.10490827  1  -0.001609  0  0.081506  0.111129  0  1.046817  0
H  H43  1  0.98644988  0.99482822  0.89509181  1  -0.001639  0  0.081497  0.111103  0  1.046862  0
H  H44  1  0.56825566  0.37885995  0.85001778  1  0.022564  0  0.084314  0.11639  0  1.027609  0
H  H45  1  0.06825446  0.12113961  0.14998195  1  0.022567  0  0.084314  0.116401  0  1.027602  0
H  H46  1  0.43174616  0.62113914  0.14998146  1  0.022573  0  0.084295  0.116375  0  1.02762  0
H  H47  1  0.93174477  0.87886018  0.85001816  1  0.022559  0  0.084311  0.116385  0  1.027618  0
H  H48  1  0.73600712  0.60748398  0.77596786  1  0.034209  0  0.084684  0.118906  0  1.024986  0
H  H49  1  0.23600704  0.89251802  0.22403255  1  0.03422  0  0.084672  0.118883  0  1.025022  0
H  H50  1  0.26399211  0.39251721  0.22403200  1  0.03421  0  0.084683  0.118902  0  1.024991  0
H  H51  1  0.76399392  0.10748317  0.77596730  1  0.034227  0  0.084683  0.11889  0  1.025014  0
H  H52  1  0.63180008  0.63442069  0.86566862  1  -0.002586  0  0.082801  0.114449  0  1.037427  0
H  H53  1  0.13180085  0.86558054  0.13433158  1  -0.00258  0  0.082804  0.11444  0  1.037486  0
H  H54  1  0.36819915  0.36558050  0.13433190  1  -0.002583  0  0.082806  0.114451  0  1.037471  0
H  H55  1  0.86820011  0.13441995  0.86566873  1  -0.002598  0  0.082807  0.114429  0  1.037473  0
H  H56  1  0.58875204  0.57898255  0.75010557  1  0.085233  0  0.092918  0.14483  0  1.030516  0
H  H57  1  0.08875198  0.92101796  0.24989442  1  0.085225  0  0.09292  0.144852  0  1.030466  0
H  H58  1  0.41124806  0.42101794  0.24989474  1  0.085235  0  0.092925  0.144867  0  1.030477  0
H  H59  1  0.91124984  0.07898253  0.75010589  1  0.085193  0  0.092903  0.144818  0  1.030484  0
H  H60  1  0.90729261  0.30720956  0.92286758  1  0.079131  0  0.101745  0.11527  0  1.021224  0
H  H61  1  0.40729322  0.19279091  0.07713305  1  0.079112  0  0.101764  0.115324  0  1.021221  0
H  H62  1  0.09270748  0.69279023  0.07713253  1  0.079125  0  0.101745  0.115289  0  1.021222  0
H  H63  1  0.59270774  0.80720959  0.92286726  1  0.079133  0  0.101723  0.11527  0  1.021246  0
H  H64  1  0.87154038  0.41127535  0.01057523  1  0.06162  0  0.100183  0.110408  0  1.022207  0
H  H65  1  0.37154161  0.08872440  0.98942586  1  0.061633  0  0.100178  0.110389  0  1.022223  0
H  H66  1  0.12845971  0.58872444  0.98942554  1  0.061632  0  0.100177  0.110384  0  1.022233  0
H  H67  1  0.62846021  0.91127539  0.01057425  1  0.061623  0  0.10019  0.11042  0  1.022228  0
H  H68  1  0.98554831  0.41221204  0.93130964  1  0.024499  0  0.091556  0.098569  0  1.015194  0
H  H69  1  0.48554881  0.08778848  0.06869232  1  0.024495  0  0.091535  0.098528  0  1.015196  0
H  H70  1  0.01445265  0.58778705  0.06869158  1  0.0245  0  0.091544  0.098544  0  1.015208  0
H  H71  1  0.51445215  0.91221131  0.93130978  1  0.024505  0  0.091555  0.098573  0  1.015179  0
H  H72  1  0.16515910  0.55414585  0.58346853  1  0.121379  0  0.12934  0.062998  0  0.996556  0
H  H73  1  0.66515785  0.94585401  0.41653259  1  0.121347  0  0.129378  0.063023  0  0.996527  0
H  H74  1  0.83484012  0.44585324  0.41653270  1  0.121352  0  0.129385  0.063041  0  0.996521  0
H  H75  1  0.33484051  0.05414578  0.58346884  1  0.121382  0  0.129351  0.063005  0  0.996565  0
H  H76  1  0.97776497  0.55506681  0.60517467  1  0.068431  0  0.113687  0.125541  0  0.98258  0
H  H77  1  0.47776491  0.94493184  0.39482475  1  0.068362  0  0.113687  0.125557  0  0.982598  0
H  H78  1  0.02223426  0.44493158  0.39482570  1  0.068339  0  0.113701  0.125554  0  0.98252  0
H  H79  1  0.52223432  0.05506655  0.60517495  1  0.068405  0  0.113682  0.125537  0  0.982542  0
H  H80  1  0.92765436  0.58013116  0.72152835  1  0.06539  0  0.107398  0.123467  0  1.000822  0
H  H81  1  0.42765257  0.91986676  0.27847153  1  0.065351  0  0.107405  0.123501  0  1.000792  0
H  H82  1  0.07234660  0.41986723  0.27847268  1  0.065371  0  0.107424  0.123526  0  1.00077  0
H  H83  1  0.57234580  0.08013163  0.72152818  1  0.065391  0  0.107397  0.123477  0  1.000801  0
H  H84  1  0.93506911  0.46187437  0.65059775  1  0.103182  0  0.105326  0.12506  0  1.017418  0
H  H85  1  0.43506779  0.03812401  0.34940228  1  0.102928  0  0.105331  0.125094  0  1.017414  0
H  H86  1  0.06493184  0.53812471  0.34940348  1  0.103198  0  0.105315  0.12506  0  1.017391  0
H  H87  1  0.56493057  0.96187368  0.65059723  1  0.103182  0  0.105304  0.125026  0  1.0174  0
H  H88  1  0.12741074  0.41993211  0.76379251  1  0.10317  0  0.109542  0.129286  0  0.970246  0
H  H89  1  0.62741261  0.08006679  0.23620835  1  0.103193  0  0.109548  0.129301  0  0.970204  0
H  H90  1  0.87258762  0.58006558  0.23620765  1  0.103214  0  0.109546  0.129305  0  0.970223  0
H  H91  1  0.37258748  0.91993160  0.76379201  1  0.103147  0  0.109534  0.129275  0  0.9702  0
H  H92  1  0.03657526  0.51461016  0.82498033  1  0.084634  0  0.107757  0.124422  0  1.029387  0
H  H93  1  0.53657495  0.98538962  0.17502012  1  0.084635  0  0.10776  0.124425  0  1.029387  0
H  H94  1  0.96342483  0.48538893  0.17502090  1  0.084637  0  0.10775  0.124421  0  1.029419  0
H  H95  1  0.46342342  0.01460877  0.82498025  1  0.084661  0  0.107773  0.124422  0  1.029412  0
H  H96  1  0.18960231  0.53169108  0.81857181  1  0.097507  0  0.105274  0.115471  0  1.030158  0
H  H97  1  0.68960198  0.96830739  0.18142890  1  0.097497  0  0.105274  0.115448  0  1.030186  0
H  H98  1  0.81039778  0.46830661  0.18142835  1  0.097492  0  0.105274  0.115446  0  1.030173  0
H  H99  1  0.31039639  0.03169030  0.81857126  1  0.097602  0  0.105281  0.115491  0  1.030129  0
C  C100  1  0.81463731  0.36558667  0.78365294  1  0.289111  0  0.090775  0.139937  0  4.080826  0
C  C101  1  0.31463870  0.13441375  0.21634768  1  0.28912  0  0.090747  0.13993  0  4.080829  0
C  C102  1  0.18536192  0.63441313  0.21634717  1  0.289109  0  0.090771  0.139974  0  4.080778  0
C  C103  1  0.68536312  0.86558534  0.78365289  1  0.289137  0  0.090759  0.139941  0  4.080789  0
C  C104  1  0.87878501  0.28855425  0.73370383  1  -0.008501  0  -0.102224  -0.20618  0  3.96406  0
C  C105  1  0.37878647  0.21144760  0.26629654  1  -0.008542  0  -0.10222  -0.206104  0  3.96405  0
C  C106  1  0.12121422  0.71144624  0.26629648  1  -0.008498  0  -0.102234  -0.206188  0  3.963975  0
C  C107  1  0.62121708  0.78855289  0.73370311  1  -0.008538  0  -0.102232  -0.206123  0  3.964043  0
C  C108  1  0.85935490  0.25436925  0.63811327  1  -0.008729  0  -0.024467  -0.021949  0  4.02424  0
C  C109  1  0.35935638  0.24563119  0.36188603  1  -0.008725  0  -0.024446  -0.021976  0  4.024165  0
C  C110  1  0.14064433  0.74563054  0.36188684  1  -0.008035  0  -0.024464  -0.021939  0  4.024221  0
C  C111  1  0.64064803  0.75436860  0.63811408  1  -0.008874  0  -0.024481  -0.022039  0  4.024295  0
C  C112  1  0.78416052  0.30087307  0.59430234  1  -0.068784  0  -0.099461  -0.159497  0  3.990129  0
C  C113  1  0.28416021  0.19912732  0.40569762  1  -0.068783  0  -0.099448  -0.15943  0  3.99003  0
C  C114  1  0.21583958  0.69912812  0.40569818  1  -0.069524  0  -0.099498  -0.159527  0  3.990157  0
C  C115  1  0.71584161  0.80087247  0.59430249  1  -0.068646  0  -0.099457  -0.159398  0  3.990094  0
C  C116  1  0.72180587  0.38011472  0.64536927  1  0.058123  0  -0.017451  -0.058502  0  3.980441  0
C  C117  1  0.22180550  0.11988564  0.35463002  1  0.058083  0  -0.017447  -0.058513  0  3.980405  0
C  C118  1  0.27819335  0.61988648  0.35462992  1  0.058146  0  -0.017416  -0.058483  0  3.98043  0
C  C119  1  0.77819632  0.88011415  0.64536943  1  0.058124  0  -0.017441  -0.058558  0  3.980525  0
C  C120  1  0.73503669  0.41153380  0.74119892  1  -0.046335  0  -0.006535  -0.041203  0  3.868189  0
C  C121  1  0.23503716  0.08846727  0.25880124  1  -0.046307  0  -0.006543  -0.041231  0  3.868259  0
C  C122  1  0.26496341  0.58846739  0.25880160  1  -0.046364  0  -0.00656  -0.041288  0  3.868286  0
C  C123  1  0.76496552  0.91153323  0.74119841  1  -0.046326  0  -0.006579  -0.041268  0  3.868232  0
C  C124  1  0.67413151  0.48674829  0.81706115  1  0.029697  0  -0.001146  0.134203  0  3.764942  0
C  C125  1  0.17413192  0.01325414  0.18293941  1  0.029689  0  -0.00115  0.13421  0  3.764908  0
C  C126  1  0.32586772  0.51325430  0.18293911  1  0.029709  0  -0.001147  0.134253  0  3.764867  0
C  C127  1  0.82586904  0.98674776  0.81706131  1  0.029688  0  -0.001121  0.134231  0  3.764928  0
C  C128  1  0.75785092  0.49516983  0.90184510  1  0.746146  0  0.184255  0.298423  0  3.782263  0
C  C129  1  0.25785047  0.00482915  0.09815445  1  0.746152  0  0.184262  0.298481  0  3.782301  0
C  C130  1  0.24215004  0.50482857  0.09815394  1  0.746115  0  0.184254  0.298452  0  3.782273  0
C  C131  1  0.74215049  0.99517134  0.90184520  1  0.746127  0  0.184222  0.298349  0  3.782374  0
C  C132  1  0.70109469  0.51820971  0.99452146  1  -0.105279  0  -0.097493  -0.2059  0  3.961385  0
C  C133  1  0.20109473  0.98179087  0.00547788  1  -0.105293  0  -0.097462  -0.205918  0  3.961361  0
C  C134  1  0.29890540  0.48179008  0.00547865  1  -0.105242  0  -0.09749  -0.205948  0  3.961385  0
C  C135  1  0.79890622  0.01821032  0.99452065  1  -0.105291  0  -0.09748  -0.205935  0  3.961408  0
C  C136  1  0.71447927  0.60025418  0.06042131  1  -0.082314  0  -0.089049  -0.102364  0  4.04082  0
C  C137  1  0.21447909  0.89974711  0.93957823  1  -0.082408  0  -0.089035  -0.102318  0  4.040809  0
C  C138  1  0.28552168  0.39974701  0.93957788  1  -0.082431  0  -0.089018  -0.102314  0  4.040789  0
C  C139  1  0.78552014  0.10025409  0.06042162  1  -0.08248  0  -0.089025  -0.102299  0  4.040809  0
C  C140  1  0.78810858  0.67303285  0.04605813  1  0.059364  0  -0.031862  -0.019138  0  4.084677  0
C  C141  1  0.28810745  0.82696779  0.95394056  1  0.059419  0  -0.031846  -0.019134  0  4.084733  0
C  C142  1  0.21189152  0.32696764  0.95394020  1  0.059408  0  -0.031858  -0.019117  0  4.084663  0
C  C143  1  0.71189005  0.17303341  0.04605996  1  0.059461  0  -0.031873  -0.019149  0  4.084804  0
C  C144  1  0.80253421  0.76065773  0.11175583  1  -0.075703  0  -0.088589  -0.110086  0  3.995265  0
C  C145  1  0.30253301  0.73934361  0.88824175  1  -0.076004  0  -0.088688  -0.1102  0  3.995335  0
C  C146  1  0.19746502  0.23934346  0.88824204  1  -0.075649  0  -0.088671  -0.110216  0  3.995219  0
C  C147  1  0.69746363  0.26065618  0.11175770  1  -0.07614  0  -0.088648  -0.110127  0  3.995351  0
C  C148  1  0.87873439  0.82661328  0.09612240  1  -0.05077  0  -0.107396  -0.123572  0  4.047972  0
C  C149  1  0.37873312  0.67338671  0.90387543  1  -0.050464  0  -0.107306  -0.123411  0  4.047787  0
C  C150  1  0.12126570  0.17338581  0.90387552  1  -0.050814  0  -0.107364  -0.123509  0  4.04789  0
C  C151  1  0.62126438  0.32661238  0.09612381  1  -0.050308  0  -0.107376  -0.123554  0  4.047945  0
C  C152  1  0.94074029  0.80506643  0.01315961  1  -0.030666  0  -0.094437  -0.071704  0  4.05287  0
C  C153  1  0.44073731  0.69493360  0.98683823  1  -0.030599  0  -0.094476  -0.071834  0  4.05284  0
C  C154  1  0.05926152  0.19493406  0.98683806  1  -0.030606  0  -0.094422  -0.071702  0  4.052873  0
C  C155  1  0.55926020  0.30506689  0.01316142  1  -0.030732  0  -0.094504  -0.071818  0  4.05289  0
C  C156  1  0.92787714  0.71850206  0.94663410  1  -0.05859  0  -0.10587  -0.208407  0  3.996831  0
C  C157  1  0.42787352  0.78149656  0.05336465  1  -0.058608  0  -0.105909  -0.20839  0  3.996871  0
C  C158  1  0.07212555  0.28149843  0.05336489  1  -0.058626  0  -0.105882  -0.208427  0  3.996869  0
C  C159  1  0.57212485  0.21850113  0.94663419  1  -0.058481  0  -0.10586  -0.208374  0  3.996875  0
C  C160  1  0.85255665  0.65200232  0.96327242  1  0.462065  0  0.091296  0.238886  0  4.026988  0
C  C161  1  0.35255655  0.84799766  0.03672673  1  0.462063  0  0.091291  0.238859  0  4.027022  0
C  C162  1  0.14744258  0.34799748  0.03672636  1  0.462079  0  0.091358  0.238949  0  4.026923  0
C  C163  1  0.64744354  0.15200213  0.96327272  1  0.462096  0  0.091306  0.238843  0  4.027134  0
C  C164  1  0.91546794  0.16438686  0.58465938  1  1.570482  0  0.212243  0.594404  0  4.170787  0
C  C165  1  0.41546777  0.33561432  0.41534013  1  1.570496  0  0.212287  0.594427  0  4.170764  0
C  C166  1  0.08453043  0.83561363  0.41534027  1  1.570511  0  0.212258  0.594423  0  4.170794  0
C  C167  1  0.58453232  0.66438688  0.58465906  1  1.570445  0  0.212253  0.594431  0  4.170755  0
C  C168  1  0.64199029  0.42523088  0.59301477  1  1.576874  0  0.220279  0.608693  0  4.157253  0
C  C169  1  0.14198986  0.07476942  0.40698584  1  1.576899  0  0.220296  0.608718  0  4.157398  0
C  C170  1  0.35800980  0.57476961  0.40698555  1  1.576918  0  0.220287  0.608723  0  4.157171  0
C  C171  1  0.85801196  0.92523107  0.59301381  1  1.576888  0  0.220297  0.608765  0  4.157197  0
C  C172  1  0.55689910  0.44634532  0.83555652  1  -0.045188  0  -0.245568  -0.41734  0  3.881891  0
C  C173  1  0.05689955  0.05365493  0.16444407  1  -0.045228  0  -0.245551  -0.417338  0  3.881818  0
C  C174  1  0.44310099  0.55365447  0.16444425  1  -0.045221  0  -0.245557  -0.417363  0  3.881863  0
C  C175  1  0.94310140  0.94634486  0.83555670  1  -0.045179  0  -0.245576  -0.417346  0  3.881887  0
C  C176  1  0.65708155  0.58235033  0.80081971  1  -0.044995  0  -0.253338  -0.420599  0  3.903613  0
C  C177  1  0.15708150  0.91765023  0.19917963  1  -0.044969  0  -0.25333  -0.420586  0  3.903585  0
C  C178  1  0.34291854  0.41764947  0.19917974  1  -0.044974  0  -0.253346  -0.420647  0  3.903576  0
C  C179  1  0.84291946  0.08235026  0.80082002  1  -0.044965  0  -0.253328  -0.420536  0  3.903619  0
C  C180  1  0.89956015  0.38342762  0.93856046  1  0.288034  0  -0.139804  -0.249533  0  3.954252  0
C  C181  1  0.39955982  0.11657354  0.06143971  1  0.288032  0  -0.139802  -0.249498  0  3.954258  0
C  C182  1  0.10044081  0.61657287  0.06143985  1  0.288034  0  -0.139776  -0.249486  0  3.954245  0
C  C183  1  0.60044028  0.88342765  0.93856080  1  0.288035  0  -0.139803  -0.249557  0  3.954263  0
C  C184  1  0.18586513  0.53534919  0.64698785  1  1.366213  0  0.184307  0.29719  0  4.05312  0
C  C185  1  0.68586305  0.96465068  0.35301327  1  1.366222  0  0.184281  0.297193  0  4.052955  0
C  C186  1  0.81413582  0.46464990  0.35301338  1  1.366183  0  0.184276  0.29714  0  4.053012  0
C  C187  1  0.31413445  0.03534911  0.64698750  1  1.36621  0  0.184295  0.297183  0  4.053037  0
C  C188  1  0.97754913  0.53065505  0.66688352  1  0.245459  0  -0.125467  -0.275408  0  3.893531  0
C  C189  1  0.47754738  0.96934360  0.33311590  1  0.24578  0  -0.125511  -0.275532  0  3.8936  0
C  C190  1  0.02245096  0.46934334  0.33311618  1  0.245525  0  -0.125516  -0.275512  0  3.893476  0
C  C191  1  0.52245012  0.03065479  0.66688380  1  0.245484  0  -0.125463  -0.275417  0  3.893489  0
C  C192  1  0.11354632  0.49606722  0.78137438  1  0.191022  0  -0.133077  -0.279483  0  3.883635  0
C  C193  1  0.61354638  0.00393167  0.21862582  1  0.191032  0  -0.133071  -0.279455  0  3.883627  0
C  C194  1  0.88645377  0.50393117  0.21862598  1  0.191035  0  -0.133044  -0.279442  0  3.883638  0
C  C195  1  0.38645284  0.99606602  0.78137369  1  0.190918  0  -0.133065  -0.279476  0  3.883588  0
N  N196  1  0.81441459  0.40601989  0.87879637  1  -1.173269  0  -0.299203  -0.129907  0  3.666157  0
N  N197  1  0.31441509  0.09398052  0.12120425  1  -1.173216  0  -0.299175  -0.129959  0  3.666195  0
N  N198  1  0.18558550  0.59397990  0.12120373  1  -1.173248  0  -0.299196  -0.129928  0  3.666149  0
N  N199  1  0.68558673  0.90602207  0.87879601  1  -1.173237  0  -0.299141  -0.129873  0  3.666144  0
N  N200  1  0.09578930  0.52468714  0.69783950  1  -1.212301  0  -0.274983  0.034844  0  3.714144  0
N  N201  1  0.59578809  0.97531198  0.30216075  1  -1.212304  0  -0.274975  0.034857  0  3.714144  0
N  N202  1  0.90421166  0.47531195  0.30216173  1  -1.212309  0  -0.274997  0.034865  0  3.71417  0
N  N203  1  0.40421113  0.02468641  0.69783961  1  -1.212301  0  -0.274984  0.034872  0  3.714112  0
O  O204  1  0.84882547  0.56612903  0.89948912  1  -1.037763  0  -0.167327  -0.271854  0  2.468316  0
O  O205  1  0.34882545  0.93387165  0.10050958  1  -1.037759  0  -0.167344  -0.271872  0  2.468371  0
O  O206  1  0.15117635  0.43387147  0.10050921  1  -1.037731  0  -0.167413  -0.271953  0  2.468305  0
O  O207  1  0.65117637  0.06613025  0.89948915  1  -1.037751  0  -0.167346  -0.271819  0  2.468394  0
O  O208  1  0.00308283  0.13779354  0.62168581  1  -1.172301  0  -0.321309  -0.558424  0  2.325824  0
O  O209  1  0.50308237  0.36220809  0.37831453  1  -1.172315  0  -0.321362  -0.55848  0  2.325902  0
O  O210  1  0.99691639  0.86220626  0.37831364  1  -1.172345  0  -0.321317  -0.558464  0  2.325902  0
O  O211  1  0.49691859  0.63779381  0.62168487  1  -1.172279  0  -0.321313  -0.558424  0  2.325852  0
O  O212  1  0.86897882  0.12033109  0.50810494  1  -1.171573  0  -0.320464  -0.554247  0  2.316515  0
O  O213  1  0.36897954  0.37967006  0.49189457  1  -1.171554  0  -0.320485  -0.554234  0  2.316452  0
O  O214  1  0.13101955  0.87966940  0.49189471  1  -1.171545  0  -0.320467  -0.554231  0  2.31647  0
O  O215  1  0.63102141  0.62033184  0.50810549  1  -1.171548  0  -0.320454  -0.554243  0  2.316479  0
O  O216  1  0.68019699  0.43420013  0.51711811  1  -1.173883  0  -0.316188  -0.56464  0  2.325097  0
O  O217  1  0.18019654  0.06580090  0.48288138  1  -1.173904  0  -0.316186  -0.564622  0  2.325212  0
O  O218  1  0.31980224  0.56579966  0.48288200  1  -1.173918  0  -0.316204  -0.564653  0  2.3251  0
O  O219  1  0.81980269  0.93420029  0.51711715  1  -1.173892  0  -0.316212  -0.564692  0  2.325107  0
O  O220  1  0.54269538  0.44952333  0.62760841  1  -1.164965  0  -0.304812  -0.534108  0  2.345938  0
O  O221  1  0.04269580  0.05047762  0.37239172  1  -1.164967  0  -0.30481  -0.534122  0  2.34597  0
O  O222  1  0.45730471  0.55047717  0.37239190  1  -1.164965  0  -0.304803  -0.534107  0  2.345899  0
O  O223  1  0.95730602  0.94952357  0.62760879  1  -1.164985  0  -0.304812  -0.534112  0  2.345908  0
O  O224  1  0.28896457  0.52533107  0.66919587  1  -1.156601  0  -0.29412  -0.420406  0  2.33287  0
O  O225  1  0.78896250  0.97467026  0.33080501  1  -1.156568  0  -0.294127  -0.420438  0  2.332737  0
O  O226  1  0.71103638  0.47467012  0.33080465  1  -1.156566  0  -0.29414  -0.420437  0  2.332766  0
O  O227  1  0.21103587  0.02533093  0.66919617  1  -1.156607  0  -0.294122  -0.420411  0  2.332863  0
