# generated using pymatgen
data_Mn2H43C41N7O10
_symmetry_space_group_name_H-M   'P 1'
_cell_length_a   11.95325934
_cell_length_b   11.95321727
_cell_length_c   16.06977983
_cell_angle_alpha   72.25428397
_cell_angle_beta   72.25427886
_cell_angle_gamma   77.58024755
_symmetry_Int_Tables_number   1
_chemical_formula_structural   Mn2H43C41N7O10
_chemical_formula_sum   'Mn4 H86 C82 N14 O20'
_cell_volume   2063.77123852
_cell_formula_units_Z   2
loop_
 _symmetry_equiv_pos_site_id
 _symmetry_equiv_pos_as_xyz
  1  'x, y, z'
loop_
 _atom_site_type_symbol
 _atom_site_label
 _atom_site_symmetry_multiplicity
 _atom_site_fract_x
 _atom_site_fract_y
 _atom_site_fract_z
 _atom_site_occupancy
 _atom_site_pbe_bader_charge
 _atom_site_pbe_bader_spin_density
 _atom_site_pbe_cm5_charge
 _atom_site_pbe_ddec_charge
 _atom_site_pbe_ddec_spin_density
 _atom_site_pbe_ddec_sum_bond_order
 _atom_site_pbe_magmom
Mn  Mn0  1  0.82964945  0.60700998  0.05224174  1  1.507486  4.536066  0.597661  0.941226  4.666096  2.354325  4.459
Mn  Mn1  1  0.39299290  0.17035103  0.44775692  1  1.507499  4.536061  0.597681  0.94122  4.666116  2.354315  4.459
Mn  Mn2  1  0.17035230  0.39299028  0.94775957  1  1.507518  4.536062  0.597662  0.941215  4.666109  2.354304  4.459
Mn  Mn3  1  0.60701239  0.82965228  0.55223916  1  1.507424  4.536079  0.597675  0.941203  4.66607  2.354282  4.459
H  H4  1  0.19785429  0.33915469  0.21815576  1  0.111569  0.000511  0.101171  0.105319  -9.9e-05  1.070211  0.0
H  H5  1  0.66084615  0.80214391  0.28184528  1  0.111558  0.000511  0.101182  0.105369  -9.9e-05  1.0702  0.0
H  H6  1  0.80214480  0.66084505  0.78184564  1  0.111521  0.000511  0.101167  0.105358  -9.9e-05  1.070191  0.0
H  H7  1  0.33915295  0.19785407  0.71815403  1  0.111556  0.000511  0.101167  0.105318  -9.9e-05  1.07022  0.0
H  H8  1  0.82805624  0.57202544  0.46879976  1  0.499342  0.000445  0.295438  0.25784  -1.2e-05  1.019543  0.0
H  H9  1  0.42797723  0.17194301  0.03119983  1  0.498804  0.000445  0.295445  0.257839  -1.2e-05  1.019556  0.0
H  H10  1  0.17194284  0.42797869  0.53119940  1  0.498815  0.000445  0.295423  0.257792  -1.2e-05  1.019611  0.0
H  H11  1  0.57202274  0.82805924  0.96880080  1  0.498796  0.000445  0.29548  0.257897  -1.2e-05  1.019586  0.0
H  H12  1  0.72285791  0.35590437  0.49733473  1  0.092136  0.000548  0.10429  0.109013  0.00029  1.030954  0.0
H  H13  1  0.64409594  0.27713992  0.00266442  1  0.092089  0.000548  0.104259  0.108981  0.000291  1.03098  0.0
H  H14  1  0.27714029  0.64409812  0.50266625  1  0.092122  0.000548  0.104277  0.108989  0.00029  1.031003  0.0
H  H15  1  0.35590404  0.72285707  0.99733615  1  0.091926  0.000548  0.104277  0.109002  0.000291  1.030963  0.0
H  H16  1  0.84175856  0.51759871  0.25284594  1  0.099193  0.00025  0.1093  0.121073  0.000162  1.04333  0.0
H  H17  1  0.48239366  0.15823728  0.24715734  1  0.099294  0.00025  0.109286  0.12107  0.000162  1.043298  0.0
H  H18  1  0.15824141  0.48240266  0.74715489  1  0.099219  0.000249  0.109311  0.121104  0.000162  1.043258  0.0
H  H19  1  0.51760101  0.84175953  0.75284447  1  0.099187  0.000249  0.109298  0.121071  0.000162  1.043312  0.0
H  H20  1  0.01446245  0.42664835  0.47017251  1  0.044792  0.000558  0.101537  0.109915  0.000245  1.035385  0.0
H  H21  1  0.57335356  0.98553640  0.02982825  1  0.044807  0.000558  0.10155  0.109923  0.000245  1.035379  0.0
H  H22  1  0.98553929  0.57335542  0.52982676  1  0.044898  0.000558  0.101555  0.10994  0.000245  1.03534  0.0
H  H23  1  0.42664376  0.01446182  0.97017202  1  0.044912  0.000558  0.10155  0.109922  0.000245  1.03532  0.0
H  H24  1  0.52875216  0.60183135  0.31592804  1  0.093225  0.000755  0.10763  0.11643  0.000306  1.004547  0.0
H  H25  1  0.39817267  0.47124699  0.18407079  1  0.093293  0.000755  0.107631  0.116444  0.000306  1.004521  0.0
H  H26  1  0.47124604  0.39816850  0.68407042  1  0.093229  0.000755  0.107647  0.116469  0.000306  1.004573  0.0
H  H27  1  0.60182996  0.52875931  0.81592523  1  0.09297  0.000755  0.10762  0.116481  0.000306  1.004563  0.0
H  H28  1  0.72974199  0.63387531  0.31961579  1  0.097078  0.000454  0.108625  0.09416  -5.3e-05  1.027689  0.0
H  H29  1  0.36612407  0.27025865  0.18038430  1  0.097073  0.000454  0.10862  0.094157  -5.3e-05  1.02769  0.0
H  H30  1  0.27025710  0.36612442  0.68038374  1  0.097076  0.000454  0.108626  0.094157  -5.3e-05  1.027683  0.0
H  H31  1  0.63387679  0.72974172  0.81961718  1  0.097097  0.000454  0.108614  0.09413  -5.3e-05  1.027727  0.0
H  H32  1  0.65990128  0.64982316  0.42954734  1  0.09171  0.000666  0.120313  0.109594  0.000244  1.004329  0.0
H  H33  1  0.35017765  0.34009782  0.07045218  1  0.091711  0.000666  0.120299  0.109587  0.000244  1.004325  0.0
H  H34  1  0.34009869  0.35017910  0.57045080  1  0.091779  0.000666  0.120311  0.109609  0.000244  1.004268  0.0
H  H35  1  0.64982143  0.65990191  0.92955046  1  0.091754  0.000666  0.120298  0.109571  0.000244  1.004279  0.0
H  H36  1  0.59292913  0.20491976  0.51679626  1  0.109344  0.001619  0.119393  0.085659  0.000825  1.007609  0.001
H  H37  1  0.79508153  0.40706918  0.98320207  1  0.109328  0.001619  0.119398  0.085672  0.000825  1.007558  0.001
H  H38  1  0.40707261  0.79508226  0.48320403  1  0.109348  0.001619  0.119425  0.085705  0.000825  1.007549  0.001
H  H39  1  0.20492023  0.59292669  0.01679649  1  0.109377  0.001619  0.119399  0.085637  0.000826  1.007632  0.001
H  H40  1  0.40679355  0.44122209  0.34236303  1  0.088678  0.001192  0.114049  0.07637  0.000469  1.028383  0.001
H  H41  1  0.55878047  0.59320282  0.15763923  1  0.088602  0.001192  0.114056  0.076414  0.00047  1.028369  0.001
H  H42  1  0.59320643  0.55877490  0.65763817  1  0.088644  0.001192  0.114044  0.076371  0.000469  1.028354  0.001
H  H43  1  0.44122394  0.40679973  0.84235536  1  0.088487  0.001192  0.114076  0.076435  0.000469  1.028327  0.001
H  H44  1  0.99983120  0.78103689  0.89994921  1  0.123346  0.001113  0.127195  0.055455  0.000402  0.999807  0.0
H  H45  1  0.21896117  0.00016771  0.60005103  1  0.123368  0.001113  0.12718  0.055444  0.000402  0.999859  0.0
H  H46  1  0.00016966  0.21896349  0.10004916  1  0.123369  0.001113  0.127195  0.055427  0.000402  0.999879  0.0
H  H47  1  0.78103615  0.99983227  0.39995009  1  0.123372  0.001113  0.127199  0.055439  0.000402  0.999882  0.0
H  H48  1  0.18585536  0.92174590  0.01489875  1  0.07531  0.000179  0.110923  0.131055  8.1e-05  0.986356  0.0
H  H49  1  0.07825131  0.81414178  0.48510235  1  0.075232  0.000179  0.110918  0.13099  8.1e-05  0.986364  0.0
H  H50  1  0.81414107  0.07825243  0.98510543  1  0.075237  0.000179  0.110963  0.131052  8.1e-05  0.986415  0.0
H  H51  1  0.92175045  0.18585762  0.51489479  1  0.075219  0.000179  0.110941  0.131017  8.1e-05  0.986366  0.0
H  H52  1  0.14760540  0.77665260  0.07622689  1  0.072677  0.00034  0.104801  0.116002  9e-05  1.011475  0.0
H  H53  1  0.22334555  0.85238899  0.42377457  1  0.072793  0.00034  0.104782  0.115937  9e-05  1.011487  0.0
H  H54  1  0.85239281  0.22334462  0.92377465  1  0.072725  0.00034  0.104779  0.115965  9e-05  1.011422  0.0
H  H55  1  0.77665619  0.14761304  0.57622385  1  0.072814  0.00034  0.104797  0.115976  9e-05  1.011451  0.0
H  H56  1  0.03731117  0.90144366  0.07905155  1  0.083916  0.000307  0.107107  0.126005  0.000103  1.001366  0.0
H  H57  1  0.09855571  0.96268481  0.42094814  1  0.083977  0.000307  0.107079  0.125965  0.000103  1.001356  0.0
H  H58  1  0.96268438  0.09855216  0.92095091  1  0.083992  0.000307  0.107092  0.126033  0.000103  1.001405  0.0
H  H59  1  0.90144427  0.03731569  0.57905040  1  0.083974  0.000307  0.107073  0.125971  0.000103  1.001388  0.0
H  H60  1  0.16541134  0.00427312  0.86625904  1  0.080433  0.000265  0.106396  0.124149  0.000139  0.999856  0.0
H  H61  1  0.99572429  0.83458892  0.63374044  1  0.080403  0.000265  0.106368  0.124125  0.000139  0.999873  0.0
H  H62  1  0.83458864  0.99572650  0.13374156  1  0.080426  0.000265  0.106377  0.124143  0.000139  0.999896  0.0
H  H63  1  0.00427392  0.16541182  0.36625844  1  0.080428  0.000265  0.106395  0.124161  0.000139  0.999841  0.0
H  H64  1  0.10964888  0.92178321  0.81613463  1  0.094027  0.000136  0.103902  0.110634  5.8e-05  1.047409  0.0
H  H65  1  0.07821583  0.89034725  0.68386583  1  0.094114  0.000136  0.103935  0.11069  5.8e-05  1.047389  0.0
H  H66  1  0.89035730  0.07821119  0.18386575  1  0.093959  0.000136  0.103906  0.110617  5.8e-05  1.047513  0.0
H  H67  1  0.92178772  0.10964311  0.31613481  1  0.094073  0.000136  0.103896  0.110622  5.8e-05  1.047486  0.0
H  H68  1  0.24789435  0.86748430  0.84726781  1  0.05724  0.000366  0.098153  0.118317  0.000175  1.008865  0.0
H  H69  1  0.13251120  0.75210327  0.65273179  1  0.057239  0.000365  0.098173  0.11834  0.000175  1.008861  0.0
H  H70  1  0.75210827  0.13251408  0.15273621  1  0.057266  0.000365  0.098169  0.118342  0.000175  1.008846  0.0
H  H71  1  0.86748526  0.24789245  0.34726365  1  0.057253  0.000366  0.098141  0.118288  0.000175  1.008856  0.0
H  H72  1  0.86340741  0.88220553  0.28285446  1  0.032472  9.4e-05  0.089566  0.127231  -5e-05  1.036617  0.0
H  H73  1  0.11779697  0.13659641  0.21714115  1  0.032495  9.4e-05  0.089537  0.127204  -5e-05  1.036591  0.0
H  H74  1  0.13659345  0.11779661  0.71714289  1  0.032528  9.4e-05  0.08956  0.127237  -5e-05  1.036554  0.0
H  H75  1  0.88220390  0.86340485  0.78285639  1  0.032488  9.4e-05  0.089569  0.127235  -5e-05  1.036605  0.0
H  H76  1  0.89000685  0.75749303  0.37158964  1  0.066561  7.6e-05  0.09766  0.154282  -0.00027  1.012927  0.0
H  H77  1  0.24251208  0.10999423  0.12840780  1  0.066477  7.6e-05  0.097648  0.154314  -0.000269  1.012999  0.0
H  H78  1  0.10999135  0.24250947  0.62840823  1  0.06651  7.6e-05  0.097647  0.154308  -0.000269  1.012936  0.0
H  H79  1  0.75749144  0.89000492  0.87159149  1  0.066506  7.6e-05  0.097644  0.154301  -0.00027  1.01293  0.0
H  H80  1  0.90770637  0.73842103  0.26287157  1  0.038659  6.4e-05  0.096499  0.148098  -7.6e-05  0.995071  0.0
H  H81  1  0.26157999  0.09229803  0.23712727  1  0.038685  6.4e-05  0.096495  0.148081  -7.6e-05  0.995089  0.0
H  H82  1  0.09229537  0.26158099  0.73712623  1  0.038622  6.4e-05  0.096515  0.148114  -7.6e-05  0.9951  0.0
H  H83  1  0.73841998  0.90770335  0.76287294  1  0.038694  6.4e-05  0.096494  0.148078  -7.6e-05  0.995104  0.0
H  H84  1  0.32875505  0.67124439  0.25000493  1  0.045517  0.000101  0.098466  0.091425  3.6e-05  1.005054  0.0
H  H85  1  0.67124314  0.32875457  0.75000431  1  0.045465  0.000101  0.098474  0.091426  3.6e-05  1.005027  0.0
H  H86  1  0.11837543  0.63102119  0.29190945  1  0.093781  7.9e-05  0.095581  0.10957  5e-05  1.041201  0.0
H  H87  1  0.36898039  0.88162435  0.20809620  1  0.09374  7.9e-05  0.095583  0.109602  5e-05  1.04116  0.0
H  H88  1  0.88162187  0.36897965  0.70809646  1  0.093773  7.9e-05  0.095608  0.109619  5e-05  1.041203  0.0
H  H89  1  0.63102046  0.11837514  0.79190922  1  0.093757  7.9e-05  0.095613  0.109647  5e-05  1.041133  0.0
C  C90  1  0.12025691  0.38043088  0.25958306  1  -0.001131  0.009506  -0.102758  -0.161879  0.006945  3.994439  0.006
C  C91  1  0.61956723  0.87974108  0.24041744  1  -0.001266  0.009507  -0.102787  -0.162025  0.006945  3.994493  0.006
C  C92  1  0.87974306  0.61956874  0.74041817  1  -0.001188  0.009506  -0.102826  -0.162071  0.006945  3.994592  0.006
C  C93  1  0.38043187  0.12025690  0.75958062  1  -0.001587  0.009507  -0.102796  -0.161993  0.006945  3.994564  0.006
C  C94  1  0.01994319  0.42965469  0.22698012  1  -0.06376  0.00078  -0.023189  -0.028185  -0.000473  4.03224  -0.001
C  C95  1  0.57034513  0.98005525  0.27301996  1  -0.06378  0.00078  -0.023245  -0.028149  -0.000473  4.032204  -0.001
C  C96  1  0.98005767  0.57034569  0.77302074  1  -0.063776  0.00078  -0.02314  -0.028081  -0.000473  4.032289  -0.001
C  C97  1  0.42965486  0.01994173  0.72697875  1  -0.063417  0.00078  -0.023164  -0.028062  -0.000473  4.03225  -0.001
C  C98  1  0.91568809  0.48527544  0.36793345  1  0.432216  -0.000657  0.097523  0.233783  -0.000857  4.100665  -0.001
C  C99  1  0.51472584  0.08431089  0.13206644  1  0.432107  -0.000657  0.097501  0.233745  -0.000857  4.100728  -0.001
C  C100  1  0.08431188  0.51472769  0.63206636  1  0.432196  -0.000657  0.097544  0.233794  -0.000857  4.100687  -0.001
C  C101  1  0.48527414  0.91568961  0.86793272  1  0.432198  -0.000657  0.09754  0.233813  -0.000857  4.100612  -0.001
C  C102  1  0.65342690  0.37747635  0.46185181  1  -0.050373  -0.000173  -0.089463  -0.187177  -0.000659  3.96388  0.0
C  C103  1  0.62252350  0.34657163  0.03814734  1  -0.050482  -0.000172  -0.089419  -0.187153  -0.000658  3.964002  0.0
C  C104  1  0.34657308  0.62252503  0.53814716  1  -0.05041  -0.000172  -0.089492  -0.187195  -0.000658  3.963955  0.0
C  C105  1  0.37747737  0.65342612  0.96185225  1  -0.050204  -0.000172  -0.089473  -0.187178  -0.000659  3.96396  0.0
C  C106  1  0.11738185  0.37982552  0.34739999  1  -0.013039  -0.001836  -0.028761  -0.030789  -0.002849  4.0637  -0.002
C  C107  1  0.62017601  0.88261648  0.15260029  1  -0.012942  -0.001836  -0.028693  -0.030634  -0.002849  4.063646  -0.002
C  C108  1  0.88261812  0.62017761  0.65259920  1  -0.012915  -0.001836  -0.028712  -0.03073  -0.002849  4.063691  -0.002
C  C109  1  0.37982308  0.11738414  0.84739904  1  -0.012896  -0.001836  -0.028686  -0.030635  -0.002849  4.063705  -0.002
C  C110  1  0.91813620  0.48062440  0.28062132  1  -0.054982  0.008579  -0.094868  -0.211054  0.006652  3.912402  0.005
C  C111  1  0.51936961  0.08186084  0.21938127  1  -0.054978  0.008579  -0.094846  -0.211093  0.006653  3.912305  0.005
C  C112  1  0.08186288  0.51937709  0.71937969  1  -0.054982  0.008578  -0.094922  -0.211137  0.006652  3.912408  0.005
C  C113  1  0.48062594  0.91813761  0.78061935  1  -0.054986  0.008578  -0.094901  -0.211167  0.006652  3.912443  0.005
C  C114  1  0.22060005  0.31781321  0.38525780  1  1.518608  0.007695  0.199611  0.550023  0.00903  4.218056  0.006
C  C115  1  0.68218792  0.77939873  0.11474177  1  1.518535  0.007696  0.199645  0.550065  0.00903  4.218023  0.006
C  C116  1  0.77940081  0.68219069  0.61474102  1  1.518512  0.007695  0.199578  0.550007  0.00903  4.218086  0.006
C  C117  1  0.31780940  0.22060124  0.88525686  1  1.518508  0.007695  0.199597  0.549958  0.00903  4.21834  0.006
C  C118  1  0.63570808  0.49096615  0.40522803  1  0.03167  0.005934  0.017776  0.155556  0.00446  3.914024  0.004
C  C119  1  0.50903559  0.36428996  0.09477085  1  0.031656  0.005933  0.017772  0.155547  0.004459  3.914044  0.004
C  C120  1  0.36429101  0.50903535  0.59477048  1  0.031677  0.005932  0.017792  0.155555  0.004458  3.914076  0.004
C  C121  1  0.49096438  0.63570966  0.90522914  1  0.031663  0.005933  0.017749  0.155501  0.004459  3.91411  0.004
C  C122  1  0.01629839  0.43133343  0.40100298  1  -0.068503  0.008734  -0.099772  -0.217795  0.006746  3.95176  0.005
C  C123  1  0.56866613  0.98369968  0.09899786  1  -0.068467  0.008734  -0.099817  -0.217878  0.006746  3.951839  0.005
C  C124  1  0.98370157  0.56866970  0.59899746  1  -0.068492  0.008733  -0.099813  -0.217837  0.006745  3.951803  0.005
C  C125  1  0.43133119  0.01630030  0.90100139  1  -0.068479  0.008733  -0.099831  -0.217844  0.006746  3.951758  0.005
C  C126  1  0.02111577  0.42405606  0.13478246  1  1.554764  0.034856  0.224663  0.592804  0.033786  4.164168  0.03
C  C127  1  0.57594472  0.97888157  0.36521703  1  1.55513  0.034851  0.224652  0.592751  0.033786  4.164212  0.03
C  C128  1  0.97888065  0.57594491  0.86521989  1  1.555137  0.034849  0.224656  0.592792  0.033785  4.164187  0.03
C  C129  1  0.42405526  0.02111630  0.63478086  1  1.555075  0.03485  0.224665  0.592723  0.033787  4.164194  0.03
C  C130  1  0.54521573  0.51482540  0.36138773  1  -0.043417  -4.5e-05  -0.08531  -0.184804  -0.000579  3.953003  0.0
C  C131  1  0.48517618  0.45478438  0.13860952  1  -0.043357  -4.5e-05  -0.085311  -0.184821  -0.000579  3.952901  0.0
C  C132  1  0.45478514  0.48517235  0.63861123  1  -0.043416  -4.4e-05  -0.085308  -0.184821  -0.000578  3.953025  0.0
C  C133  1  0.51483000  0.54521442  0.86138925  1  -0.043172  -4.4e-05  -0.085334  -0.184896  -0.000578  3.952936  0.0
C  C134  1  0.71101827  0.58482763  0.39161888  1  0.326738  0.000409  -0.055748  -0.08087  0.000238  3.933986  0.0
C  C135  1  0.41517163  0.28897963  0.10838122  1  0.32677  0.000409  -0.055794  -0.080887  0.000238  3.934034  0.0
C  C136  1  0.28897993  0.41517486  0.60838023  1  0.326723  0.000409  -0.055778  -0.080884  0.000238  3.93396  0.0
C  C137  1  0.58482658  0.71102023  0.89161973  1  0.326733  0.000409  -0.055764  -0.080787  0.000238  3.933964  0.0
C  C138  1  0.58208868  0.29385652  0.47240964  1  0.445283  0.007618  0.049015  0.095708  0.005968  3.953235  0.005
C  C139  1  0.70614328  0.41790885  0.02758911  1  0.445428  0.007615  0.048987  0.095678  0.005967  3.953273  0.005
C  C140  1  0.41791218  0.70614299  0.52759017  1  0.445286  0.007615  0.049019  0.095685  0.005966  3.953294  0.005
C  C141  1  0.29385937  0.58208691  0.97240990  1  0.445254  0.007616  0.049025  0.095786  0.005967  3.953372  0.005
C  C142  1  0.47772032  0.42632980  0.37554866  1  0.465356  0.006922  0.047109  0.091902  0.005421  3.971407  0.005
C  C143  1  0.57367546  0.52227716  0.12445083  1  0.465611  0.006919  0.047194  0.091909  0.005419  3.97144  0.005
C  C144  1  0.52228143  0.57366959  0.62444973  1  0.46552  0.006919  0.0471  0.091872  0.005419  3.971591  0.005
C  C145  1  0.42632807  0.47772288  0.87554514  1  0.465553  0.00692  0.047191  0.091975  0.00542  3.97139  0.005
C  C146  1  0.01450842  0.78238135  0.96409801  1  1.355968  0.004507  0.182479  0.30446  0.004667  4.078539  0.004
C  C147  1  0.21761521  0.98548950  0.53590321  1  1.355916  0.004506  0.182536  0.304443  0.004666  4.078557  0.004
C  C148  1  0.98548979  0.21761587  0.03590354  1  1.355779  0.004506  0.182521  0.304515  0.004666  4.078527  0.004
C  C149  1  0.78238299  0.01451035  0.46409712  1  1.355882  0.004507  0.182515  0.304491  0.004667  4.078598  0.004
C  C150  1  0.11741762  0.86372022  0.03573731  1  0.236483  0.000312  -0.131198  -0.269373  9.3e-05  3.888236  0.0
C  C151  1  0.13627858  0.88257855  0.46426366  1  0.236408  0.000312  -0.131137  -0.269185  9.3e-05  3.888099  0.0
C  C152  1  0.88257970  0.13627712  0.96426503  1  0.236448  0.000312  -0.131227  -0.269396  9.3e-05  3.88831  0.0
C  C153  1  0.86372228  0.11742183  0.53573471  1  0.236376  0.000312  -0.131152  -0.26922  9.3e-05  3.888168  0.0
C  C154  1  0.15790652  0.91445820  0.86611958  1  0.230134  0.000972  -0.134909  -0.284646  0.000886  3.910829  0.001
C  C155  1  0.08553960  0.84209176  0.63388065  1  0.230323  0.000972  -0.134929  -0.284717  0.000886  3.910812  0.001
C  C156  1  0.84209523  0.08554030  0.13388212  1  0.23015  0.000972  -0.134916  -0.284664  0.000886  3.910896  0.001
C  C157  1  0.91445950  0.15790447  0.36611843  1  0.230161  0.000972  -0.134893  -0.284604  0.000886  3.910783  0.001
C  C158  1  0.04756975  0.81729640  0.27293804  1  0.511178  5.1e-05  0.115745  0.318033  5.7e-05  3.991793  0.0
C  C159  1  0.18270620  0.95243216  0.22706203  1  0.511225  5.1e-05  0.115735  0.318034  5.7e-05  3.991789  0.0
C  C160  1  0.95243022  0.18270497  0.72706341  1  0.511418  5.1e-05  0.115743  0.318015  5.7e-05  3.99185  0.0
C  C161  1  0.81729377  0.04756834  0.77293900  1  0.511212  5.1e-05  0.115705  0.317945  5.7e-05  3.991866  0.0
C  C162  1  0.92031751  0.79792157  0.29867441  1  -0.03654  0.000126  -0.244058  -0.458015  -3e-06  3.911872  0.0
C  C163  1  0.20208223  0.07968428  0.20132317  1  -0.036595  0.000126  -0.243998  -0.457985  -3e-06  3.911943  0.0
C  C164  1  0.07968157  0.20208168  0.70132371  1  -0.0365  0.000126  -0.244046  -0.458053  -3e-06  3.911976  0.0
C  C165  1  0.79791952  0.92031598  0.79867627  1  -0.036616  0.000126  -0.244019  -0.457979  -3e-06  3.911938  0.0
C  C166  1  0.25578497  0.74421659  0.25000387  1  -0.048909  0.000114  -0.084973  -0.03827  7.7e-05  4.055761  0.0
C  C167  1  0.74421410  0.25578489  0.75000337  1  -0.048784  0.000114  -0.084998  -0.038289  7.7e-05  4.055621  0.0
C  C168  1  0.13909475  0.72139090  0.27348958  1  -0.09506  6e-05  -0.103249  -0.212044  5.4e-05  3.95704  0.0
C  C169  1  0.27861048  0.86090617  0.22651464  1  -0.095071  6e-05  -0.103289  -0.212166  5.4e-05  3.957258  0.0
C  C170  1  0.86090433  0.27860970  0.72651536  1  -0.095336  6e-05  -0.103315  -0.21214  5.4e-05  3.957096  0.0
C  C171  1  0.72138949  0.13909344  0.77349033  1  -0.095112  6e-05  -0.103264  -0.212105  5.4e-05  3.957069  0.0
N  N172  1  0.81763196  0.53696248  0.42140377  1  -1.242661  2.5e-05  -0.451257  -0.348664  -0.000247  3.605623  0.0
N  N173  1  0.46303569  0.18236456  0.07859806  1  -1.242133  2.4e-05  -0.451193  -0.348575  -0.000248  3.605748  0.0
N  N174  1  0.18236624  0.46304001  0.57859596  1  -1.242156  2.5e-05  -0.4512  -0.348542  -0.000247  3.605584  0.0
N  N175  1  0.53696251  0.81763529  0.92140289  1  -1.242124  2.5e-05  -0.451258  -0.348699  -0.000247  3.605668  0.0
N  N176  1  0.49535431  0.31696505  0.42985121  1  -1.279051  0.051523  -0.319999  -0.25097  0.035051  3.507313  0.017
N  N177  1  0.68303624  0.50464321  0.07014787  1  -1.279156  0.051522  -0.320041  -0.250967  0.03505  3.507429  0.017
N  N178  1  0.50464745  0.68303258  0.57014757  1  -1.279041  0.051519  -0.319996  -0.250951  0.035048  3.507482  0.017
N  N179  1  0.31696640  0.49535606  0.92985034  1  -1.279021  0.051527  -0.320022  -0.251087  0.035052  3.507554  0.017
N  N180  1  0.09215332  0.85337213  0.95525682  1  -1.204139  0.005312  -0.283468  0.018996  0.003713  3.72074  0.004
N  N181  1  0.14662793  0.90784526  0.54474284  1  -1.204367  0.005311  -0.28349  0.019021  0.003713  3.720716  0.004
N  N182  1  0.90784666  0.14662573  0.04474481  1  -1.204077  0.00531  -0.283457  0.019014  0.003712  3.720705  0.004
N  N183  1  0.85337116  0.09215448  0.45525669  1  -1.204158  0.005312  -0.283497  0.018912  0.003713  3.720766  0.004
N  N184  1  0.06958296  0.93041975  0.24999871  1  -1.212805  5.4e-05  -0.32723  -0.397329  2.7e-05  3.242597  0.0
N  N185  1  0.93041790  0.06958151  0.75000009  1  -1.21282  5.4e-05  -0.327216  -0.397296  2.7e-05  3.242644  0.0
O  O186  1  0.21352812  0.30575263  0.46849301  1  -1.201787  0.044307  -0.31085  -0.566381  0.032426  2.228024  0.024
O  O187  1  0.69424972  0.78647295  0.03150639  1  -1.201807  0.04431  -0.31085  -0.566407  0.032428  2.228084  0.024
O  O188  1  0.78647538  0.69425443  0.53150450  1  -1.201809  0.04431  -0.310836  -0.56636  0.032427  2.228088  0.024
O  O189  1  0.30574937  0.21352855  0.96849212  1  -1.201762  0.044311  -0.310909  -0.566408  0.032428  2.22816  0.024
O  O190  1  0.31397656  0.27491322  0.33387558  1  -1.194084  0.051856  -0.314223  -0.555457  0.036457  2.238432  0.025
O  O191  1  0.72508440  0.68602031  0.16612454  1  -1.194035  0.051856  -0.314229  -0.555469  0.036457  2.238419  0.025
O  O192  1  0.68602342  0.72508816  0.66612338  1  -1.194001  0.051852  -0.314216  -0.555446  0.036456  2.238353  0.025
O  O193  1  0.27490939  0.31397750  0.83387414  1  -1.194076  0.051853  -0.314152  -0.555417  0.036457  2.238551  0.025
O  O194  1  0.11972682  0.38586944  0.08617902  1  -1.202222  0.079354  -0.309378  -0.557058  0.055705  2.343814  0.037
O  O195  1  0.61413325  0.88027018  0.41382005  1  -1.202293  0.079358  -0.309379  -0.557064  0.055706  2.343835  0.037
O  O196  1  0.88027138  0.61413218  0.91382153  1  -1.202308  0.079351  -0.30936  -0.557083  0.055706  2.343907  0.037
O  O197  1  0.38586761  0.11972845  0.58617809  1  -1.202276  0.07935  -0.309424  -0.557109  0.055706  2.34387  0.037
O  O198  1  0.92438242  0.45335977  0.11054979  1  -1.219487  0.076802  -0.322679  -0.580482  0.053317  2.372621  0.032
O  O199  1  0.54663795  0.07561377  0.38945028  1  -1.219788  0.076811  -0.32265  -0.580426  0.053317  2.372694  0.032
O  O200  1  0.07561490  0.54663756  0.88945317  1  -1.219798  0.076803  -0.322694  -0.580455  0.053315  2.372578  0.032
O  O201  1  0.45336381  0.92438475  0.61054644  1  -1.219778  0.076802  -0.322661  -0.580366  0.053314  2.37262  0.032
O  O202  1  0.96171213  0.72167159  0.03901203  1  -1.183144  0.050268  -0.289094  -0.45089  0.034746  2.331502  0.022
O  O203  1  0.27833044  0.03828478  0.46098762  1  -1.183037  0.050265  -0.289135  -0.450891  0.034745  2.331351  0.022
O  O204  1  0.03828518  0.27832927  0.96098703  1  -1.183038  0.050265  -0.289122  -0.450896  0.034746  2.331346  0.022
O  O205  1  0.72166953  0.96171660  0.53901197  1  -1.182986  0.050257  -0.289136  -0.450888  0.034748  2.331406  0.022
