# generated using pymatgen
data_SrZnH18C14(NO7)2
_symmetry_space_group_name_H-M   'P 1'
_cell_length_a   7.08182107
_cell_length_b   9.86590700
_cell_length_c   16.67227977
_cell_angle_alpha   81.53873990
_cell_angle_beta   77.73348501
_cell_angle_gamma   68.94937200
_symmetry_Int_Tables_number   1
_chemical_formula_structural   SrZnH18C14(NO7)2
_chemical_formula_sum   'Sr2 Zn2 H36 C28 N4 O28'
_cell_volume   1059.10134673
_cell_formula_units_Z   2
loop_
 _symmetry_equiv_pos_site_id
 _symmetry_equiv_pos_as_xyz
  1  'x, y, z'
loop_
 _atom_site_type_symbol
 _atom_site_label
 _atom_site_symmetry_multiplicity
 _atom_site_fract_x
 _atom_site_fract_y
 _atom_site_fract_z
 _atom_site_occupancy
 _atom_site_hle17_bader_spin_density
 _atom_site_hle17_ddec_charge
 _atom_site_hle17_ddec_spin_density
 _atom_site_hle17_ddec_sum_bond_order
 _atom_site_hle17_magmom
 _atom_site_hse06_10hf_bader_spin_density
 _atom_site_hse06_10hf_ddec_charge
 _atom_site_hse06_10hf_ddec_spin_density
 _atom_site_hse06_10hf_ddec_sum_bond_order
 _atom_site_hse06_10hf_magmom
 _atom_site_hse06_bader_spin_density
 _atom_site_hse06_ddec_charge
 _atom_site_hse06_ddec_spin_density
 _atom_site_hse06_ddec_sum_bond_order
 _atom_site_hse06_magmom
 _atom_site_pbe_bader_spin_density
 _atom_site_pbe_cm5_charge
 _atom_site_pbe_ddec_charge
 _atom_site_pbe_ddec_spin_density
 _atom_site_pbe_ddec_sum_bond_order
 _atom_site_pbe_magmom
Sr  Sr0  1  0.47911144  0.25013697  0.75003775  1  0  1.604686  0  1.075298  0  0  1.4655  0  1.440751  0  0  1.501886  0  1.396473  0  0  0.892037  1.438473  0  1.472617  0
Sr  Sr1  1  0.52088752  0.74986345  0.24996526  1  0  1.604673  0  1.075336  0  0  1.465507  0  1.440741  0  0  1.501901  0  1.396461  0  0  0.892055  1.438491  0  1.472605  0
Zn  Zn2  1  0.99999925  0.49999901  0.50000109  1  0  1.039799  0  1.823204  0  0  0.854538  0  2.271955  0  0  0.899616  0  2.22204  0  0  0.680087  0.823532  0  2.305464  0
Zn  Zn3  1  0.00000396  0.99999770  0.99999889  1  0  1.038709  0  1.823215  0  0  0.85389  0  2.270942  0  0  0.898948  0  2.221067  0  0  0.67994  0.822397  0  2.305936  0
H  H4  1  0.27390845  0.02390161  0.81936406  1  0  0.429802  0  0.865986  0  0  0.400851  0  0.925691  0  0  0.411642  0  0.909871  0  0  0.295853  0.393122  0  0.937051  0
H  H5  1  0.11683740  0.47634238  0.68057425  1  0  0.430966  0  0.864404  0  0  0.401784  0  0.924538  0  0  0.412597  0  0.908701  0  0  0.296387  0.39407  0  0.935823  0
H  H6  1  0.72609686  0.97609690  0.18063490  1  0  0.429874  0  0.865889  0  0  0.400931  0  0.925577  0  0  0.411722  0  0.909757  0  0  0.295886  0.393202  0  0.936943  0
H  H7  1  0.88315981  0.52365709  0.31942660  1  0  0.430973  0  0.864393  0  0  0.401781  0  0.924537  0  0  0.412596  0  0.908696  0  0  0.296412  0.394068  0  0.935821  0
H  H8  1  0.13572460  0.09847643  0.75088639  1  0  0.42671  0  0.843875  0  0  0.399339  0  0.911312  0  0  0.408316  0  0.89812  0  0  0.309995  0.392912  0  0.920804  0
H  H9  1  0.98484696  0.40166315  0.74899176  1  0  0.426788  0  0.845192  0  0  0.399205  0  0.91193  0  0  0.408182  0  0.898739  0  0  0.309637  0.392748  0  0.921449  0
H  H10  1  0.86427788  0.90152188  0.24911559  1  0  0.426666  0  0.843907  0  0  0.399297  0  0.911364  0  0  0.408274  0  0.898172  0  0  0.309974  0.392873  0  0.92085  0
H  H11  1  0.01515173  0.59833540  0.25100658  1  0  0.426768  0  0.845172  0  0  0.399187  0  0.911941  0  0  0.408165  0  0.89875  0  0  0.309641  0.39273  0  0.921461  0
H  H12  1  0.83939956  0.99501715  0.73550256  1  0  0.413475  0  0.861691  0  0  0.392611  0  0.921041  0  0  0.401697  0  0.90757  0  0  0.306179  0.386085  0  0.93076  0
H  H13  1  0.56980201  0.50501899  0.76460437  1  0  0.413586  0  0.862527  0  0  0.392831  0  0.920994  0  0  0.401934  0  0.907492  0  0  0.306056  0.386317  0  0.930704  0
H  H14  1  0.16059558  0.00498238  0.26449744  1  0  0.413488  0  0.861725  0  0  0.392625  0  0.921033  0  0  0.401712  0  0.907562  0  0  0.306179  0.386099  0  0.930752  0
H  H15  1  0.43019569  0.49498369  0.23539726  1  0  0.41362  0  0.862526  0  0  0.392867  0  0.92095  0  0  0.401967  0  0.907451  0  0  0.306096  0.386354  0  0.930659  0
H  H16  1  0.79266384  0.02262613  0.82805491  1  0  0.41207  0  0.897517  0  0  0.379751  0  0.96451  0  0  0.391119  0  0.947752  0  0  0.290111  0.371644  0  0.97648  0
H  H17  1  0.64297018  0.47764289  0.67201139  1  0  0.412513  0  0.89696  0  0  0.379855  0  0.964348  0  0  0.391259  0  0.947542  0  0  0.289862  0.371811  0  0.976204  0
H  H18  1  0.20733766  0.97737118  0.17194564  1  0  0.41207  0  0.89751  0  0  0.37974  0  0.964517  0  0  0.391107  0  0.94776  0  0  0.290096  0.37163  0  0.97649  0
H  H19  1  0.35702764  0.52235775  0.32798823  1  0  0.412501  0  0.896975  0  0  0.37987  0  0.964317  0  0  0.391274  0  0.94751  0  0  0.289871  0.371818  0  0.976179  0
H  H20  1  0.88291838  0.03184145  0.41336115  1  0  0.126023  0  0.93661  0  0  0.132035  0  0.998915  0  0  0.137014  0  0.995173  0  0  0.115727  0.128297  0  1.001988  0
H  H21  1  0.32841684  0.46815648  0.08645677  1  0  0.126506  0  0.936932  0  0  0.132521  0  0.99914  0  0  0.137495  0  0.995411  0  0  0.115898  0.128849  0  1.001977  0
H  H22  1  0.11707144  0.96816354  0.58663847  1  0  0.126044  0  0.936604  0  0  0.132107  0  0.998858  0  0  0.137086  0  0.995115  0  0  0.115752  0.128367  0  1.001934  0
H  H23  1  0.67160084  0.53184434  0.91354012  1  0  0.126538  0  0.936779  0  0  0.132441  0  0.999128  0  0  0.137415  0  0.9954  0  0  0.115851  0.128769  0  1.001966  0
H  H24  1  0.51856811  0.97446118  0.65006227  1  0  0.12387  0  0.965428  0  0  0.13193  0  1.02762  0  0  0.136086  0  1.024954  0  0  0.119553  0.128843  0  1.029754  0
H  H25  1  0.14240710  0.52569184  0.84998120  1  0  0.124496  0  0.963744  0  0  0.132127  0  1.02653  0  0  0.136237  0  1.023948  0  0  0.120056  0.129016  0  1.028852  0
H  H26  1  0.48141789  0.02554262  0.34993895  1  0  0.123891  0  0.965388  0  0  0.13196  0  1.02757  0  0  0.136119  0  1.024895  0  0  0.119568  0.128873  0  1.029704  0
H  H27  1  0.85759263  0.47429768  0.15002229  1  0  0.124507  0  0.963773  0  0  0.132089  0  1.026608  0  0  0.136198  0  1.024027  0  0  0.120058  0.128978  0  1.028929  0
H  H28  1  0.27361069  0.58679760  0.55457367  1  0  0.437852  0  0.859023  0  0  0.404937  0  0.924764  0  0  0.416625  0  0.907735  0  0  0.293554  0.396773  0  0.936614  0
H  H29  1  0.41502337  0.91338758  0.94547437  1  0  0.439129  0  0.857711  0  0  0.406001  0  0.92378  0  0  0.41771  0  0.906732  0  0  0.293727  0.397676  0  0.935944  0
H  H30  1  0.72638682  0.41320517  0.44542663  1  0  0.437823  0  0.859078  0  0  0.404905  0  0.924825  0  0  0.416593  0  0.907795  0  0  0.293571  0.396742  0  0.936672  0
H  H31  1  0.58498638  0.08660756  0.05452625  1  0  0.43916  0  0.857669  0  0  0.406031  0  0.923729  0  0  0.417744  0  0.906678  0  0  0.293774  0.397698  0  0.935898  0
H  H32  1  0.33808832  0.41122910  0.57471948  1  0  0.416811  0  0.892623  0  0  0.38293  0  0.961213  0  0  0.395026  0  0.943707  0  0  0.294315  0.374377  0  0.973602  0
H  H33  1  0.32370678  0.08897482  0.92528882  1  0  0.415219  0  0.895093  0  0  0.381156  0  0.964143  0  0  0.393291  0  0.946564  0  0  0.29326  0.372446  0  0.976699  0
H  H34  1  0.66190142  0.58877906  0.42528152  1  0  0.416859  0  0.892558  0  0  0.382916  0  0.961252  0  0  0.395015  0  0.94374  0  0  0.294282  0.374357  0  0.973654  0
H  H35  1  0.67629733  0.91102135  0.07471261  1  0  0.415171  0  0.895151  0  0  0.381101  0  0.964213  0  0  0.393237  0  0.946633  0  0  0.29323  0.372392  0  0.976768  0
H  H36  1  0.65721861  0.70684864  0.63473227  1  0  0.089354  0  0.934734  0  0  0.098504  0  0.994974  0  0  0.101885  0  0.991526  0  0  0.122895  0.095802  0  0.997881  0
H  H37  1  0.99828456  0.79327437  0.86529401  1  0  0.089213  0  0.936498  0  0  0.098569  0  0.996416  0  0  0.101972  0  0.992956  0  0  0.123144  0.095988  0  0.999203  0
H  H38  1  0.34277728  0.29315084  0.36526846  1  0  0.089401  0  0.934723  0  0  0.09854  0  0.994964  0  0  0.101921  0  0.99152  0  0  0.122901  0.095838  0  0.997871  0
H  H39  1  0.00172591  0.20671447  0.13470325  1  0  0.089267  0  0.936386  0  0  0.098613  0  0.996317  0  0  0.102022  0  0.992858  0  0  0.123159  0.096026  0  0.999109  0
C  C40  1  0.90547903  0.81216100  0.46095200  1  0  0.095324  0  3.729887  0  0  0.09719  0  3.97428  0  0  0.097237  0  3.993923  0  0  0.11195  0.096918  0  3.961295  0
C  C41  1  0.17871524  0.68786746  0.03894091  1  0  0.094718  0  3.731255  0  0  0.097424  0  3.974539  0  0  0.097414  0  3.994273  0  0  0.112089  0.097193  0  3.961326  0
C  C42  1  0.09451208  0.18784285  0.53904838  1  0  0.09531  0  3.730051  0  0  0.097266  0  3.974333  0  0  0.097323  0  3.993961  0  0  0.112009  0.096998  0  3.961341  0
C  C43  1  0.82130476  0.31212921  0.96105282  1  0  0.094556  0  3.731409  0  0  0.0973  0  3.97465  0  0  0.09729  0  3.994382  0  0  0.11204  0.097067  0  3.961449  0
C  C44  1  0.83239335  0.96246146  0.46376372  1  0  -0.1046  0  3.687558  0  0  -0.137534  0  3.938847  0  0  -0.140991  0  3.958777  0  0  -0.065855  -0.135493  0  3.925929  0
C  C45  1  0.25868420  0.53755683  0.03612221  1  0  -0.106833  0  3.688338  0  0  -0.140255  0  3.940168  0  0  -0.143676  0  3.960076  0  0  -0.066691  -0.137475  0  3.926484  0
C  C46  1  0.16759383  0.03754354  0.53623566  1  0  -0.104549  0  3.68757  0  0  -0.137522  0  3.938825  0  0  -0.140977  0  3.958741  0  0  -0.065845  -0.135479  0  3.925907  0
C  C47  1  0.74132249  0.46243738  0.96387613  1  0  -0.106738  0  3.688063  0  0  -0.140075  0  3.939896  0  0  -0.143495  0  3.959803  0  0  -0.066647  -0.137296  0  3.926214  0
C  C48  1  0.69343858  0.02423218  0.53253735  1  0  -0.018132  0  3.716638  0  0  -0.000653  0  3.956532  0  0  -0.003579  0  3.977439  0  0  0.005581  0.001253  0  3.942303  0
C  C49  1  0.24995300  0.47581566  0.96741577  1  0  -0.018078  0  3.714436  0  0  -0.000494  0  3.95503  0  0  -0.003443  0  3.975942  0  0  0.005879  0.001514  0  3.941004  0
C  C50  1  0.30655290  0.97577180  0.46746110  1  0  -0.018142  0  3.71655  0  0  -0.000791  0  3.956566  0  0  -0.003718  0  3.977474  0  0  0.005582  0.001114  0  3.94234  0
C  C51  1  0.75005429  0.52417971  0.03258134  1  0  -0.018097  0  3.714233  0  0  -0.000545  0  3.954832  0  0  -0.003494  0  3.97574  0  0  0.005865  0.001467  0  3.940798  0
C  C52  1  0.63034516  0.93180616  0.59578019  1  0  -0.106591  0  3.655109  0  0  -0.129299  0  3.901766  0  0  -0.133083  0  3.920681  0  0  -0.06261  -0.126423  0  3.888915  0
C  C53  1  0.15738438  0.56828103  0.90425002  1  0  -0.106048  0  3.65159  0  0  -0.128478  0  3.898869  0  0  -0.13225  0  3.917808  0  0  -0.062995  -0.126123  0  3.886685  0
C  C54  1  0.36964621  0.06819986  0.40422026  1  0  -0.106624  0  3.655132  0  0  -0.129313  0  3.901802  0  0  -0.133096  0  3.920717  0  0  -0.062673  -0.126437  0  3.888955  0
C  C55  1  0.84262196  0.43171418  0.09574963  1  0  -0.106088  0  3.651546  0  0  -0.128457  0  3.898835  0  0  -0.13223  0  3.917776  0  0  -0.063001  -0.126101  0  3.886645  0
C  C56  1  0.70785184  0.78176634  0.58770274  1  0  0.155967  0  3.640968  0  0  0.125658  0  3.89339  0  0  0.131652  0  3.909142  0  0  0.063427  0.121548  0  3.882715  0
C  C57  1  0.07697811  0.71832627  0.91229976  1  0  0.15489  0  3.641963  0  0  0.124505  0  3.894549  0  0  0.130467  0  3.910297  0  0  0.062626  0.120488  0  3.88417  0
C  C58  1  0.29213977  0.21823530  0.41229829  1  0  0.155871  0  3.641058  0  0  0.125582  0  3.893458  0  0  0.131573  0  3.909213  0  0  0.063406  0.121471  0  3.882785  0
C  C59  1  0.92302200  0.28166881  0.08770192  1  0  0.154801  0  3.64168  0  0  0.124444  0  3.894253  0  0  0.130396  0  3.910011  0  0  0.062596  0.120436  0  3.883869  0
C  C60  1  0.06526818  0.74063957  0.39022887  1  0  0.639168  0  3.897073  0  0  0.58385  0  4.195165  0  0  0.617898  0  4.186564  0  0  0.225549  0.560837  0  4.200217  0
C  C61  1  0.19661911  0.75924021  0.10962922  1  0  0.638686  0  3.901859  0  0  0.583502  0  4.199479  0  0  0.617567  0  4.190943  0  0  0.225563  0.560329  0  4.204622  0
C  C62  1  0.93472363  0.25937426  0.60976852  1  0  0.639101  0  3.897075  0  0  0.583695  0  4.195233  0  0  0.617734  0  4.186641  0  0  0.225498  0.560691  0  4.200274  0
C  C63  1  0.80339488  0.24075194  0.89036713  1  0  0.638695  0  3.901555  0  0  0.58358  0  4.199085  0  0  0.617648  0  4.190547  0  0  0.22559  0.560407  0  4.204237  0
C  C64  1  0.61454528  0.18860481  0.53412401  1  0  0.656004  0  3.921298  0  0  0.601168  0  4.226533  0  0  0.633789  0  4.219671  0  0  0.215647  0.579263  0  4.23003  0
C  C65  1  0.33703243  0.31147147  0.96577718  1  0  0.658422  0  3.918359  0  0  0.60294  0  4.224644  0  0  0.635628  0  4.217722  0  0  0.21631  0.580745  0  4.228791  0
C  C66  1  0.38545742  0.81140027  0.46587420  1  0  0.655942  0  3.921217  0  0  0.601215  0  4.226292  0  0  0.633836  0  4.219432  0  0  0.215677  0.579311  0  4.22979  0
C  C67  1  0.66297531  0.68852568  0.03422592  1  0  0.658594  0  3.918431  0  0  0.603151  0  4.22466  0  0  0.635838  0  4.217737  0  0  0.216382  0.580952  0  4.228801  0
N  N68  1  0.84333009  0.72322947  0.52187766  1  0  -0.317402  0  3.254915  0  0  -0.247124  0  3.516361  0  0  -0.261933  0  3.532179  0  0  -0.312711  -0.236855  0  3.50535  0
N  N69  1  0.08844280  0.77685758  0.97804877  1  0  -0.316132  0  3.254956  0  0  -0.246264  0  3.516303  0  0  -0.260982  0  3.532112  0  0  -0.312396  -0.235803  0  3.505806  0
N  N70  1  0.15666576  0.27677431  0.47812382  1  0  -0.31737  0  3.254897  0  0  -0.247113  0  3.516296  0  0  -0.261926  0  3.532113  0  0  -0.31273  -0.236845  0  3.505285  0
N  N71  1  0.91156153  0.22313993  0.02194876  1  0  -0.31601  0  3.254838  0  0  -0.246201  0  3.516228  0  0  -0.26092  0  3.532041  0  0  -0.312356  -0.235749  0  3.505736  0
O  O72  1  0.27507721  0.07000168  0.76207412  1  0  -0.865327  0  1.787332  0  0  -0.811167  0  1.956912  0  0  -0.829609  0  1.926171  0  0  -0.615336  -0.797972  0  1.978757  0
O  O73  1  0.10669423  0.43035392  0.73788668  1  0  -0.866473  0  1.786625  0  0  -0.812004  0  1.955502  0  0  -0.830505  0  1.924637  0  0  -0.615198  -0.798856  0  1.977492  0
O  O74  1  0.72492701  0.92999788  0.23792542  1  0  -0.865355  0  1.787286  0  0  -0.811198  0  1.95688  0  0  -0.829643  0  1.92614  0  0  -0.615348  -0.798003  0  1.978705  0
O  O75  1  0.89330485  0.56964446  0.26211432  1  0  -0.866463  0  1.786604  0  0  -0.811984  0  1.955533  0  0  -0.830485  0  1.924666  0  0  -0.615235  -0.79884  0  1.977521  0
O  O76  1  0.74140675  0.98924195  0.78585639  1  0  -0.844846  0  1.757257  0  0  -0.79618  0  1.912688  0  0  -0.814295  0  1.882903  0  0  -0.625374  -0.783275  0  1.933759  0
O  O77  1  0.51622606  0.51095817  0.71427234  1  0  -0.845276  0  1.757665  0  0  -0.796363  0  1.912757  0  0  -0.81443  0  1.882896  0  0  -0.625056  -0.783444  0  1.93391  0
O  O78  1  0.25859232  0.01075643  0.21414461  1  0  -0.844854  0  1.757305  0  0  -0.796183  0  1.912717  0  0  -0.814301  0  1.882934  0  0  -0.62536  -0.783273  0  1.933791  0
O  O79  1  0.48377271  0.48904234  0.28572933  1  0  -0.845303  0  1.757713  0  0  -0.796379  0  1.912738  0  0  -0.814444  0  1.882877  0  0  -0.62509  -0.783457  0  1.933912  0
O  O80  1  0.13648318  0.60072129  0.39516309  1  0  -0.640325  0  2.08999  0  0  -0.560736  0  2.336945  0  0  -0.589244  0  2.323451  0  0  -0.298751  -0.541174  0  2.345757  0
O  O81  1  0.13242676  0.89915544  0.10479581  1  0  -0.639008  0  2.089958  0  0  -0.560017  0  2.337121  0  0  -0.588381  0  2.323429  0  0  -0.298767  -0.540291  0  2.346246  0
O  O82  1  0.86350516  0.39929005  0.60483917  1  0  -0.640279  0  2.089899  0  0  -0.560576  0  2.336801  0  0  -0.589068  0  2.323299  0  0  -0.298707  -0.541046  0  2.345632  0
O  O83  1  0.86757576  0.10083888  0.89520083  1  0  -0.638893  0  2.089885  0  0  -0.559983  0  2.337048  0  0  -0.588358  0  2.323381  0  0  -0.298712  -0.540251  0  2.34615  0
O  O84  1  0.12350383  0.82061075  0.33148460  1  0  -0.681963  0  2.013991  0  0  -0.627701  0  2.253515  0  0  -0.652303  0  2.243195  0  0  -0.333272  -0.610326  0  2.260163  0
O  O85  1  0.27670553  0.67918997  0.16824057  1  0  -0.681644  0  2.017265  0  0  -0.627503  0  2.25696  0  0  -0.652171  0  2.246644  0  0  -0.333364  -0.610364  0  2.263839  0
O  O86  1  0.87649894  0.17939116  0.66851223  1  0  -0.68193  0  2.013855  0  0  -0.62765  0  2.253397  0  0  -0.652253  0  2.243084  0  0  -0.33326  -0.610273  0  2.260034  0
O  O87  1  0.72329043  0.32081176  0.83175890  1  0  -0.681766  0  2.017065  0  0  -0.627615  0  2.256704  0  0  -0.652284  0  2.246385  0  0  -0.333431  -0.610477  0  2.263584  0
O  O88  1  0.48743202  0.24298694  0.59796402  1  0  -0.717394  0  2.023621  0  0  -0.652009  0  2.26549  0  0  -0.680252  0  2.257013  0  0  -0.376818  -0.632021  0  2.270682  0
O  O89  1  0.32746447  0.25717009  0.90204090  1  0  -0.718007  0  2.022912  0  0  -0.652406  0  2.265515  0  0  -0.680648  0  2.256925  0  0  -0.376933  -0.63197  0  2.270759  0
O  O90  1  0.51256990  0.75701133  0.40203856  1  0  -0.717359  0  2.02381  0  0  -0.651982  0  2.265631  0  0  -0.680228  0  2.257156  0  0  -0.376781  -0.631996  0  2.270832  0
O  O91  1  0.67252387  0.74282384  0.09796162  1  0  -0.718007  0  2.02306  0  0  -0.652413  0  2.265608  0  0  -0.680664  0  2.257047  0  0  -0.376868  -0.632006  0  2.270918  0
O  O92  1  0.67850542  0.25934433  0.47209140  1  0  -0.602244  0  1.956711  0  0  -0.551017  0  2.176242  0  0  -0.574561  0  2.167152  0  0  -0.304653  -0.534532  0  2.18193  0
O  O93  1  0.41015765  0.24064793  0.02771151  1  0  -0.602707  0  1.955554  0  0  -0.551184  0  2.175602  0  0  -0.574781  0  2.166464  0  0  -0.304913  -0.535134  0  2.181903  0
O  O94  1  0.32148050  0.74066807  0.52791131  1  0  -0.602302  0  1.956485  0  0  -0.551089  0  2.175922  0  0  -0.574634  0  2.166833  0  0  -0.304712  -0.534599  0  2.181609  0
O  O95  1  0.58984975  0.75935053  0.97228830  1  0  -0.602819  0  1.955541  0  0  -0.55129  0  2.17556  0  0  -0.574892  0  2.166426  0  0  -0.304976  -0.535239  0  2.181869  0
O  O96  1  0.21817061  0.50485942  0.57354949  1  0  -0.846291  0  1.946423  0  0  -0.777589  0  2.145023  0  0  -0.801171  0  2.109559  0  0  -0.560914  -0.760853  0  2.169203  0
O  O97  1  0.29656636  0.99524013  0.92645624  1  0  -0.846174  0  1.947056  0  0  -0.776975  0  2.144607  0  0  -0.80068  0  2.109271  0  0  -0.560319  -0.75997  0  2.169529  0
O  O98  1  0.78182281  0.49514542  0.42645244  1  0  -0.846317  0  1.946338  0  0  -0.77757  0  2.144971  0  0  -0.801156  0  2.109513  0  0  -0.560912  -0.760816  0  2.169118  0
O  O99  1  0.70344699  0.00475516  0.07354209  1  0  -0.846163  0  1.947093  0  0  -0.776956  0  2.144666  0  0  -0.80066  0  2.109307  0  0  -0.560328  -0.759946  0  2.169633  0
