# generated using pymatgen
data_CdH18C20N2O5
_symmetry_space_group_name_H-M   'P 1'
_cell_length_a   8.24922213
_cell_length_b   11.45518846
_cell_length_c   11.44768963
_cell_angle_alpha   110.82070060
_cell_angle_beta   96.67891619
_cell_angle_gamma   108.77647627
_symmetry_Int_Tables_number   1
_chemical_formula_structural   CdH18C20N2O5
_chemical_formula_sum   'Cd2 H36 C40 N4 O10'
_cell_volume   924.20663411
_cell_formula_units_Z   2
loop_
 _symmetry_equiv_pos_site_id
 _symmetry_equiv_pos_as_xyz
  1  'x, y, z'
loop_
 _atom_site_type_symbol
 _atom_site_label
 _atom_site_symmetry_multiplicity
 _atom_site_fract_x
 _atom_site_fract_y
 _atom_site_fract_z
 _atom_site_occupancy
 _atom_site_hle17_bader_spin_density
 _atom_site_hle17_ddec_charge
 _atom_site_hle17_ddec_spin_density
 _atom_site_hle17_ddec_sum_bond_order
 _atom_site_hle17_magmom
 _atom_site_hse06_10hf_bader_spin_density
 _atom_site_hse06_10hf_ddec_charge
 _atom_site_hse06_10hf_ddec_spin_density
 _atom_site_hse06_10hf_ddec_sum_bond_order
 _atom_site_hse06_10hf_magmom
 _atom_site_hse06_bader_spin_density
 _atom_site_hse06_ddec_charge
 _atom_site_hse06_ddec_spin_density
 _atom_site_hse06_ddec_sum_bond_order
 _atom_site_hse06_magmom
 _atom_site_pbe_bader_spin_density
 _atom_site_pbe_cm5_charge
 _atom_site_pbe_ddec_charge
 _atom_site_pbe_ddec_spin_density
 _atom_site_pbe_ddec_sum_bond_order
 _atom_site_pbe_magmom
Cd  Cd0  1  0.09640097  0.18523935  0.74718320  1  0  1.09222  0  1.701011  0  0  0.898965  0  2.145525  0  0  0.95643  0  2.093458  0  0  0.763852  0.858434  0  2.180914  0
Cd  Cd1  1  0.90359159  0.81475620  0.25281625  1  0  1.092206  0  1.700993  0  0  0.898951  0  2.145503  0  0  0.956417  0  2.093434  0  0  0.763859  0.858418  0  2.18089  0
H  H2  1  0.82770940  0.09619424  0.50311917  1  0  0.427661  0  0.876661  0  0  0.394333  0  0.943551  0  0  0.406518  0  0.925979  0  0  0.282816  0.38571  0  0.955955  0
H  H3  1  0.17228580  0.90380638  0.49688213  1  0  0.42767  0  0.876649  0  0  0.394349  0  0.94353  0  0  0.406535  0  0.925958  0  0  0.282833  0.385725  0  0.955936  0
H  H4  1  0.81641918  0.20033482  0.64457691  1  0  0.420406  0  0.888574  0  0  0.3883  0  0.953109  0  0  0.400858  0  0.934969  0  0  0.278707  0.379484  0  0.9658  0
H  H5  1  0.18356927  0.79965986  0.35542454  1  0  0.42031  0  0.888687  0  0  0.388234  0  0.953172  0  0  0.40079  0  0.935035  0  0  0.278663  0.379418  0  0.965863  0
H  H6  1  0.43197206  0.90585533  0.65881722  1  0  0.110415  0  0.926164  0  0  0.126757  0  0.98026  0  0  0.128976  0  0.97938  0  0  0.100142  0.12519  0  0.98092  0
H  H7  1  0.56803442  0.09414581  0.34117645  1  0  0.110508  0  0.926143  0  0  0.12682  0  0.980254  0  0  0.129046  0  0.979377  0  0  0.100176  0.125254  0  0.98092  0
H  H8  1  0.51429829  0.99222722  0.83021698  1  0  0.109739  0  0.939742  0  0  0.122824  0  1.002822  0  0  0.124727  0  1.002787  0  0  0.099726  0.12147  0  1.002895  0
H  H9  1  0.48570725  0.00777914  0.16978091  1  0  0.109791  0  0.939684  0  0  0.122873  0  1.00277  0  0  0.124781  0  1.002727  0  0  0.099733  0.121519  0  1.002844  0
H  H10  1  0.42419208  0.86096880  0.94777465  1  0  0.097263  0  0.966006  0  0  0.107312  0  1.033403  0  0  0.110533  0  1.031827  0  0  0.096411  0.104975  0  1.034648  0
H  H11  1  0.57581062  0.13903444  0.05222025  1  0  0.097225  0  0.966027  0  0  0.107295  0  1.033392  0  0  0.110517  0  1.031817  0  0  0.096423  0.104961  0  1.034632  0
H  H12  1  0.93390644  0.50906908  0.79611735  1  0  0.099276  0  0.954348  0  0  0.110073  0  1.015764  0  0  0.112872  0  1.014833  0  0  0.098926  0.108029  0  1.016572  0
H  H13  1  0.06610588  0.49094563  0.20388903  1  0  0.099346  0  0.95426  0  0  0.110124  0  1.015703  0  0  0.112923  0  1.014772  0  0  0.098931  0.10808  0  1.016513  0
H  H14  1  0.86517685  0.55531341  0.60447865  1  0  0.071645  0  0.969632  0  0  0.085769  0  1.028017  0  0  0.088054  0  1.02744  0  0  0.090786  0.084138  0  1.028462  0
H  H15  1  0.13482600  0.44469017  0.39552337  1  0  0.07164  0  0.969713  0  0  0.08578  0  1.028082  0  0  0.088066  0  1.027502  0  0  0.090787  0.084149  0  1.028526  0
H  H16  1  0.07838898  0.75103324  0.58084574  1  0  0.094832  0  0.998449  0  0  0.105004  0  1.06473  0  0  0.108057  0  1.062902  0  0  0.093451  0.102739  0  1.066217  0
H  H17  1  0.92161513  0.24897041  0.41915816  1  0  0.094796  0  0.998452  0  0  0.10497  0  1.06473  0  0  0.108029  0  1.0629  0  0  0.093448  0.102706  0  1.066217  0
H  H18  1  0.37686144  0.69953106  0.03815014  1  0  0.108966  0  0.965886  0  0  0.119359  0  1.034471  0  0  0.121934  0  1.033174  0  0  0.095382  0.117543  0  1.03542  0
H  H19  1  0.62313861  0.30047885  0.96185803  1  0  0.10908  0  0.965773  0  0  0.119426  0  1.034386  0  0  0.122026  0  1.033064  0  0  0.095422  0.117609  0  1.035336  0
H  H20  1  0.18601966  0.54405237  0.96997559  1  0  0.11845  0  0.936078  0  0  0.132349  0  0.997984  0  0  0.134591  0  0.997599  0  0  0.101679  0.130802  0  0.998257  0
H  H21  1  0.81399357  0.45595703  0.03002480  1  0  0.118442  0  0.936099  0  0  0.132337  0  0.997985  0  0  0.134579  0  0.997602  0  0  0.101655  0.13079  0  0.998259  0
H  H22  1  0.12100259  0.36972250  0.59791845  1  0  0.087087  0  0.965733  0  0  0.095602  0  1.02957  0  0  0.097755  0  1.027803  0  0  0.116532  0.094003  0  1.030885  0
H  H23  1  0.87898672  0.63027616  0.40208259  1  0  0.087062  0  0.965844  0  0  0.095644  0  1.029591  0  0  0.097797  0  1.027824  0  0  0.116548  0.094048  0  1.030899  0
H  H24  1  0.32352420  0.58128141  0.58952301  1  0  0.104336  0  0.959245  0  0  0.114697  0  1.020714  0  0  0.117667  0  1.020025  0  0  0.10828  0.112586  0  1.021293  0
H  H25  1  0.67647444  0.41871409  0.41047694  1  0  0.104398  0  0.95923  0  0  0.114738  0  1.020719  0  0  0.11772  0  1.020009  0  0  0.108264  0.112627  0  1.021298  0
H  H26  1  0.71825787  0.61417321  0.89696745  1  0  0.126796  0  0.947034  0  0  0.134101  0  1.011195  0  0  0.137907  0  1.009573  0  0  0.114054  0.131332  0  1.012569  0
H  H27  1  0.28173489  0.38582038  0.10303314  1  0  0.126872  0  0.947038  0  0  0.134133  0  1.011256  0  0  0.13794  0  1.009632  0  0  0.114062  0.131365  0  1.01263  0
H  H28  1  0.50110276  0.39797092  0.88714393  1  0  0.077188  0  0.963482  0  0  0.084167  0  1.03261  0  0  0.086227  0  1.031029  0  0  0.117255  0.082601  0  1.033866  0
H  H29  1  0.49888074  0.60202600  0.11286131  1  0  0.077232  0  0.963482  0  0  0.084216  0  1.032604  0  0  0.086276  0  1.03102  0  0  0.117288  0.082649  0  1.033863  0
H  H30  1  0.58787855  0.67120516  0.53261466  1  0  0.100984  0  0.964831  0  0  0.111434  0  1.024577  0  0  0.114122  0  1.024899  0  0  0.10469  0.109488  0  1.024556  0
H  H31  1  0.41213810  0.32878509  0.46738427  1  0  0.101005  0  0.964695  0  0  0.111433  0  1.024476  0  0  0.114123  0  1.024794  0  0  0.104664  0.109475  0  1.02447  0
H  H32  1  0.79364124  0.88829285  0.53900793  1  0  0.084871  0  0.942082  0  0  0.093888  0  1.005756  0  0  0.096315  0  1.003403  0  0  0.118232  0.092071  0  1.007523  0
H  H33  1  0.20637337  0.11170051  0.46099270  1  0  0.084905  0  0.942149  0  0  0.093925  0  1.005802  0  0  0.096353  0  1.003451  0  0  0.118249  0.09211  0  1.007564  0
H  H34  1  0.94806025  0.06329495  0.93983364  1  0  0.078818  0  0.951081  0  0  0.086272  0  1.01821  0  0  0.08832  0  1.017117  0  0  0.117266  0.084771  0  1.019043  0
H  H35  1  0.05192568  0.93670196  0.06017180  1  0  0.078775  0  0.951119  0  0  0.086274  0  1.018221  0  0  0.088281  0  1.017172  0  0  0.117232  0.08477  0  1.019059  0
H  H36  1  0.75172667  0.85164702  0.95104784  1  0  0.124931  0  0.969707  0  0  0.131126  0  1.036351  0  0  0.135324  0  1.03378  0  0  0.110744  0.128128  0  1.038269  0
H  H37  1  0.24826001  0.14834662  0.04895226  1  0  0.124909  0  0.969717  0  0  0.131036  0  1.036434  0  0  0.135233  0  1.033868  0  0  0.110729  0.128038  0  1.038355  0
C  C38  1  0.31218418  0.04291536  0.74997448  1  0  0.717123  0  3.816978  0  0  0.668997  0  4.115677  0  0  0.703225  0  4.10841  0  0  0.205534  0.645747  0  4.119743  0
C  C39  1  0.68782026  0.95708889  0.25002089  1  0  0.717209  0  3.817069  0  0  0.669024  0  4.115862  0  0  0.703256  0  4.108593  0  0  0.205545  0.645773  0  4.119926  0
C  C40  1  0.39408258  0.94124401  0.74996041  1  0  -0.304803  0  3.682435  0  0  -0.347129  0  3.921146  0  0  -0.352985  0  3.928326  0  0  -0.160921  -0.343004  0  3.916036  0
C  C41  1  0.60592327  0.05875828  0.25003620  1  0  -0.304957  0  3.682338  0  0  -0.347255  0  3.92114  0  0  -0.353116  0  3.928341  0  0  -0.160931  -0.343133  0  3.916035  0
C  C42  1  0.26362884  0.82205350  0.76448035  1  0  0.121987  0  3.752135  0  0  0.144653  0  3.988932  0  0  0.145606  0  4.013685  0  0  -0.013409  0.143996  0  3.972091  0
C  C43  1  0.73638149  0.17795503  0.23552214  1  0  0.121863  0  3.752054  0  0  0.144517  0  3.988883  0  0  0.145433  0  4.013693  0  0  -0.013471  0.143859  0  3.972043  0
C  C44  1  0.29914619  0.79614285  0.87333331  1  0  -0.192902  0  3.697557  0  0  -0.218298  0  3.939629  0  0  -0.222864  0  3.961444  0  0  -0.100696  -0.215123  0  3.924909  0
C  C45  1  0.70085937  0.20386355  0.12666547  1  0  -0.192828  0  3.697414  0  0  -0.218241  0  3.939469  0  0  -0.222795  0  3.961294  0  0  -0.10068  -0.215064  0  3.92475  0
C  C46  1  0.18269333  0.68374664  0.88589474  1  0  0.137286  0  3.764228  0  0  0.158223  0  3.997565  0  0  0.15998  0  4.02145  0  0  -0.01267  0.156961  0  3.98143  0
C  C47  1  0.81731454  0.31626186  0.11410666  1  0  0.137266  0  3.764178  0  0  0.158225  0  3.997459  0  0  0.159983  0  4.021345  0  0  -0.012716  0.156959  0  3.981327  0
C  C48  1  0.02494768  0.59787144  0.78866103  1  0  -0.133417  0  3.742033  0  0  -0.156181  0  3.992838  0  0  -0.158947  0  4.013032  0  0  -0.098728  -0.154247  0  3.979162  0
C  C49  1  0.97506311  0.40213797  0.21133916  1  0  -0.133417  0  3.74187  0  0  -0.156175  0  3.992663  0  0  -0.158942  0  4.012856  0  0  -0.098669  -0.154239  0  3.978988  0
C  C50  1  0.98753458  0.62339899  0.68037552  1  0  -0.06753  0  3.826161  0  0  -0.078188  0  4.079256  0  0  -0.07973  0  4.1021  0  0  -0.100454  -0.076969  0  4.063512  0
C  C51  1  0.01247265  0.37661062  0.31962792  1  0  -0.067572  0  3.826042  0  0  -0.078257  0  4.079132  0  0  -0.079798  0  4.101975  0  0  -0.100449  -0.077038  0  4.063387  0
C  C52  1  0.10602555  0.73366608  0.66729407  1  0  -0.152269  0  3.751391  0  0  -0.176444  0  4.002143  0  0  -0.180069  0  4.024276  0  0  -0.10985  -0.17389  0  3.987111  0
C  C53  1  0.89398497  0.26634050  0.33270956  1  0  -0.152137  0  3.751188  0  0  -0.176286  0  4.001897  0  0  -0.179908  0  4.024048  0  0  -0.109836  -0.173732  0  3.986867  0
C  C54  1  0.23229618  0.65465540  0.99989180  1  0  -0.325434  0  3.69443  0  0  -0.366857  0  3.932636  0  0  -0.373494  0  3.940321  0  0  -0.169638  -0.362246  0  3.927367  0
C  C55  1  0.76770803  0.34535309  0.00010841  1  0  -0.32564  0  3.694549  0  0  -0.367029  0  3.932725  0  0  -0.373686  0  3.940397  0  0  -0.169696  -0.362415  0  3.927458  0
C  C56  1  0.15391126  0.70670968  0.11300967  1  0  0.709082  0  3.847711  0  0  0.663205  0  4.149354  0  0  0.696557  0  4.142934  0  0  0.204727  0.640548  0  4.152836  0
C  C57  1  0.84608440  0.29329179  0.88698844  1  0  0.709152  0  3.847681  0  0  0.663298  0  4.149242  0  0  0.696651  0  4.142824  0  0  0.204773  0.64064  0  4.152726  0
C  C58  1  0.25592228  0.42598535  0.65974808  1  0  0.127846  0  3.724635  0  0  0.097908  0  3.976146  0  0  0.104825  0  3.995765  0  0  0.047732  0.093458  0  3.962766  0
C  C59  1  0.74406875  0.57401428  0.34025255  1  0  0.127882  0  3.72456  0  0  0.097909  0  3.97606  0  0  0.104827  0  3.995679  0  0  0.047739  0.093461  0  3.962682  0
C  C60  1  0.36977969  0.54258700  0.65513269  1  0  -0.162649  0  3.733064  0  0  -0.182806  0  3.983816  0  0  -0.190426  0  4.005215  0  0  -0.079692  -0.177883  0  3.969495  0
C  C61  1  0.63021760  0.45741060  0.34486869  1  0  -0.162754  0  3.732972  0  0  -0.182912  0  3.983776  0  0  -0.190537  0  4.005167  0  0  -0.079711  -0.177991  0  3.96946  0
C  C62  1  0.53849363  0.61467442  0.74172086  1  0  0.09951  0  3.756338  0  0  0.111362  0  3.985201  0  0  0.115485  0  4.006552  0  0  0.017941  0.108784  0  3.970602  0
C  C63  1  0.46150462  0.38531800  0.25827720  1  0  0.099387  0  3.756521  0  0  0.11128  0  3.9854  0  0  0.115401  0  4.006757  0  0  0.017869  0.1087  0  3.970803  0
C  C64  1  0.58745574  0.56342117  0.82859632  1  0  -0.144527  0  3.650222  0  0  -0.160806  0  3.89247  0  0  -0.168333  0  3.912477  0  0  -0.072296  -0.155995  0  3.879166  0
C  C65  1  0.41253265  0.43656639  0.17140285  1  0  -0.144601  0  3.650148  0  0  -0.160849  0  3.892423  0  0  -0.168377  0  3.912431  0  0  -0.072311  -0.156038  0  3.879121  0
C  C66  1  0.46726308  0.44351402  0.82407563  1  0  0.140865  0  3.700178  0  0  0.109874  0  3.950502  0  0  0.117747  0  3.968358  0  0  0.052929  0.104716  0  3.938401  0
C  C67  1  0.53272241  0.55647967  0.17592525  1  0  0.141004  0  3.699846  0  0  0.110011  0  3.950153  0  0  0.117884  0  3.968006  0  0  0.053028  0.104851  0  3.938054  0
C  C68  1  0.65732320  0.74195650  0.74164741  1  0  0.099974  0  3.762564  0  0  0.111723  0  3.991774  0  0  0.115193  0  4.013713  0  0  0.017635  0.109586  0  3.976747  0
C  C69  1  0.34267449  0.25803482  0.25834850  1  0  0.099945  0  3.76282  0  0  0.111545  0  3.99219  0  0  0.115012  0  4.014134  0  0  0.017593  0.109409  0  3.977162  0
C  C70  1  0.66641679  0.75535008  0.62530026  1  0  -0.158388  0  3.709808  0  0  -0.175604  0  3.956384  0  0  -0.182994  0  3.977151  0  0  -0.079705  -0.170802  0  3.942408  0
C  C71  1  0.33358984  0.24464435  0.37470003  1  0  -0.158301  0  3.709523  0  0  -0.17542  0  3.956084  0  0  -0.182809  0  3.976853  0  0  -0.079647  -0.170609  0  3.942114  0
C  C72  1  0.78171049  0.87604436  0.62828317  1  0  0.136859  0  3.708966  0  0  0.106723  0  3.962369  0  0  0.113863  0  3.980543  0  0  0.051829  0.102107  0  3.949954  0
C  C73  1  0.21829721  0.12395214  0.37171875  1  0  0.136658  0  3.709167  0  0  0.106501  0  3.962563  0  0  0.113635  0  3.980742  0  0  0.05175  0.101889  0  3.950144  0
C  C74  1  0.86969425  0.97226550  0.85182560  1  0  0.134829  0  3.704425  0  0  0.104599  0  3.956775  0  0  0.111578  0  3.975692  0  0  0.050732  0.100057  0  3.943925  0
C  C75  1  0.13030358  0.02773315  0.14817704  1  0  0.134659  0  3.704479  0  0  0.104387  0  3.956822  0  0  0.111395  0  3.975753  0  0  0.050644  0.099847  0  3.94397  0
C  C76  1  0.76117339  0.85416788  0.85758823  1  0  -0.152474  0  3.669264  0  0  -0.170092  0  3.915988  0  0  -0.177341  0  3.935361  0  0  -0.075018  -0.165416  0  3.903087  0
C  C77  1  0.23881865  0.14582665  0.14241086  1  0  -0.152194  0  3.669401  0  0  -0.169709  0  3.916163  0  0  -0.176956  0  3.935534  0  0  -0.074855  -0.165034  0  3.903261  0
N  N78  1  0.30403719  0.37633585  0.74213598  1  0  -0.334653  0  3.247794  0  0  -0.255704  0  3.511476  0  0  -0.276029  0  3.529575  0  0  -0.330361  -0.241893  0  3.498875  0
N  N79  1  0.69595020  0.62366380  0.25786435  1  0  -0.334781  0  3.247591  0  0  -0.25585  0  3.511328  0  0  -0.276176  0  3.529426  0  0  -0.330457  -0.24204  0  3.498725  0
N  N80  1  0.88228501  0.98299244  0.73970345  1  0  -0.332659  0  3.255812  0  0  -0.258943  0  3.518206  0  0  -0.278858  0  3.53861  0  0  -0.325726  -0.245417  0  3.504099  0
N  N81  1  0.11772065  0.01700717  0.26030017  1  0  -0.332499  0  3.25581  0  0  -0.258769  0  3.518209  0  0  -0.278677  0  3.5386  0  0  -0.325629  -0.245243  0  3.504099  0
O  O82  1  0.31218078  0.12858287  0.85725874  1  0  -0.647423  0  1.916104  0  0  -0.583899  0  2.153369  0  0  -0.611739  0  2.143671  0  0  -0.328198  -0.564405  0  2.159279  0
O  O83  1  0.68781723  0.87141841  0.14273602  1  0  -0.647385  0  1.916097  0  0  -0.583907  0  2.153475  0  0  -0.611736  0  2.143752  0  0  -0.328215  -0.564416  0  2.159386  0
O  O84  1  0.23612832  0.03465333  0.64108518  1  0  -0.675687  0  1.981166  0  0  -0.60516  0  2.217057  0  0  -0.635029  0  2.205211  0  0  -0.329465  -0.584249  0  2.224453  0
O  O85  1  0.76387922  0.96534984  0.35890924  1  0  -0.675745  0  1.98122  0  0  -0.605142  0  2.217089  0  0  -0.635013  0  2.205245  0  0  -0.329462  -0.58423  0  2.224484  0
O  O86  1  0.99569308  0.70182411  0.08444172  1  0  -0.676415  0  1.981153  0  0  -0.6075  0  2.237057  0  0  -0.637311  0  2.226033  0  0  -0.345025  -0.586487  0  2.243721  0
O  O87  1  0.00430005  0.29817017  0.91555213  1  0  -0.676459  0  1.981197  0  0  -0.607563  0  2.237093  0  0  -0.637363  0  2.226044  0  0  -0.345059  -0.586552  0  2.24376  0
O  O88  1  0.24931936  0.74697732  0.22539425  1  0  -0.638142  0  1.914705  0  0  -0.58351  0  2.124355  0  0  -0.608248  0  2.114304  0  0  -0.331942  -0.566183  0  2.13065  0
O  O89  1  0.75066851  0.25301627  0.77460506  1  0  -0.638173  0  1.914682  0  0  -0.583522  0  2.124296  0  0  -0.608265  0  2.114247  0  0  -0.331957  -0.566196  0  2.130592  0
O  O90  1  0.89430149  0.18080201  0.58429068  1  0  -0.861849  0  1.874807  0  0  -0.792448  0  2.070552  0  0  -0.816831  0  2.03403  0  0  -0.594183  -0.775211  0  2.095746  0
O  O91  1  0.10569044  0.81919469  0.41571171  1  0  -0.861777  0  1.874893  0  0  -0.7924  0  2.070625  0  0  -0.81678  0  2.034102  0  0  -0.594166  -0.775161  0  2.095819  0
