# generated using pymatgen
data_Zr3H17C60Br15N9O16
_symmetry_space_group_name_H-M   'P 1'
_cell_length_a   19.74884691
_cell_length_b   19.76821454
_cell_length_c   19.81689283
_cell_angle_alpha   91.95399050
_cell_angle_beta   92.72503838
_cell_angle_gamma   91.60685373
_symmetry_Int_Tables_number   1
_chemical_formula_structural   Zr3H17C60Br15N9O16
_chemical_formula_sum   'Zr6 H34 C120 Br30 N18 O32'
_cell_volume   7719.85189383
_cell_formula_units_Z   2
loop_
 _symmetry_equiv_pos_site_id
 _symmetry_equiv_pos_as_xyz
  1  'x, y, z'
loop_
 _atom_site_type_symbol
 _atom_site_label
 _atom_site_symmetry_multiplicity
 _atom_site_fract_x
 _atom_site_fract_y
 _atom_site_fract_z
 _atom_site_occupancy
 _atom_site_pbe_bader_charge
 _atom_site_pbe_bader_spin_density
 _atom_site_pbe_cm5_charge
 _atom_site_pbe_ddec_charge
 _atom_site_pbe_ddec_spin_density
 _atom_site_pbe_ddec_sum_bond_order
 _atom_site_pbe_magmom
Zr  Zr0  1  0.80946702  0.95896564  0.86493456  1  2.634488  0  1.632073  2.373859  0  2.771032  0
Zr  Zr1  1  0.77510028  0.85876302  0.00437763  1  2.632794  0  1.629795  2.374768  0  2.764181  0
Zr  Zr2  1  0.97739822  0.98818404  0.93041733  1  2.632248  0  1.622138  2.376629  0  2.740879  0
Zr  Zr3  1  0.91159913  0.82006453  0.90228934  1  2.634285  0  1.619383  2.382024  0  2.722675  0
Zr  Zr4  1  0.83947089  0.02545232  0.03206122  1  2.634463  0  1.624107  2.378984  0  2.736811  0
Zr  Zr5  1  0.94400965  0.88689007  0.06899049  1  2.632784  0  1.621178  2.380556  0  2.729457  0
H  H6  1  0.77250014  0.81850747  0.86453272  1  0.615504  0  0.314192  0.402729  0  0.902704  0
H  H7  1  0.87622628  0.08434310  0.90984712  1  0.61352  0  0.327264  0.420777  0  0.863481  0
H  H8  1  0.03765740  0.86488442  0.96748796  1  0.619744  0  0.325228  0.419299  0  0.867154  0
H  H9  1  0.82215224  0.92371098  0.12812308  1  0.61695  0  0.332197  0.427636  0  0.852558  0
H  H10  1  0.26570025  0.80034676  0.79158595  1  0.122188  0  0.113056  0.129032  0  0.994282  0
H  H11  1  0.08082534  0.95558225  0.73522183  1  0.102288  0  0.112881  0.132504  0  0.979918  0
H  H12  1  0.42341018  0.89986983  0.84614253  1  0.111485  0  0.110661  0.124294  0  1.007077  0
H  H13  1  0.64796682  0.85808541  0.75572299  1  0.126962  0  0.100737  0.115077  0  1.033586  0
H  H14  1  0.32500147  0.96013869  0.09303760  1  0.136266  0  0.111719  0.127385  0  1.004447  0
H  H15  1  0.10037060  0.00608132  0.18219243  1  0.108784  0  0.112975  0.133935  0  0.983909  0
H  H16  1  0.53164030  0.08551683  0.21167999  1  0.096983  0  0.111998  0.13045  0  0.978196  0
H  H17  1  0.61933301  0.86859860  0.12581901  1  0.172968  0  0.11472  0.136616  0  0.997003  0
H  H18  1  0.46841039  0.00148842  0.42343569  1  0.125795  0  0.110699  0.127964  0  0.996905  0
H  H19  1  0.28441858  0.86045217  0.51210110  1  0.136587  0  0.111188  0.128178  0  1.000174  0
H  H20  1  0.55783595  0.23548227  0.95698083  1  0.120886  0  0.113867  0.129229  0  0.996343  0
H  H21  1  0.77914381  0.20347961  0.85385538  1  0.101043  0  0.104895  0.123212  0  0.993357  0
H  H22  1  0.72482568  0.48736582  0.86269836  1  0.11299  0  0.101202  0.117607  0  1.030754  0
H  H23  1  0.71528609  0.67308278  0.03479960  1  0.137331  0  0.114774  0.137425  0  0.995637  0
H  H24  1  0.08704691  0.14763056  0.06987013  1  0.135861  0  0.111337  0.131338  0  0.979969  0
H  H25  1  0.00783979  0.36580235  0.98477895  1  0.108807  0  0.11196  0.127929  0  0.996745  0
H  H26  1  0.01660328  0.50578793  0.01198483  1  0.137921  0  0.111039  0.1241  0  1.016615  0
H  H27  1  0.13478763  0.72931867  0.04160949  1  0.095313  0  0.106929  0.126553  0  0.988809  0
H  H28  1  0.43535722  0.31709395  0.93614886  1  0.110512  0  0.108162  0.120988  0  1.026423  0
H  H29  1  0.32028590  0.52580321  0.99931044  1  0.157643  0  0.09642  0.109225  0  1.070953  0
H  H30  1  0.73662339  0.78778669  0.22118550  1  0.103427  0  0.111201  0.130815  0  0.985218  0
H  H31  1  0.91363916  0.63471919  0.30471488  1  0.098407  0  0.110891  0.125554  0  0.993915  0
H  H32  1  0.74847090  0.65963611  0.61606947  1  0.118457  0  0.113285  0.13068  0  0.985762  0
H  H33  1  0.90749665  0.85934705  0.64139649  1  0.087196  0  0.112331  0.129936  0  0.976723  0
H  H34  1  0.92578384  0.05488777  0.41387696  1  0.13369  0  0.10054  0.112059  0  1.059915  0
H  H35  1  0.93575942  0.14460777  0.18521824  1  0.130818  0  0.110747  0.131952  0  0.995932  0
H  H36  1  0.86241048  0.00891246  0.67093979  1  0.117281  0  0.113265  0.133735  0  0.993267  0
H  H37  1  0.97997304  0.23142040  0.65387747  1  0.129447  0  0.113023  0.129074  0  0.989869  0
H  H38  1  0.81549927  0.34630400  0.54233037  1  0.114917  0  0.112672  0.129433  0  0.986638  0
H  H39  1  0.94616270  0.50798992  0.40974333  1  0.098617  0  0.112104  0.128453  0  0.986551  0
C  C40  1  0.92439533  0.18805496  0.53531474  1  1.126754  0  0.259374  0.394852  0  4.011972  0
C  C41  1  0.91343172  0.28502670  0.47907925  1  1.099194  0  0.259986  0.396758  0  3.996116  0
C  C42  1  0.93135568  0.18639159  0.42098394  1  1.07034  0  0.261411  0.4019  0  3.962356  0
C  C43  1  0.82451904  0.65503853  0.39576517  1  1.115893  0  0.260165  0.39873  0  3.998226  0
C  C44  1  0.82431411  0.67177436  0.50910499  1  1.104195  0  0.259469  0.400104  0  3.996611  0
C  C45  1  0.84371354  0.56761644  0.46454284  1  1.098701  0  0.26074  0.398524  0  3.988597  0
C  C46  1  0.14603635  0.49041573  0.01968549  1  1.11207  0  0.259495  0.394525  0  3.996863  0
C  C47  1  0.23538405  0.42383425  0.99880277  1  1.086755  0  0.26141  0.399662  0  3.967882  0
C  C48  1  0.13530725  0.37609575  0.02686763  1  1.128314  0  0.260962  0.398093  0  4.003455  0
C  C49  1  0.61150768  0.35128778  0.92138897  1  1.131958  0  0.259483  0.395504  0  4.013337  0
C  C50  1  0.52322880  0.41729232  0.94830458  1  1.092813  0  0.260754  0.396128  0  3.972929  0
C  C51  1  0.62991633  0.46275572  0.94714733  1  1.1042  0  0.26183  0.399591  0  4.003919  0
C  C52  1  0.44827711  0.97746851  0.23612454  1  1.119371  0  0.258642  0.392151  0  4.033012  0
C  C53  1  0.38452378  0.95606961  0.32509363  1  1.097078  0  0.261584  0.400865  0  3.982318  0
C  C54  1  0.33399612  0.98162270  0.22412061  1  1.103748  0  0.261636  0.401868  0  3.983187  0
C  C55  1  0.30061198  0.88350922  0.69747083  1  1.139395  0  0.259036  0.394209  0  4.003215  0
C  C56  1  0.41516528  0.88352100  0.71318611  1  1.119747  0  0.259663  0.39598  0  3.995433  0
C  C57  1  0.36711350  0.90677089  0.61057108  1  1.108083  0  0.261697  0.397505  0  3.989224  0
C  C58  1  0.91793907  0.04793795  0.78748609  1  1.578851  0  0.236194  0.648514  0  4.100085  0
C  C59  1  0.66193514  0.89193355  0.88288026  1  1.596352  0  0.237454  0.651754  0  4.094051  0
C  C60  1  0.84026523  0.83761082  0.75508052  1  1.586529  0  0.236851  0.649145  0  4.129873  0
C  C61  1  0.74182242  0.09592173  0.92235188  1  1.626044  0  0.238267  0.653853  0  4.1221  0
C  C62  1  0.84084803  0.78915736  0.14233662  1  1.600044  0  0.237324  0.652746  0  4.098421  0
C  C63  1  0.08760389  0.96350986  0.05579877  1  1.58712  0  0.237689  0.651662  0  4.101414  0
C  C64  1  0.79105043  0.71052522  0.93936491  1  1.573114  0  0.232378  0.643125  0  4.098798  0
C  C65  1  0.69859330  0.96760707  0.09403696  1  1.578165  0  0.236285  0.649083  0  4.089795  0
C  C66  1  0.96531989  0.13290102  0.00737854  1  1.596197  0  0.236957  0.652378  0  4.109959  0
C  C67  1  0.04942845  0.87946327  0.83600800  1  1.59651  0  0.23754  0.65152  0  4.104594  0
C  C68  1  0.00143849  0.74196448  0.01157927  1  1.575214  0  0.235366  0.647426  0  4.112745  0
C  C69  1  0.91707180  0.01421726  0.17695564  1  1.564231  0  0.237159  0.649867  0  4.093196  0
C  C70  1  0.22365571  0.83224248  0.77746607  1  0.051267  0  -0.082654  -0.144897  0  3.949349  0
C  C71  1  0.23300487  0.87913420  0.72671545  1  0.026091  0  -0.00226  -0.01576  0  3.934203  0
C  C72  1  0.17932875  0.92190592  0.70976821  1  -0.103495  0  -0.005569  0.090998  0  3.925516  0
C  C73  1  0.12005603  0.91901928  0.74495023  1  0.036872  0  -0.084904  -0.1378  0  3.951812  0
C  C74  1  0.11096158  0.87199809  0.79518343  1  0.063255  0  -0.00957  -0.045887  0  3.935018  0
C  C75  1  0.16302672  0.82741756  0.81023992  1  -0.125921  0  -0.013193  0.08432  0  3.955567  0
C  C76  1  0.47295288  0.88922939  0.82702506  1  0.015231  0  -0.080196  -0.142835  0  3.93526  0
C  C77  1  0.47702048  0.87597116  0.75712965  1  0.038521  0  -0.002067  -0.014038  0  3.921589  0
C  C78  1  0.54096103  0.86079444  0.73254625  1  -0.080629  0  -0.005436  0.098381  0  3.911766  0
C  C79  1  0.59838016  0.86611804  0.77576166  1  -0.014816  0  -0.089692  -0.140419  0  3.970652  0
C  C80  1  0.59453141  0.88194486  0.84496391  1  0.055149  0  -0.010074  -0.050192  0  3.920129  0
C  C81  1  0.53042178  0.89085823  0.87080170  1  -0.076177  0  -0.00962  0.090083  0  3.947889  0
C  C82  1  0.27552325  0.97184399  0.11165851  1  0.03063  0  -0.079224  -0.138488  0  3.931883  0
C  C83  1  0.27164585  0.98865534  0.18088123  1  0.034571  0  -0.001708  -0.015958  0  3.921347  0
C  C84  1  0.20783008  0.00490851  0.20517442  1  -0.137877  0  -0.004773  0.094152  0  3.926246  0
C  C85  1  0.15007028  0.99770714  0.16234134  1  0.130699  0  -0.084896  -0.138649  0  3.951704  0
C  C86  1  0.15395891  0.97790585  0.09410249  1  -0.014574  0  -0.009517  -0.051062  0  3.934375  0
C  C87  1  0.21784615  0.96729017  0.06840700  1  -0.08518  0  -0.01113  0.089307  0  3.953282  0
C  C88  1  0.55131300  0.03755794  0.19378010  1  0.029323  0  -0.085533  -0.154942  0  3.942634  0
C  C89  1  0.51503206  0.97746109  0.20389724  1  -0.003619  0  0.003847  0.006004  0  3.952752  0
C  C90  1  0.54111187  0.91619203  0.18054835  1  -0.070374  0  -0.013593  0.073706  0  3.956794  0
C  C91  1  0.60032109  0.91588550  0.14591029  1  0.006657  0  -0.086981  -0.129677  0  3.96526  0
C  C92  1  0.63710678  0.97618612  0.13469685  1  -0.019882  0  -0.02058  -0.083866  0  3.929078  0
C  C93  1  0.61245916  0.03745844  0.16076257  1  -0.040527  0  -0.006559  0.10443  0  3.934344  0
C  C94  1  0.42813596  0.97030519  0.44322496  1  0.070253  0  -0.082835  -0.143685  0  3.942994  0
C  C95  1  0.37907399  0.94029615  0.39718688  1  0.034562  0  -0.000546  -0.009716  0  3.925406  0
C  C96  1  0.32699758  0.89985465  0.42292705  1  -0.153083  0  -0.006404  0.091514  0  3.923424  0
C  C97  1  0.32464591  0.89165951  0.49221071  1  0.061836  0  -0.082562  -0.145219  0  3.942713  0
C  C98  1  0.37355178  0.92192747  0.53838188  1  0.042987  0  0.000903  -0.006331  0  3.919398  0
C  C99  1  0.42569830  0.96224366  0.51257041  1  -0.107645  0  -0.00605  0.0911  0  3.921185  0
C  C100  1  0.60657189  0.22780007  0.93479530  1  -0.005266  0  -0.078469  -0.136283  0  3.938392  0
C  C101  1  0.63978076  0.28397124  0.90788433  1  0.012003  0  -0.005297  -0.025753  0  3.940756  0
C  C102  1  0.70085395  0.27347089  0.87545604  1  -0.067865  0  -0.005635  0.095758  0  3.91884  0
C  C103  1  0.73097069  0.21068475  0.87737577  1  -0.031995  0  -0.092481  -0.15107  0  3.967619  0
C  C104  1  0.70065194  0.15719934  0.91023690  1  0.093219  0  -0.005909  -0.033863  0  3.936587  0
C  C105  1  0.63626431  0.16496014  0.93541705  1  -0.078265  0  -0.012558  0.08693  0  3.959042  0
C  C106  1  0.72263728  0.52889016  0.90001906  1  0.058405  0  -0.08367  -0.143753  0  3.930992  0
C  C107  1  0.67693886  0.52263179  0.95160120  1  0.013698  0  0.002194  2.2e-05  0  3.928392  0
C  C108  1  0.67697751  0.57404286  0.00230854  1  -0.057531  0  -0.009418  0.086357  0  3.942144  0
C  C109  1  0.71660741  0.63231400  0.99668443  1  0.008136  0  -0.084683  -0.124665  0  3.934205  0
C  C110  1  0.75883220  0.64117947  0.94211565  1  0.041555  0  -0.02126  -0.075255  0  3.927308  0
C  C111  1  0.76391855  0.58680881  0.89508353  1  -0.110751  0  -0.01302  0.094238  0  3.945552  0
C  C112  1  0.06913414  0.19587852  0.05217769  1  0.052832  0  -0.084534  -0.136474  0  3.945748  0
C  C113  1  0.00394463  0.19874787  0.02154298  1  -0.042237  0  -0.009907  -0.048687  0  3.940421  0
C  C114  1  0.98119624  0.26106279  0.99956102  1  -0.051073  0  -0.014392  0.08363  0  3.962906  0
C  C115  1  0.02443707  0.31796619  0.00450219  1  0.031256  0  -0.081363  -0.141775  0  3.944628  0
C  C116  1  0.09096039  0.31488830  0.03256259  1  0.04959  0  -0.002351  -0.015985  0  3.930368  0
C  C117  1  0.11179046  0.25322294  0.05912533  1  -0.114293  0  -0.005169  0.093178  0  3.93158  0
C  C118  1  0.04230067  0.55520364  0.01706166  1  0.006218  0  -0.082276  -0.13816  0  3.952623  0
C  C119  1  0.11355624  0.55717304  0.02411922  1  0.119349  0  -0.003234  -0.019462  0  3.923372  0
C  C120  1  0.14639081  0.62130381  0.03395200  1  -0.131387  0  -0.006964  0.090911  0  3.914859  0
C  C121  1  0.10870885  0.68014450  0.03372061  1  0.048185  0  -0.09258  -0.148842  0  3.956715  0
C  C122  1  0.03821979  0.67737854  0.02244397  1  0.01925  0  -0.010746  -0.041565  0  3.927737  0
C  C123  1  0.00514101  0.61355248  0.01572949  1  -0.129529  0  -0.014889  0.082791  0  3.963047  0
C  C124  1  0.40973964  0.36290653  0.95093010  1  0.090121  0  -0.086497  -0.147916  0  3.95011  0
C  C125  1  0.44948860  0.42321693  0.95826599  1  0.044211  0  3.1e-05  -0.010737  0  3.900913  0
C  C126  1  0.41523054  0.48314917  0.97439573  1  -0.128112  0  -0.006685  0.094949  0  3.901223  0
C  C127  1  0.34631786  0.47974742  0.98601357  1  0.053549  0  -0.085103  -0.141157  0  3.941649  0
C  C128  1  0.30733584  0.41906834  0.98118083  1  0.019278  0  3.9e-05  -0.008242  0  3.90356  0
C  C129  1  0.34054580  0.35984622  0.96095106  1  -0.143535  0  -0.006118  0.094055  0  3.916512  0
C  C130  1  0.77630304  0.75542412  0.24056537  1  0.065629  0  -0.086395  -0.142552  0  3.962163  0
C  C131  1  0.83362341  0.74606599  0.20256947  1  -0.007312  0  -0.011742  -0.056847  0  3.928196  0
C  C132  1  0.88326062  0.70181776  0.22630929  1  -0.074266  0  -0.009438  0.093734  0  3.948183  0
C  C133  1  0.87562612  0.66963142  0.28688565  1  0.100523  0  -0.082563  -0.145716  0  3.951878  0
C  C134  1  0.82115967  0.68326048  0.32744940  1  -0.033006  0  -0.001262  -0.007567  0  3.942009  0
C  C135  1  0.77058425  0.72594803  0.30295237  1  -0.089212  0  -0.008615  0.087398  0  3.938849  0
C  C136  1  0.78202222  0.70438386  0.62128083  1  0.029492  0  -0.078773  -0.139064  0  3.943374  0
C  C137  1  0.82484065  0.71909861  0.56888174  1  0.061509  0  -0.001087  -0.012296  0  3.937279  0
C  C138  1  0.86815610  0.77685056  0.57575830  1  -0.12589  0  -0.00496  0.091641  0  3.925156  0
C  C139  1  0.87088872  0.81706412  0.63507111  1  0.03997  0  -0.084716  -0.140513  0  3.954347  0
C  C140  1  0.82892242  0.80153147  0.68743601  1  0.080362  0  -0.008817  -0.042915  0  3.949789  0
C  C141  1  0.78302460  0.74632991  0.67905373  1  -0.095327  0  -0.010521  0.084337  0  3.953451  0
C  C142  1  0.92990652  0.07405367  0.36333336  1  0.015597  0  -0.083534  -0.140776  0  3.934113  0
C  C143  1  0.93542035  0.14496030  0.35738227  1  0.004158  0  -0.00103  -0.014878  0  3.89209  0
C  C144  1  0.93996661  0.16969320  0.29157240  1  -0.07365  0  -0.005681  0.094971  0  3.916304  0
C  C145  1  0.93561622  0.12478339  0.23579943  1  0.059514  0  -0.085825  -0.136319  0  3.950612  0
C  C146  1  0.92881307  0.05458329  0.24219477  1  0.011878  0  -0.010433  -0.051154  0  3.929272  0
C  C147  1  0.92723561  0.02941669  0.30743800  1  -0.0724  0  -0.01229  0.088507  0  3.955062  0
C  C148  1  0.89097037  0.05624953  0.66600068  1  0.014982  0  -0.08504  -0.136006  0  3.95564  0
C  C149  1  0.92535365  0.08564090  0.72378673  1  0.028277  0  -0.013165  -0.058267  0  3.93045  0
C  C150  1  0.95872371  0.14875170  0.71872948  1  -0.072756  0  -0.009495  0.092802  0  3.95057  0
C  C151  1  0.95638177  0.18127810  0.65735158  1  -0.055241  0  -0.080388  -0.144293  0  3.940103  0
C  C152  1  0.92373282  0.15099475  0.59908980  1  0.108737  0  0.000345  -0.008877  0  3.937946  0
C  C153  1  0.89096049  0.08729799  0.60422466  1  -0.08707  0  -0.007356  0.083144  0  3.933349  0
C  C154  1  0.84445466  0.38208006  0.51364067  1  0.073002  0  -0.081241  -0.143219  0  3.935303  0
C  C155  1  0.89980055  0.35867205  0.47862719  1  -0.034162  0  0.000468  -0.007921  0  3.930537  0
C  C156  1  0.93740040  0.40570513  0.44275597  1  -0.030892  0  -0.00734  0.089072  0  3.936921  0
C  C157  1  0.91722474  0.47234156  0.43859967  1  -0.016236  0  -0.08213  -0.143683  0  3.948207  0
C  C158  1  0.86086164  0.49542115  0.47220535  1  -0.0052  0  -0.000178  -0.009724  0  3.938501  0
C  C159  1  0.82534507  0.44935566  0.51094201  1  -0.015568  0  -0.007411  0.0885  0  3.931708  0
Br  Br160  1  0.15536805  0.76375669  0.87964408  1  -0.048442  0  0.029958  -0.058911  0  1.447679  0
Br  Br161  1  0.18512587  0.99110502  0.64584074  1  -0.032624  0  0.027415  -0.059737  0  1.372915  0
Br  Br162  1  0.51941471  0.91006231  0.96433471  1  -0.044785  0  0.033673  -0.039851  0  1.440833  0
Br  Br163  1  0.55512894  0.82886665  0.64290235  1  -0.02747  0  0.025461  -0.063169  0  1.426236  0
Br  Br164  1  0.22757001  0.93945682  0.97666474  1  -0.043859  0  0.027168  -0.05567  0  1.401616  0
Br  Br165  1  0.19463623  0.03955012  0.29393950  1  -0.025121  0  0.028592  -0.058575  0  1.402289  0
Br  Br166  1  0.65689559  0.12301067  0.15369818  1  -0.017273  0  0.037262  -0.041666  0  1.432084  0
Br  Br167  1  0.49465264  0.83239987  0.19348791  1  -0.049161  0  0.023708  -0.060599  0  1.342646  0
Br  Br168  1  0.49188411  0.01245244  0.56784191  1  -0.026414  0  0.023702  -0.061907  0  1.395662  0
Br  Br169  1  0.26101005  0.84988649  0.36721357  1  -0.029238  0  0.023209  -0.061498  0  1.388833  0
Br  Br170  1  0.58921286  0.08869077  0.96843673  1  -0.036252  0  0.03236  -0.058238  0  1.489158  0
Br  Br171  1  0.74518401  0.33920372  0.82370414  1  -0.032908  0  0.033419  -0.060782  0  1.437958  0
Br  Br172  1  0.82356665  0.58716174  0.82290715  1  -0.02121  0  0.033682  -0.045559  0  1.467148  0
Br  Br173  1  0.62791474  0.56548878  0.08179121  1  -0.035462  0  0.024941  -0.060698  0  1.396372  0
Br  Br174  1  0.19565257  0.24419667  0.10834365  1  -0.028189  0  0.026897  -0.061629  0  1.40657  0
Br  Br175  1  0.89325633  0.26886083  0.95746706  1  -0.051467  0  0.027673  -0.067075  0  1.462397  0
Br  Br176  1  0.90943407  0.60341704  0.00729173  1  -0.014661  0  0.046348  -0.03956  0  1.588029  0
Br  Br177  1  0.24141165  0.63495676  0.05135955  1  -0.03511  0  0.036507  -0.058138  0  1.434308  0
Br  Br178  1  0.29689611  0.27403932  0.94129767  1  -0.028747  0  0.02235  -0.064986  0  1.422602  0
Br  Br179  1  0.45428644  0.57231997  0.98039085  1  -0.019649  0  0.02253  -0.063894  0  1.452176  0
Br  Br180  1  0.69132657  0.74269640  0.35067843  1  -0.034745  0  0.021859  -0.0615  0  1.359049  0
Br  Br181  1  0.96190525  0.68163124  0.17932319  1  -0.022412  0  0.041047  -0.043011  0  1.541979  0
Br  Br182  1  0.72145266  0.72796143  0.74783968  1  -0.054337  0  0.060232  -0.033086  0  1.500262  0
Br  Br183  1  0.93013662  0.79998122  0.50912790  1  -0.031166  0  0.026977  -0.060287  0  1.378756  0
Br  Br184  1  0.91450995  0.93537254  0.32219638  1  -0.046285  0  0.022446  -0.052662  0  1.366439  0
Br  Br185  1  0.95173176  0.26197100  0.27027925  1  -0.01732  0  0.02888  -0.060642  0  1.478308  0
Br  Br186  1  0.83863205  0.04281855  0.53183936  1  -0.03438  0  0.041438  -0.049386  0  1.41075  0
Br  Br187  1  0.00291845  0.19516027  0.79472723  1  -0.030917  0  0.029697  -0.051542  0  1.402651  0
Br  Br188  1  0.74709308  0.47429940  0.55713141  1  -0.047419  0  0.019962  -0.067134  0  1.353729  0
Br  Br189  1  0.02016258  0.38303776  0.40391912  1  -0.038123  0  0.024724  -0.060687  0  1.422951  0
N  N190  1  0.91368313  0.25512135  0.53896315  1  -1.166046  0  -0.306661  -0.402972  0  3.154656  0
N  N191  1  0.92030954  0.25302914  0.41897279  1  -1.15217  0  -0.305484  -0.396235  0  3.247984  0
N  N192  1  0.93564454  0.15230945  0.47881050  1  -1.175633  0  -0.305816  -0.396807  0  3.246964  0
N  N193  1  0.81511048  0.69808942  0.44803491  1  -1.147833  0  -0.307941  -0.407908  0  3.262516  0
N  N194  1  0.83462743  0.60611342  0.52045874  1  -1.168986  0  -0.30739  -0.404128  0  3.18662  0
N  N195  1  0.84237215  0.59024918  0.40126284  1  -1.171866  0  -0.305137  -0.398741  0  3.156896  0
N  N196  1  0.21004162  0.48661081  0.00116541  1  -1.175116  0  -0.305197  -0.392156  0  3.232404  0
N  N197  1  0.20034507  0.36730582  0.01237870  1  -1.17582  0  -0.306676  -0.396454  0  3.273879  0
N  N198  1  0.10601989  0.43617792  0.03206687  1  -1.186498  0  -0.30599  -0.40026  0  3.202905  0
N  N199  1  0.54481507  0.35537830  0.92993176  1  -1.200069  0  -0.302713  -0.394425  0  3.193197  0
N  N200  1  0.56435635  0.47224369  0.95842453  1  -1.168781  0  -0.306571  -0.396048  0  3.270376  0
N  N201  1  0.65629057  0.40379350  0.92863781  1  -1.182574  0  -0.308908  -0.399179  0  3.241674  0
N  N202  1  0.44729890  0.96339351  0.30175421  1  -1.143167  0  -0.308451  -0.40661  0  3.173636  0
N  N203  1  0.32693342  0.96371483  0.28804700  1  -1.175803  0  -0.305487  -0.395545  0  3.293369  0
N  N204  1  0.39415362  0.98874307  0.19522770  1  -1.184448  0  -0.308005  -0.404645  0  3.174622  0
N  N205  1  0.35447263  0.87472652  0.74016558  1  -1.21069  0  -0.303581  -0.396991  0  3.177955  0
N  N206  1  0.42382256  0.90249423  0.64971402  1  -1.16789  0  -0.307211  -0.394928  0  3.302452  0
N  N207  1  0.30400675  0.89603224  0.63162105  1  -1.186696  0  -0.307965  -0.401299  0  3.235457  0
O  O208  1  0.96742598  0.04387362  0.83014701  1  -1.164261  0  -0.334836  -0.600075  0  2.281532  0
O  O209  1  0.67444431  0.86459495  0.93874417  1  -1.168126  0  -0.331308  -0.597078  0  2.253467  0
O  O210  1  0.81273051  0.89361294  0.76664335  1  -1.175006  0  -0.333304  -0.591898  0  2.233544  0
O  O211  1  0.74975668  0.05458507  0.87333535  1  -1.173201  0  -0.338513  -0.591216  0  2.252444  0
O  O212  1  0.76855603  0.09401975  0.98215751  1  -1.1702  0  -0.354899  -0.613456  0  2.280417  0
O  O213  1  0.87879320  0.80559279  0.79568439  1  -1.166021  0  -0.35691  -0.607419  0  2.284332  0
O  O214  1  0.70375934  0.92774232  0.85043458  1  -1.170879  0  -0.367236  -0.616156  0  2.304543  0
O  O215  1  0.85856388  0.02120888  0.79217556  1  -1.176848  0  -0.366187  -0.617368  0  2.304323  0
O  O216  1  0.79175894  0.95358920  0.96703263  1  -1.198722  0  -0.794854  -1.149276  0  2.14393  0
O  O217  1  0.90563034  0.92234917  0.88274415  1  -1.201248  0  -0.792472  -1.154657  0  2.13271  0
O  O218  1  0.80149547  0.84921977  0.89322943  1  -1.249209  0  -0.695938  -1.066137  0  2.371791  0
O  O219  1  0.87539128  0.03848617  0.92586203  1  -1.246826  0  -0.692569  -1.070519  0  2.349892  0
O  O220  1  0.78955022  0.79664903  0.10246936  1  -1.174413  0  -0.332426  -0.595653  0  2.214332  0
O  O221  1  0.07474462  0.98980563  0.99942344  1  -1.174768  0  -0.334438  -0.600632  0  2.273462  0
O  O222  1  0.84341039  0.72252644  0.90686381  1  -1.161809  0  -0.331748  -0.606132  0  2.338271  0
O  O223  1  0.74060287  0.01630808  0.08745039  1  -1.172608  0  -0.336229  -0.600137  0  2.327499  0
O  O224  1  0.90926739  0.12151347  0.03406048  1  -1.170499  0  -0.333923  -0.60174  0  2.256127  0
O  O225  1  0.00826414  0.83006578  0.84211179  1  -1.17094  0  -0.333011  -0.59436  0  2.258502  0
O  O226  1  0.00226767  0.78714876  0.05845900  1  -1.151439  0  -0.332612  -0.596438  0  2.267656  0
O  O227  1  0.94592956  0.95880551  0.16599975  1  -1.167683  0  -0.329188  -0.598632  0  2.256708  0
O  O228  1  0.97373597  0.74557579  0.95219231  1  -1.169929  0  -0.362137  -0.618639  0  2.308894  0
O  O229  1  0.87619483  0.04320924  0.13558554  1  -1.165285  0  -0.369834  -0.618404  0  2.313186  0
O  O230  1  0.75898968  0.75520759  0.97301920  1  -1.18681  0  -0.381891  -0.629174  0  2.34589  0
O  O231  1  0.04529793  0.93934739  0.86190831  1  -1.171133  0  -0.362022  -0.613595  0  2.292213  0
O  O232  1  0.99569318  0.09279222  0.96772243  1  -1.170677  0  -0.35972  -0.613014  0  2.290606  0
O  O233  1  0.70430966  0.90756442  0.06825445  1  -1.185021  0  -0.374196  -0.630989  0  2.33542  0
O  O234  1  0.89915664  0.81840609  0.13875702  1  -1.179612  0  -0.367516  -0.629228  0  2.33528  0
O  O235  1  0.04800286  0.92413365  0.08687211  1  -1.168986  0  -0.363115  -0.611426  0  2.284622  0
O  O236  1  0.93129059  0.97779653  0.02146874  1  -1.1972  0  -0.788996  -1.153075  0  2.122275  0
O  O237  1  0.87741170  0.83812854  0.99796766  1  -1.199827  0  -0.78918  -1.145888  0  2.120905  0
O  O238  1  0.99184153  0.88152132  0.96697256  1  -1.252004  0  -0.6917  -1.068304  0  2.352139  0
O  O239  1  0.83759808  0.92323836  0.08240040  1  -1.246772  0  -0.694719  -1.071161  0  2.358079  0
