# generated using pymatgen
data_FeNiH18C30(N2O)4
_symmetry_space_group_name_H-M   'P 1'
_cell_length_a   6.93415558
_cell_length_b   13.46086482
_cell_length_c   15.62816840
_cell_angle_alpha   100.76813514
_cell_angle_beta   89.99974176
_cell_angle_gamma   90.00012131
_symmetry_Int_Tables_number   1
_chemical_formula_structural   FeNiH18C30(N2O)4
_chemical_formula_sum   'Fe2 Ni2 H36 C60 N16 O8'
_cell_volume   1433.04272588
_cell_formula_units_Z   2
loop_
 _symmetry_equiv_pos_site_id
 _symmetry_equiv_pos_as_xyz
  1  'x, y, z'
loop_
 _atom_site_type_symbol
 _atom_site_label
 _atom_site_symmetry_multiplicity
 _atom_site_fract_x
 _atom_site_fract_y
 _atom_site_fract_z
 _atom_site_occupancy
 _atom_site_hle17_bader_spin_density
 _atom_site_hle17_ddec_charge
 _atom_site_hle17_ddec_spin_density
 _atom_site_hle17_ddec_sum_bond_order
 _atom_site_hle17_magmom
 _atom_site_hse06_10hf_bader_spin_density
 _atom_site_hse06_10hf_ddec_charge
 _atom_site_hse06_10hf_ddec_spin_density
 _atom_site_hse06_10hf_ddec_sum_bond_order
 _atom_site_hse06_10hf_magmom
 _atom_site_hse06_bader_spin_density
 _atom_site_hse06_ddec_charge
 _atom_site_hse06_ddec_spin_density
 _atom_site_hse06_ddec_sum_bond_order
 _atom_site_hse06_magmom
 _atom_site_pbe_bader_spin_density
 _atom_site_pbe_cm5_charge
 _atom_site_pbe_ddec_charge
 _atom_site_pbe_ddec_spin_density
 _atom_site_pbe_ddec_sum_bond_order
 _atom_site_pbe_magmom
Fe  Fe0  1  0.00000072  0.00000157  0.99999780  1  0  0.586777  0  3.504017  0  0  0.576931  0  3.9738  0  0  0.599231  0  3.934539  0  0  0.913366  0.571011  0  3.990298  0
Fe  Fe1  1  0.00000318  0.50000356  0.99999885  1  0  0.591084  0  3.501921  0  0  0.58035  0  3.974309  0  0  0.602299  0  3.935677  0  0  0.90889  0.574226  0  3.99054  0
Ni  Ni2  1  0.50000313  0.76055764  0.03537791  1  0  0.139026  0  3.39024  0  0  0.139171  0  3.878476  0  0  0.154685  0  3.813311  0  0  0.401605  0.134667  0  3.922427  0
Ni  Ni3  1  0.50000171  0.23944901  0.96462373  1  0  0.139212  0  3.389988  0  0  0.139457  0  3.878123  0  0  0.154967  0  3.812977  0  0  0.401728  0.134956  0  3.92208  0
H  H4  1  0.99999737  0.97169010  0.18133631  1  0  0.079575  0  0.965917  0  0  0.087449  0  1.031401  0  0  0.087835  0  1.031833  0  0  0.117718  0.0872  0  1.031191  0
H  H5  1  0.99999945  0.02831010  0.81865945  1  0  0.079555  0  0.965967  0  0  0.087442  0  1.03146  0  0  0.087822  0  1.031896  0  0  0.117762  0.087195  0  1.031248  0
H  H6  1  0.00000571  0.08102984  0.32916168  1  0  0.11645  0  0.9626  0  0  0.118408  0  1.032964  0  0  0.122007  0  1.031027  0  0  0.106568  0.115964  0  1.034323  0
H  H7  1  0.99997172  0.91896850  0.67083542  1  0  0.11634  0  0.962558  0  0  0.118318  0  1.032933  0  0  0.121904  0  1.031017  0  0  0.106532  0.115873  0  1.034296  0
H  H8  1  0.99999887  0.34019783  0.20180311  1  0  0.111961  0  0.970209  0  0  0.119332  0  1.034451  0  0  0.120931  0  1.036638  0  0  0.106335  0.118232  0  1.033019  0
H  H9  1  0.99997632  0.65979934  0.79819407  1  0  0.111932  0  0.970118  0  0  0.119299  0  1.034374  0  0  0.120898  0  1.036562  0  0  0.106282  0.118203  0  1.032946  0
H  H10  1  0.99999357  0.22137760  0.06069883  1  0  0.094346  0  0.947108  0  0  0.102784  0  1.006075  0  0  0.103  0  1.007188  0  0  0.126448  0.102686  0  1.005244  0
H  H11  1  0.00000406  0.77862301  0.93929800  1  0  0.094487  0  0.947044  0  0  0.102895  0  1.006034  0  0  0.103127  0  1.007108  0  0  0.126504  0.102799  0  1.005202  0
H  H12  1  0.31173829  0.45453220  0.70299074  1  0  0.116933  0  0.950072  0  0  0.124957  0  1.010331  0  0  0.128512  0  1.008239  0  0  0.11097  0.122479  0  1.011953  0
H  H13  1  0.31170736  0.54546601  0.29701120  1  0  0.116966  0  0.950262  0  0  0.12508  0  1.010397  0  0  0.128635  0  1.008307  0  0  0.111046  0.122602  0  1.012019  0
H  H14  1  0.68827664  0.54546387  0.29700727  1  0  0.116945  0  0.950154  0  0  0.125052  0  1.010315  0  0  0.128607  0  1.008222  0  0  0.111002  0.122573  0  1.011937  0
H  H15  1  0.68830613  0.45452703  0.70298313  1  0  0.116874  0  0.950345  0  0  0.125035  0  1.01044  0  0  0.128593  0  1.008345  0  0  0.111012  0.122556  0  1.012061  0
H  H16  1  0.29899194  0.49019548  0.86472498  1  0  0.095209  0  0.934887  0  0  0.105353  0  0.99261  0  0  0.106445  0  0.991698  0  0  0.127054  0.104545  0  0.993393  0
H  H17  1  0.29897403  0.50980574  0.13527747  1  0  0.095238  0  0.934903  0  0  0.105441  0  0.992563  0  0  0.106489  0  0.991704  0  0  0.127062  0.104635  0  0.993348  0
H  H18  1  0.70102010  0.50980286  0.13527340  1  0  0.095222  0  0.93494  0  0  0.10534  0  0.992682  0  0  0.106443  0  0.991759  0  0  0.127025  0.104533  0  0.993467  0
H  H19  1  0.70103369  0.49019184  0.86471823  1  0  0.095143  0  0.934818  0  0  0.105404  0  0.992431  0  0  0.106429  0  0.991598  0  0  0.127067  0.104611  0  0.993202  0
H  H20  1  0.49999286  0.22089056  0.13769591  1  0  0.104559  0  0.97349  0  0  0.102471  0  1.058088  0  0  0.108086  0  1.050188  0  0  0.104029  0.098006  0  1.064284  0
H  H21  1  0.49998890  0.77910173  0.86231365  1  0  0.104521  0  0.97329  0  0  0.102355  0  1.058  0  0  0.107971  0  1.050089  0  0  0.103972  0.097887  0  1.064211  0
H  H22  1  0.49999548  0.03237479  0.11518588  1  0  0.107722  0  0.953216  0  0  0.117467  0  1.010366  0  0  0.119072  0  1.011975  0  0  0.107628  0.116246  0  1.009453  0
H  H23  1  0.49998917  0.96762052  0.88482417  1  0  0.107627  0  0.953467  0  0  0.117341  0  1.010667  0  0  0.11897  0  1.012222  0  0  0.107608  0.116119  0  1.009759  0
H  H24  1  0.49999813  0.94722044  0.24298714  1  0  0.075989  0  0.96625  0  0  0.087486  0  1.032043  0  0  0.088929  0  1.031883  0  0  0.09753  0.086331  0  1.032345  0
H  H25  1  0.49999372  0.05277714  0.75702583  1  0  0.075999  0  0.966233  0  0  0.087483  0  1.032047  0  0  0.088936  0  1.031883  0  0  0.097528  0.086328  0  1.03235  0
H  H26  1  0.50000132  0.04932999  0.39390034  1  0  0.101934  0  0.931673  0  0  0.114118  0  0.984212  0  0  0.11702  0  0.982803  0  0  0.106508  0.112054  0  0.985357  0
H  H27  1  0.49999775  0.95067742  0.60610846  1  0  0.10182  0  0.931537  0  0  0.114012  0  0.984118  0  0  0.116915  0  0.982704  0  0  0.106434  0.111948  0  0.985267  0
H  H28  1  0.50000303  0.23825403  0.41556039  1  0  0.119586  0  0.929437  0  0  0.127956  0  0.9875  0  0  0.131859  0  0.984423  0  0  0.116134  0.125139  0  0.989775  0
H  H29  1  0.50000613  0.76175111  0.58444548  1  0  0.119581  0  0.929421  0  0  0.127968  0  0.987444  0  0  0.131864  0  0.984381  0  0  0.11611  0.125154  0  0.989711  0
H  H30  1  0.30933260  0.15935894  0.62448416  1  0  0.112795  0  0.941513  0  0  0.123174  0  0.998098  0  0  0.127084  0  0.994866  0  0  0.113062  0.120295  0  1.000589  0
H  H31  1  0.30933813  0.84063397  0.37550862  1  0  0.112706  0  0.941705  0  0  0.123116  0  0.998257  0  0  0.127027  0  0.995025  0  0  0.113033  0.120238  0  1.000745  0
H  H32  1  0.69067223  0.84063561  0.37551426  1  0  0.112772  0  0.941656  0  0  0.123154  0  0.998232  0  0  0.127065  0  0.995001  0  0  0.113034  0.120274  0  1.000722  0
H  H33  1  0.69066382  0.15936210  0.62448812  1  0  0.112757  0  0.941564  0  0  0.123144  0  0.998142  0  0  0.127056  0  0.99491  0  0  0.11305  0.120264  0  1.000633  0
H  H34  1  0.30990298  0.21742782  0.78786599  1  0  0.082654  0  0.964328  0  0  0.08722  0  1.038307  0  0  0.091351  0  1.033876  0  0  0.098647  0.08378  0  1.042227  0
H  H35  1  0.30990127  0.78257189  0.21212788  1  0  0.082692  0  0.964194  0  0  0.087285  0  1.03816  0  0  0.091431  0  1.033709  0  0  0.098664  0.083833  0  1.042091  0
H  H36  1  0.69010041  0.78257127  0.21213315  1  0  0.08268  0  0.964295  0  0  0.08727  0  1.038253  0  0  0.091404  0  1.033817  0  0  0.098661  0.083818  0  1.042185  0
H  H37  1  0.69009780  0.21742796  0.78787011  1  0  0.082678  0  0.96425  0  0  0.08727  0  1.03821  0  0  0.091428  0  1.033748  0  0  0.098677  0.083815  0  1.042145  0
H  H38  1  0.00000189  0.24572128  0.86730693  1  0  0.107609  0  0.94519  0  0  0.115938  0  1.007124  0  0  0.117631  0  1.008267  0  0  0.110313  0.114614  0  1.006451  0
H  H39  1  0.99999862  0.75428008  0.13269002  1  0  0.107655  0  0.945031  0  0  0.115982  0  1.006979  0  0  0.117677  0  1.008128  0  0  0.110317  0.11466  0  1.006297  0
C  C40  1  0.31312979  0.85773659  0.04095098  1  0  0.037197  0  3.445123  0  0  0.016526  0  3.788373  0  0  0.023279  0  3.786174  0  0  0.019745  0.010274  0  3.79065  0
C  C41  1  0.31313235  0.14226692  0.95905116  1  0  0.037039  0  3.445185  0  0  0.01629  0  3.788527  0  0  0.023045  0  3.786323  0  0  0.019565  0.010036  0  3.790809  0
C  C42  1  0.68687505  0.14226856  0.95904849  1  0  0.03715  0  3.445089  0  0  0.01644  0  3.788367  0  0  0.023191  0  3.786166  0  0  0.01962  0.010186  0  3.79065  0
C  C43  1  0.68687104  0.85773898  0.04095035  1  0  0.037204  0  3.445199  0  0  0.016521  0  3.78846  0  0  0.023273  0  3.78626  0  0  0.019735  0.010269  0  3.790737  0
C  C44  1  0.31261636  0.33725026  0.97897803  1  0  0.04329  0  3.443094  0  0  0.02119  0  3.785808  0  0  0.028713  0  3.783371  0  0  0.019381  0.014249  0  3.788407  0
C  C45  1  0.31261898  0.66275778  0.02102677  1  0  0.043377  0  3.443114  0  0  0.021292  0  3.785808  0  0  0.028816  0  3.783377  0  0  0.019425  0.014352  0  3.788409  0
C  C46  1  0.68739136  0.66275942  0.02102410  1  0  0.043403  0  3.443385  0  0  0.021374  0  3.785993  0  0  0.028897  0  3.783562  0  0  0.019445  0.014435  0  3.788592  0
C  C47  1  0.68739019  0.33724887  0.97897551  1  0  0.043218  0  3.443183  0  0  0.021098  0  3.785911  0  0  0.028624  0  3.783473  0  0  0.019291  0.014158  0  3.788511  0
C  C48  1  0.99999979  0.05368457  0.18911753  1  0  0.121157  0  3.674189  0  0  0.092235  0  3.925033  0  0  0.101097  0  3.942249  0  0  0.049731  0.086287  0  3.913504  0
C  C49  1  0.99998693  0.94631487  0.81088130  1  0  0.121114  0  3.674306  0  0  0.092117  0  3.9252  0  0  0.10098  0  3.942411  0  0  0.049621  0.08617  0  3.91367  0
C  C50  1  0.00000319  0.11451729  0.27097377  1  0  -0.143472  0  3.665497  0  0  -0.155151  0  3.90481  0  0  -0.162905  0  3.924536  0  0  -0.072952  -0.150099  0  3.891611  0
C  C51  1  0.99998001  0.88548029  0.72902769  1  0  -0.143277  0  3.665344  0  0  -0.155008  0  3.904691  0  0  -0.162752  0  3.924397  0  0  -0.072918  -0.149958  0  3.891495  0
C  C52  1  0.00000337  0.22057346  0.27818267  1  0  0.148414  0  3.889895  0  0  0.15526  0  4.124229  0  0  0.162683  0  4.143038  0  0  0.011656  0.150438  0  4.111464  0
C  C53  1  0.99996685  0.77942260  0.72181023  1  0  0.148169  0  3.890502  0  0  0.155134  0  4.124689  0  0  0.162564  0  4.143473  0  0  0.011661  0.150314  0  4.111928  0
C  C54  1  0.00000240  0.25911984  0.20043959  1  0  -0.150354  0  3.6725  0  0  -0.170155  0  3.921227  0  0  -0.177765  0  3.940757  0  0  -0.078985  -0.165289  0  3.908214  0
C  C55  1  0.99998513  0.74088001  0.79955520  1  0  -0.150102  0  3.672261  0  0  -0.169946  0  3.920932  0  0  -0.177557  0  3.940462  0  0  -0.078879  -0.165085  0  3.907923  0
C  C56  1  0.99999978  0.19292402  0.12128761  1  0  0.124231  0  3.660308  0  0  0.096562  0  3.909384  0  0  0.104574  0  3.927431  0  0  0.050416  0.091225  0  3.897298  0
C  C57  1  0.99999496  0.80707658  0.87870858  1  0  0.124007  0  3.660398  0  0  0.096355  0  3.90944  0  0  0.104367  0  3.927494  0  0  0.050384  0.091021  0  3.897354  0
C  C58  1  0.00000741  0.28432096  0.36060405  1  0  -0.053475  0  3.739605  0  0  -0.056722  0  3.996205  0  0  -0.059592  0  4.023583  0  0  -0.008899  -0.054829  0  3.977555  0
C  C59  1  0.99996281  0.71568645  0.63940091  1  0  -0.053406  0  3.739325  0  0  -0.056701  0  3.995907  0  0  -0.059572  0  4.02329  0  0  -0.008936  -0.054808  0  3.977256  0
C  C60  1  0.00001435  0.33413482  0.43483701  1  0  -0.012159  0  4.007458  0  0  -0.014956  0  4.263558  0  0  -0.015107  0  4.289098  0  0  -0.025544  -0.014785  0  4.24611  0
C  C61  1  0.99998183  0.66585747  0.56515272  1  0  -0.012117  0  4.00603  0  0  -0.014883  0  4.262123  0  0  -0.015038  0  4.28767  0  0  -0.025461  -0.014712  0  4.244675  0
C  C62  1  0.00000681  0.38052462  0.51888249  1  0  -0.011401  0  4.016072  0  0  -0.012427  0  4.263655  0  0  -0.01108  0  4.289576  0  0  -0.021864  -0.013233  0  4.245944  0
C  C63  1  0.99997495  0.61946766  0.48110468  1  0  -0.011783  0  4.017046  0  0  -0.01283  0  4.264632  0  0  -0.011484  0  4.290548  0  0  -0.022045  -0.013638  0  4.246937  0
C  C64  1  0.00001946  0.41533126  0.59730985  1  0  -0.065211  0  3.764118  0  0  -0.062453  0  4.007805  0  0  -0.067423  0  4.035953  0  0  -0.009844  -0.059147  0  3.988471  0
C  C65  1  0.99998682  0.58466935  0.40269721  1  0  -0.064869  0  3.764767  0  0  -0.062094  0  4.008385  0  0  -0.06706  0  4.036524  0  0  -0.009811  -0.058791  0  3.989055  0
C  C66  1  0.00002483  0.44573026  0.68842514  1  0  0.152962  0  3.897509  0  0  0.160059  0  4.131964  0  0  0.168715  0  4.150577  0  0  0.013642  0.154542  0  4.118914  0
C  C67  1  0.99999010  0.55426581  0.31157096  1  0  0.153112  0  3.897137  0  0  0.160214  0  4.131591  0  0  0.168874  0  4.150194  0  0  0.013805  0.154699  0  4.118539  0
C  C68  1  0.17342281  0.45943273  0.73629550  1  0  -0.156542  0  3.691219  0  0  -0.174317  0  3.939306  0  0  -0.182179  0  3.957689  0  0  -0.078307  -0.1692  0  3.926854  0
C  C69  1  0.17339219  0.54056311  0.26370377  1  0  -0.156546  0  3.691376  0  0  -0.174389  0  3.939471  0  0  -0.182251  0  3.957841  0  0  -0.07825  -0.16927  0  3.927019  0
C  C70  1  0.82659213  0.54056333  0.26369995  1  0  -0.156653  0  3.691355  0  0  -0.174512  0  3.939441  0  0  -0.182378  0  3.957829  0  0  -0.078329  -0.169392  0  3.92699  0
C  C71  1  0.82662130  0.45943069  0.73629196  1  0  -0.156469  0  3.691362  0  0  -0.174351  0  3.939475  0  0  -0.182213  0  3.957838  0  0  -0.078204  -0.169232  0  3.927025  0
C  C72  1  0.16728033  0.47973109  0.82643860  1  0  0.12041  0  3.672145  0  0  0.088039  0  3.930251  0  0  0.097194  0  3.946156  0  0  0.047839  0.082027  0  3.919524  0
C  C73  1  0.16726352  0.52026853  0.17356130  1  0  0.120359  0  3.67234  0  0  0.087878  0  3.930466  0  0  0.097065  0  3.946382  0  0  0.047738  0.081855  0  3.919731  0
C  C74  1  0.83272595  0.52026649  0.17355838  1  0  0.120494  0  3.672234  0  0  0.088111  0  3.930309  0  0  0.097256  0  3.946209  0  0  0.047866  0.082089  0  3.919581  0
C  C75  1  0.83274997  0.47973283  0.82643565  1  0  0.120404  0  3.672272  0  0  0.087915  0  3.93047  0  0  0.09712  0  3.946391  0  0  0.047717  0.081887  0  3.919737  0
C  C76  1  0.49999796  0.23748979  0.27759276  1  0  0.047603  0  3.735275  0  0  0.044821  0  3.984484  0  0  0.040553  0  4.009397  0  0  0.07167  0.047412  0  3.967796  0
C  C77  1  0.49999967  0.76251308  0.72241339  1  0  0.047881  0  3.735396  0  0  0.044818  0  3.984878  0  0  0.040547  0  4.00979  0  0  0.071609  0.047407  0  3.968192  0
C  C78  1  0.49999539  0.18179260  0.19268542  1  0  -0.090699  0  3.722371  0  0  -0.116171  0  3.979836  0  0  -0.116517  0  3.999576  0  0  -0.077954  -0.115602  0  3.96692  0
C  C79  1  0.49999647  0.81820876  0.80732049  1  0  -0.090901  0  3.722385  0  0  -0.116226  0  3.979917  0  0  -0.116598  0  3.999721  0  0  -0.077993  -0.115657  0  3.966995  0
C  C80  1  0.49999956  0.07695202  0.18079434  1  0  -0.044124  0  3.711615  0  0  -0.057431  0  3.961767  0  0  -0.060494  0  3.984735  0  0  -0.081384  -0.055665  0  3.946483  0
C  C81  1  0.49999085  0.92304481  0.81921724  1  0  -0.043765  0  3.711811  0  0  -0.057028  0  3.961848  0  0  -0.060087  0  3.984826  0  0  -0.081221  -0.055265  0  3.946563  0
C  C82  1  0.49999622  0.02954784  0.25317089  1  0  -0.043716  0  3.727329  0  0  -0.06534  0  3.98364  0  0  -0.065813  0  4.005999  0  0  -0.077646  -0.064667  0  3.968286  0
C  C83  1  0.49998843  0.97044823  0.74683481  1  0  -0.044045  0  3.727476  0  0  -0.065661  0  3.983843  0  0  -0.066152  0  4.006206  0  0  -0.077792  -0.064981  0  3.968486  0
C  C84  1  0.50000312  0.08643147  0.33766313  1  0  -0.05263  0  3.734064  0  0  -0.065982  0  3.989809  0  0  -0.069386  0  4.010939  0  0  -0.083035  -0.063648  0  3.975126  0
C  C85  1  0.49999883  0.91357064  0.66234737  1  0  -0.052223  0  3.733719  0  0  -0.06561  0  3.989448  0  0  -0.06901  0  4.010577  0  0  -0.082865  -0.06327  0  3.97474  0
C  C86  1  0.50000038  0.19171226  0.35069105  1  0  -0.081035  0  3.707946  0  0  -0.110794  0  3.966754  0  0  -0.110113  0  3.985626  0  0  -0.073387  -0.11091  0  3.953804  0
C  C87  1  0.50000301  0.80828457  0.64932052  1  0  -0.081286  0  3.708161  0  0  -0.110949  0  3.967055  0  0  -0.110266  0  3.985919  0  0  -0.073346  -0.111065  0  3.95411  0
C  C88  1  0.99999495  0.15713771  0.61816383  1  0  0.065722  0  3.717031  0  0  0.059961  0  3.971974  0  0  0.056843  0  3.99497  0  0  0.0764  0.061817  0  3.956464  0
C  C89  1  0.00000988  0.84285835  0.38183483  1  0  0.065641  0  3.717112  0  0  0.059934  0  3.971982  0  0  0.056818  0  3.99498  0  0  0.076398  0.061791  0  3.956474  0
C  C90  1  0.17624919  0.17245247  0.66177388  1  0  -0.092414  0  3.722513  0  0  -0.117201  0  3.96928  0  0  -0.116855  0  3.98916  0  0  -0.075973  -0.117079  0  3.955579  0
C  C91  1  0.17625648  0.82754337  0.33822155  1  0  -0.092149  0  3.722689  0  0  -0.116994  0  3.969461  0  0  -0.116644  0  3.989335  0  0  -0.075814  -0.116871  0  3.955753  0
C  C92  1  0.82375565  0.82754435  0.33822490  1  0  -0.092399  0  3.722754  0  0  -0.117204  0  3.969524  0  0  -0.116857  0  3.989401  0  0  -0.075953  -0.117079  0  3.955815  0
C  C93  1  0.82375124  0.17245421  0.66177671  1  0  -0.092307  0  3.722695  0  0  -0.117096  0  3.969463  0  0  -0.11675  0  3.989346  0  0  -0.075914  -0.116969  0  3.955753  0
C  C94  1  0.17470715  0.20445907  0.75183028  1  0  -0.062541  0  3.7517  0  0  -0.072223  0  4.004528  0  0  -0.077109  0  4.027328  0  0  -0.081347  -0.068896  0  3.989278  0
C  C95  1  0.17470801  0.79553904  0.24816360  1  0  -0.062736  0  3.751552  0  0  -0.072442  0  4.004398  0  0  -0.077337  0  4.027195  0  0  -0.081462  -0.069105  0  3.989159  0
C  C96  1  0.82528615  0.79554002  0.24817142  1  0  -0.062616  0  3.751526  0  0  -0.072326  0  4.004375  0  0  -0.077212  0  4.027176  0  0  -0.081422  -0.068989  0  3.98913  0
C  C97  1  0.82528529  0.20446006  0.75183043  1  0  -0.062622  0  3.751493  0  0  -0.072335  0  4.004324  0  0  -0.077239  0  4.027118  0  0  -0.081436  -0.068998  0  3.989081  0
C  C98  1  0.00000220  0.22047215  0.79693990  1  0  -0.019932  0  3.678765  0  0  -0.044339  0  3.933206  0  0  -0.043287  0  3.955419  0  0  -0.070012  -0.044874  0  3.918025  0
C  C99  1  0.00000056  0.77952886  0.20305672  1  0  -0.019849  0  3.678469  0  0  -0.044268  0  3.932906  0  0  -0.043224  0  3.955126  0  0  -0.070004  -0.044803  0  3.917725  0
N  N100  1  0.19332156  0.91720889  0.03410111  1  0  -0.325046  0  3.317837  0  0  -0.296212  0  3.628802  0  0  -0.309754  0  3.642661  0  0  -0.384722  -0.288018  0  3.618003  0
N  N101  1  0.19332381  0.08279302  0.96589590  1  0  -0.324827  0  3.317846  0  0  -0.295952  0  3.628777  0  0  -0.309492  0  3.642634  0  0  -0.38451  -0.287758  0  3.617977  0
N  N102  1  0.80667751  0.08279398  0.96589416  1  0  -0.324971  0  3.317702  0  0  -0.296111  0  3.62864  0  0  -0.309651  0  3.642496  0  0  -0.384569  -0.287917  0  3.617842  0
N  N103  1  0.80667670  0.91721137  0.03410089  1  0  -0.325027  0  3.317932  0  0  -0.296192  0  3.6289  0  0  -0.309734  0  3.642759  0  0  -0.384712  -0.287998  0  3.6181  0
N  N104  1  0.99999880  0.09125572  0.11477909  1  0  -0.213201  0  3.345487  0  0  -0.162108  0  3.608707  0  0  -0.18322  0  3.629086  0  0  -0.324986  -0.148718  0  3.59393  0
N  N105  1  0.00000171  0.90874337  0.88521686  1  0  -0.21318  0  3.345622  0  0  -0.161999  0  3.608734  0  0  -0.18311  0  3.629117  0  0  -0.324994  -0.148612  0  3.59396  0
N  N106  1  0.00001246  0.48709478  0.87192988  1  0  -0.219502  0  3.345864  0  0  -0.169823  0  3.616654  0  0  -0.189945  0  3.635275  0  0  -0.328181  -0.15703  0  3.602876  0
N  N107  1  0.99999671  0.51291188  0.12806664  1  0  -0.219824  0  3.346199  0  0  -0.170034  0  3.616862  0  0  -0.190159  0  3.635498  0  0  -0.328278  -0.157214  0  3.60305  0
N  N108  1  0.19207689  0.39943039  0.98938211  1  0  -0.329757  0  3.327774  0  0  -0.301102  0  3.639029  0  0  -0.315939  0  3.653982  0  0  -0.386571  -0.291966  0  3.62751  0
N  N109  1  0.19207791  0.60057606  0.01062012  1  0  -0.32981  0  3.327773  0  0  -0.30115  0  3.639026  0  0  -0.315989  0  3.653983  0  0  -0.386582  -0.292017  0  3.627513  0
N  N110  1  0.80793083  0.60057778  0.01061722  1  0  -0.32987  0  3.327958  0  0  -0.301231  0  3.639202  0  0  -0.316069  0  3.654155  0  0  -0.386588  -0.292099  0  3.627692  0
N  N111  1  0.80792981  0.39943060  0.98937960  1  0  -0.32969  0  3.327841  0  0  -0.301026  0  3.639089  0  0  -0.315861  0  3.654038  0  0  -0.386499  -0.291893  0  3.627573  0
N  N112  1  0.49999524  0.34784531  0.28907208  1  0  0.497112  0  3.902821  0  0  0.526644  0  4.197367  0  0  0.547912  0  4.206028  0  0  0.053229  0.512446  0  4.191425  0
N  N113  1  0.50000815  0.65215530  0.71093178  1  0  0.497046  0  3.90284  0  0  0.526663  0  4.197392  0  0  0.547931  0  4.206053  0  0  0.053252  0.512467  0  4.191448  0
N  N114  1  0.99999969  0.12441914  0.52321818  1  0  0.498543  0  3.903732  0  0  0.524881  0  4.206797  0  0  0.546088  0  4.214911  0  0  0.055904  0.510607  0  4.201427  0
N  N115  1  0.00001956  0.87557920  0.47678020  1  0  0.498643  0  3.903582  0  0  0.52497  0  4.206655  0  0  0.546178  0  4.214767  0  0  0.055937  0.510695  0  4.201285  0
O  O116  1  0.50000074  0.39888805  0.36409333  1  0  -0.362593  0  1.710676  0  0  -0.347899  0  1.903496  0  0  -0.358753  0  1.900318  0  0  -0.131693  -0.340547  0  1.905776  0
O  O117  1  0.49999401  0.60111180  0.63590978  1  0  -0.362601  0  1.710802  0  0  -0.34789  0  1.903574  0  0  -0.358739  0  1.900401  0  0  -0.131674  -0.340535  0  1.90585  0
O  O118  1  0.49998700  0.38566356  0.22201416  1  0  -0.387661  0  1.783662  0  0  -0.366155  0  2.003167  0  0  -0.380431  0  2.000834  0  0  -0.130191  -0.356706  0  2.004974  0
O  O119  1  0.50003658  0.61433629  0.77798767  1  0  -0.387635  0  1.783723  0  0  -0.366135  0  2.00322  0  0  -0.380405  0  2.000891  0  0  -0.130191  -0.356684  0  2.005025  0
O  O120  1  0.15807470  0.11131236  0.48527976  1  0  -0.368215  0  1.748767  0  0  -0.352216  0  1.958896  0  0  -0.364913  0  1.956356  0  0  -0.128732  -0.343827  0  1.960767  0
O  O121  1  0.15810209  0.88866986  0.51471672  1  0  -0.368403  0  1.748739  0  0  -0.352391  0  1.958863  0  0  -0.365086  0  1.956318  0  0  -0.128859  -0.344009  0  1.960747  0
O  O122  1  0.84192292  0.88868598  0.51472118  1  0  -0.368382  0  1.748201  0  0  -0.352389  0  1.958334  0  0  -0.365092  0  1.955794  0  0  -0.128888  -0.343994  0  1.960199  0
O  O123  1  0.84189697  0.11132621  0.48527746  1  0  -0.368499  0  1.748338  0  0  -0.352483  0  1.958448  0  0  -0.365186  0  1.955906  0  0  -0.128988  -0.344097  0  1.960336  0
