# generated using pymatgen
data_H10PdC10(I3N)2
_symmetry_space_group_name_H-M   'P 1'
_cell_length_a   5.85542222
_cell_length_b   10.69664249
_cell_length_c   17.17442220
_cell_angle_alpha   76.10272241
_cell_angle_beta   80.24800778
_cell_angle_gamma   74.09168319
_symmetry_Int_Tables_number   1
_chemical_formula_structural   H10PdC10(I3N)2
_chemical_formula_sum   'H20 Pd2 C20 I12 N4'
_cell_volume   998.01581405
_cell_formula_units_Z   2
loop_
 _symmetry_equiv_pos_site_id
 _symmetry_equiv_pos_as_xyz
  1  'x, y, z'
loop_
 _atom_site_type_symbol
 _atom_site_label
 _atom_site_symmetry_multiplicity
 _atom_site_fract_x
 _atom_site_fract_y
 _atom_site_fract_z
 _atom_site_occupancy
 _atom_site_hle17_bader_spin_density
 _atom_site_hle17_ddec_charge
 _atom_site_hle17_ddec_spin_density
 _atom_site_hle17_ddec_sum_bond_order
 _atom_site_hle17_magmom
 _atom_site_hse06_10hf_bader_spin_density
 _atom_site_hse06_10hf_ddec_charge
 _atom_site_hse06_10hf_ddec_spin_density
 _atom_site_hse06_10hf_ddec_sum_bond_order
 _atom_site_hse06_10hf_magmom
 _atom_site_hse06_bader_spin_density
 _atom_site_hse06_ddec_charge
 _atom_site_hse06_ddec_spin_density
 _atom_site_hse06_ddec_sum_bond_order
 _atom_site_hse06_magmom
 _atom_site_pbe_bader_spin_density
 _atom_site_pbe_cm5_charge
 _atom_site_pbe_ddec_charge
 _atom_site_pbe_ddec_spin_density
 _atom_site_pbe_ddec_sum_bond_order
 _atom_site_pbe_magmom
H  H0  1  0.18555779  0.14890955  0.36974750  1  0  0.075302  0  0.975481  0  0  0.07795  0  1.055652  0  0  0.081417  0  1.051735  0  0  0.094809  0.075489  0  1.058366  0
H  H1  1  0.70324297  0.35178743  0.13024295  1  0  0.075305  0  0.977647  0  0  0.078504  0  1.056889  0  0  0.081949  0  1.05299  0  0  0.094755  0.076047  0  1.059689  0
H  H2  1  0.81444548  0.85109172  0.63024584  1  0  0.075301  0  0.975606  0  0  0.077945  0  1.055798  0  0  0.081415  0  1.051872  0  0  0.094856  0.075484  0  1.058509  0
H  H3  1  0.29674665  0.64821800  0.86975651  1  0  0.075374  0  0.977545  0  0  0.078568  0  1.056789  0  0  0.082015  0  1.052886  0  0  0.09478  0.076109  0  1.059591  0
H  H4  1  0.22006765  0.18510150  0.21890089  1  0  0.105552  0  0.955957  0  0  0.114618  0  1.016356  0  0  0.116938  0  1.017686  0  0  0.10053  0.113053  0  1.01544  0
H  H5  1  0.62449621  0.31488142  0.28092844  1  0  0.105342  0  0.955936  0  0  0.114317  0  1.016483  0  0  0.116652  0  1.01784  0  0  0.100497  0.112738  0  1.015578  0
H  H6  1  0.77996247  0.81489082  0.78109320  1  0  0.105497  0  0.955899  0  0  0.114647  0  1.016182  0  0  0.11697  0  1.017508  0  0  0.100502  0.113081  0  1.015268  0
H  H7  1  0.37549649  0.68512201  0.71907081  1  0  0.10533  0  0.955763  0  0  0.114324  0  1.016324  0  0  0.116658  0  1.017682  0  0  0.100481  0.112745  0  1.01542  0
H  H8  1  0.60671766  0.07955897  0.14471800  1  0  0.09056  0  0.973055  0  0  0.096512  0  1.044424  0  0  0.099497  0  1.0417  0  0  0.088618  0.094542  0  1.046062  0
H  H9  1  0.83261975  0.41943605  0.35555691  1  0  0.090059  0  0.972451  0  0  0.096271  0  1.04332  0  0  0.099201  0  1.040649  0  0  0.088216  0.093947  0  1.045588  0
H  H10  1  0.39331468  0.92042755  0.85528241  1  0  0.090557  0  0.973096  0  0  0.096509  0  1.044483  0  0  0.099511  0  1.041744  0  0  0.088579  0.094536  0  1.046125  0
H  H11  1  0.16737754  0.58056543  0.64444407  1  0  0.090269  0  0.972507  0  0  0.096483  0  1.043328  0  0  0.099413  0  1.040657  0  0  0.088299  0.094159  0  1.045598  0
H  H12  1  0.94600487  0.94508651  0.22521918  1  0  0.104532  0  0.969201  0  0  0.108666  0  1.038546  0  0  0.111663  0  1.037969  0  0  0.094324  0.1066  0  1.038929  0
H  H13  1  0.11689966  0.55427453  0.27506666  1  0  0.10435  0  0.969388  0  0  0.108301  0  1.03918  0  0  0.111224  0  1.038757  0  0  0.094057  0.106196  0  1.039598  0
H  H14  1  0.05400889  0.05490024  0.77478933  1  0  0.104514  0  0.969085  0  0  0.108587  0  1.038539  0  0  0.111584  0  1.037963  0  0  0.094292  0.10652  0  1.038921  0
H  H15  1  0.88309409  0.44573181  0.72492987  1  0  0.104293  0  0.969413  0  0  0.108233  0  1.039212  0  0  0.111152  0  1.03879  0  0  0.094039  0.106128  0  1.039629  0
H  H16  1  0.88302059  0.91829215  0.37497744  1  0  0.070602  0  0.994597  0  0  0.070809  0  1.0785  0  0  0.074457  0  1.073558  0  0  0.088741  0.068161  0  1.08191  0
H  H17  1  0.17555082  0.58213216  0.12540864  1  0  0.072144  0  0.994184  0  0  0.072044  0  1.078275  0  0  0.075696  0  1.073428  0  0  0.089107  0.06912  0  1.082262  0
H  H18  1  0.11698217  0.08170354  0.62503006  1  0  0.070686  0  0.994487  0  0  0.070818  0  1.078466  0  0  0.074477  0  1.073517  0  0  0.088746  0.068169  0  1.081879  0
H  H19  1  0.82443889  0.41787218  0.87458786  1  0  0.072167  0  0.994153  0  0  0.072094  0  1.078215  0  0  0.075748  0  1.073366  0  0  0.089107  0.06917  0  1.082203  0
Pd  Pd20  1  0.49999888  0.00000221  0.49999936  1  0  0.283588  0  2.614166  0  0  0.229759  0  3.160001  0  0  0.26323  0  3.125354  0  0  0.589196  0.210079  0  3.186598  0
Pd  Pd21  1  0.99999777  0.50000140  0.99999787  1  0  0.283621  0  2.59975  0  0  0.230696  0  3.142356  0  0  0.264992  0  3.108243  0  0  0.588997  0.210234  0  3.175854  0
C  C22  1  0.35031869  0.10672927  0.33483115  1  0  0.105079  0  3.67884  0  0  0.071883  0  3.930211  0  0  0.080035  0  3.945921  0  0  0.027896  0.066575  0  3.919345  0
C  C23  1  0.79130930  0.39387043  0.16511191  1  0  0.103049  0  3.678186  0  0  0.069769  0  3.929245  0  0  0.078015  0  3.944827  0  0  0.026921  0.064463  0  3.918798  0
C  C24  1  0.64969052  0.89326913  0.66516657  1  0  0.105322  0  3.67885  0  0  0.072105  0  3.930245  0  0  0.080252  0  3.945971  0  0  0.027948  0.066797  0  3.919378  0
C  C25  1  0.20868682  0.60613687  0.83488343  1  0  0.103056  0  3.678019  0  0  0.069762  0  3.9291  0  0  0.078009  0  3.944682  0  0  0.026904  0.064434  0  3.918646  0
C  C26  1  0.37179310  0.12592667  0.25112711  1  0  -0.113434  0  3.725937  0  0  -0.121155  0  3.970054  0  0  -0.128856  0  3.991798  0  0  -0.086203  -0.116199  0  3.955368  0
C  C27  1  0.74914402  0.37412078  0.24886203  1  0  -0.111648  0  3.722628  0  0  -0.118898  0  3.966177  0  0  -0.126566  0  3.987806  0  0  -0.086181  -0.114179  0  3.951791  0
C  C28  1  0.62822729  0.87406769  0.74886863  1  0  -0.113563  0  3.725889  0  0  -0.121292  0  3.969966  0  0  -0.128999  0  3.991719  0  0  -0.086299  -0.116336  0  3.955279  0
C  C29  1  0.25083747  0.62588567  0.75113807  1  0  -0.111604  0  3.722513  0  0  -0.118864  0  3.966028  0  0  -0.126533  0  3.987655  0  0  -0.086183  -0.114144  0  3.951644  0
C  C30  1  0.58662378  0.06772898  0.21012677  1  0  8e-05  0  3.718099  0  0  -0.019755  0  3.963251  0  0  -0.015193  0  3.981226  0  0  -0.071254  -0.022563  0  3.951086  0
C  C31  1  0.86527130  0.43180128  0.29006925  1  0  -0.001758  0  3.716193  0  0  -0.02157  0  3.961702  0  0  -0.016929  0  3.979552  0  0  -0.071539  -0.024303  0  3.949814  0
C  C32  1  0.41339636  0.93226259  0.78987606  1  0  -2.3e-05  0  3.718124  0  0  -0.019859  0  3.963274  0  0  -0.015315  0  3.981246  0  0  -0.071194  -0.022668  0  3.951109  0
C  C33  1  0.13471958  0.56820304  0.70992609  1  0  -0.002082  0  3.716116  0  0  -0.021919  0  3.961692  0  0  -0.017273  0  3.97953  0  0  -0.071616  -0.024655  0  3.949807  0
C  C34  1  0.77488288  0.99293509  0.25440744  1  0  -0.102988  0  3.715006  0  0  -0.109522  0  3.956556  0  0  -0.118206  0  3.979445  0  0  -0.082518  -0.103993  0  3.941327  0
C  C35  1  0.02232286  0.50681302  0.24578484  1  0  -0.102101  0  3.71405  0  0  -0.108794  0  3.956124  0  0  -0.117415  0  3.978901  0  0  -0.082941  -0.103343  0  3.940601  0
C  C36  1  0.22513464  0.00705852  0.74559686  1  0  -0.102801  0  3.715261  0  0  -0.10929  0  3.956757  0  0  -0.117973  0  3.979659  0  0  -0.082406  -0.103759  0  3.941523  0
C  C37  1  0.97766706  0.49319146  0.75421660  1  0  -0.101889  0  3.714256  0  0  -0.108553  0  3.956307  0  0  -0.117171  0  3.979083  0  0  -0.082899  -0.103107  0  3.940795  0
C  C38  1  0.74173476  0.97724043  0.33795247  1  0  0.107831  0  3.686805  0  0  0.073225  0  3.939151  0  0  0.081367  0  3.955839  0  0  0.025322  0.067976  0  3.927675  0
C  C39  1  0.05623190  0.52310226  0.16218779  1  0  0.106842  0  3.685151  0  0  0.072741  0  3.936714  0  0  0.080865  0  3.953316  0  0  0.026145  0.067783  0  3.925294  0
C  C40  1  0.25827158  0.02275722  0.66205380  1  0  0.107697  0  3.687128  0  0  0.07313  0  3.93952  0  0  0.081271  0  3.956179  0  0  0.025261  0.06788  0  3.928041  0
C  C41  1  0.94375470  0.47690306  0.83780779  1  0  0.106712  0  3.685229  0  0  0.072575  0  3.936816  0  0  0.080701  0  3.953418  0  0  0.026054  0.067596  0  3.925385  0
I  I42  1  0.25892929  0.81995687  0.51423290  1  0  -0.149546  0  1.552018  0  0  -0.141012  0  1.994426  0  0  -0.167554  0  1.971272  0  0  -0.100409  -0.125756  0  2.011122  0
I  I43  1  0.59245972  0.68043549  0.98517493  1  0  -0.152116  0  1.545103  0  0  -0.143289  0  1.985648  0  0  -0.169465  0  1.962915  0  0  -0.098662  -0.124665  0  2.007044  0
I  I44  1  0.74107234  0.18004856  0.48576668  1  0  -0.149553  0  1.551979  0  0  -0.141039  0  1.994405  0  0  -0.16758  0  1.971254  0  0  -0.100407  -0.125783  0  2.011102  0
I  I45  1  0.40753057  0.31956595  0.01482439  1  0  -0.152118  0  1.545183  0  0  -0.143281  0  1.985724  0  0  -0.169456  0  1.962988  0  0  -0.09866  -0.12468  0  2.007156  0
I  I46  1  0.35957122  0.75399263  0.33095270  1  0  -0.095487  0  1.498041  0  0  -0.080889  0  1.875142  0  0  -0.078426  0  1.862342  0  0  -0.033928  -0.082497  0  1.883639  0
I  I47  1  0.44386489  0.74541161  0.16867273  1  0  -0.095316  0  1.500598  0  0  -0.0804  0  1.877725  0  0  -0.077684  0  1.864791  0  0  -0.033002  -0.080814  0  1.886159  0
I  I48  1  0.64042047  0.24600892  0.66905040  1  0  -0.095482  0  1.497977  0  0  -0.080893  0  1.875096  0  0  -0.078434  0  1.862298  0  0  -0.03393  -0.082499  0  1.883591  0
I  I49  1  0.55610058  0.25459097  0.83133175  1  0  -0.095306  0  1.5006  0  0  -0.080389  0  1.877727  0  0  -0.077672  0  1.864791  0  0  -0.033016  -0.080797  0  1.886162  0
I  I50  1  0.78775937  0.59653997  0.50850614  1  0  -0.11315  0  1.396553  0  0  -0.108833  0  1.78265  0  0  -0.102794  0  1.763117  0  0  -0.069166  -0.110007  0  1.796699  0
I  I51  1  0.89115948  0.90400770  0.99126257  1  0  -0.108661  0  1.386745  0  0  -0.105545  0  1.770361  0  0  -0.100797  0  1.751443  0  0  -0.071009  -0.112172  0  1.788692  0
I  I52  1  0.21223816  0.40345851  0.49149456  1  0  -0.113157  0  1.396565  0  0  -0.108823  0  1.782653  0  0  -0.102783  0  1.763119  0  0  -0.069165  -0.109997  0  1.796703  0
I  I53  1  0.10883555  0.09599276  0.00873776  1  0  -0.108625  0  1.386748  0  0  -0.105512  0  1.770377  0  0  -0.100764  0  1.751458  0  0  -0.070979  -0.112134  0  1.788712  0
N  N54  1  0.53295218  0.03307529  0.37727496  1  0  -0.227315  0  3.484542  0  0  -0.148295  0  3.751321  0  0  -0.166879  0  3.771007  0  0  -0.371239  -0.136531  0  3.738273  0
N  N55  1  0.94244127  0.46753057  0.12269955  1  0  -0.226694  0  3.482545  0  0  -0.147865  0  3.749114  0  0  -0.166311  0  3.768613  0  0  -0.370985  -0.135805  0  3.736065  0
N  N56  1  0.46705401  0.96692717  0.62272523  1  0  -0.22745  0  3.484437  0  0  -0.14842  0  3.751234  0  0  -0.167005  0  3.77092  0  0  -0.371254  -0.136654  0  3.738187  0
N  N57  1  0.05754835  0.53247486  0.87729991  1  0  -0.226743  0  3.48211  0  0  -0.147891  0  3.748675  0  0  -0.166343  0  3.768175  0  0  -0.370939  -0.135772  0  3.735564  0
