# generated using pymatgen
data_ZnH16C24N5O8
_symmetry_space_group_name_H-M   'P 1'
_cell_length_a   12.06602510
_cell_length_b   13.29438002
_cell_length_c   19.02540793
_cell_angle_alpha   89.02593159
_cell_angle_beta   88.67100851
_cell_angle_gamma   88.77090883
_symmetry_Int_Tables_number   1
_chemical_formula_structural   ZnH16C24N5O8
_chemical_formula_sum   'Zn2 H32 C48 N10 O16'
_cell_volume   3049.93310719
_cell_formula_units_Z   2
loop_
 _symmetry_equiv_pos_site_id
 _symmetry_equiv_pos_as_xyz
  1  'x, y, z'
loop_
 _atom_site_type_symbol
 _atom_site_label
 _atom_site_symmetry_multiplicity
 _atom_site_fract_x
 _atom_site_fract_y
 _atom_site_fract_z
 _atom_site_occupancy
 _atom_site_pbe_bader_charge
 _atom_site_pbe_bader_spin_density
 _atom_site_pbe_cm5_charge
 _atom_site_pbe_ddec_charge
 _atom_site_pbe_ddec_spin_density
 _atom_site_pbe_ddec_sum_bond_order
 _atom_site_pbe_magmom
Zn  Zn0  1  0.61806751  0.49616223  0.49870238  1  1.296931  0  0.674601  0.847782  0  2.359607  0
Zn  Zn1  1  0.38169013  0.49512441  0.49804245  1  1.297458  0  0.675117  0.849695  0  2.370319  0
H  H2  1  0.67520798  0.49662111  0.26239321  1  0.089141  0  0.102454  0.105834  0  1.006757  0
H  H3  1  0.34899487  0.44017613  0.73869316  1  0.11093  0  0.103969  0.11528  0  1.018131  0
H  H4  1  0.00898701  0.36565263  0.61131921  1  0.145112  0  0.133333  0.15212  0  0.974468  0
H  H5  1  0.98776652  0.62937918  0.38099569  1  0.112449  0  0.128946  0.1437  0  0.989203  0
H  H6  1  0.65959805  0.54055242  0.13450314  1  0.084095  0  0.107335  0.108426  0  0.998017  0
H  H7  1  0.35441782  0.48232994  0.86591336  1  0.104051  0  0.108627  0.109348  0  1.001986  0
H  H8  1  0.32943720  0.56706375  0.29350254  1  0.100487  0  0.105495  0.124027  0  1.028597  0
H  H9  1  0.62314168  0.63631946  0.69746665  1  0.073067  0  0.106535  0.118546  0  1.011136  0
H  H10  1  0.17236429  0.58509816  0.23533781  1  0.036675  0  0.08767  0.076999  0  1.015064  0
H  H11  1  0.20342842  0.49838888  0.16583822  1  0.052732  0  0.1006  0.097845  0  0.985189  0
H  H12  1  0.13115338  0.61488559  0.14729592  1  0.07905  0  0.114466  0.123386  0  0.963223  0
H  H13  1  0.53838096  0.82406524  0.83207091  1  0.069764  0  0.099279  0.097266  0  0.98168  0
H  H14  1  0.61124509  0.80866096  0.74945501  1  0.044097  0  0.091374  0.083856  0  1.002495  0
H  H15  1  0.68519398  0.84312222  0.82606776  1  0.070858  0  0.111644  0.11947  0  0.965658  0
H  H16  1  0.27931735  0.22582859  0.44779948  1  0.080833  0  0.09572  0.1033  0  1.005865  0
H  H17  1  0.18324461  0.19756115  0.51913931  1  0.054632  0  0.103399  0.110569  0  0.990507  0
H  H18  1  0.24118748  0.09744068  0.46749965  1  0.051923  0  0.093302  0.0883  0  0.998916  0
H  H19  1  0.72407601  0.75470061  0.55659590  1  0.071503  0  0.091278  0.094509  0  1.019424  0
H  H20  1  0.76928184  0.88263520  0.54277581  1  0.050209  0  0.096095  0.093753  0  0.992525  0
H  H21  1  0.82461942  0.78473624  0.48814753  1  0.058652  0  0.099899  0.106012  0  0.996644  0
H  H22  1  0.64674142  0.18783524  0.31056895  1  0.041325  0  0.099959  0.097621  0  0.981623  0
H  H23  1  0.72909229  0.29295553  0.33323160  1  0.08425  0  0.109676  0.119531  0  0.965781  0
H  H24  1  0.58579763  0.29176752  0.35871420  1  0.052668  0  0.09648  0.099598  0  1.016645  0
H  H25  1  0.18276159  0.84720449  0.54154708  1  0.052388  0  0.099552  0.093075  0  1.005852  0
H  H26  1  0.17197741  0.83643091  0.63521073  1  0.07063  0  0.106862  0.119162  0  0.988528  0
H  H27  1  0.17346242  0.72473900  0.58292310  1  0.041526  0  0.098111  0.10029  0  0.986454  0
H  H28  1  0.78525942  0.53804152  0.65512659  1  0.097997  0  0.106868  0.111604  0  0.99604  0
H  H29  1  0.74840352  0.41545577  0.68526373  1  0.135315  0  0.126764  0.149394  0  0.947679  0
H  H30  1  0.89293051  0.44673060  0.67640930  1  0.050747  0  0.100921  0.095865  0  1.006793  0
H  H31  1  0.25710333  0.73191297  0.42445691  1  0.129651  0  0.116355  0.138986  0  0.983803  0
H  H32  1  0.11056414  0.72491568  0.44311718  1  0.072347  0  0.104926  0.09941  0  1.011854  0
H  H33  1  0.16239175  0.71225513  0.35411946  1  0.079066  0  0.116071  0.122931  0  0.966631  0
C  C34  1  0.48981457  0.69351412  0.50756051  1  1.630075  0  0.219625  0.63014  0  4.148035  0
C  C35  1  0.51312139  0.30007182  0.49103736  1  1.588246  0  0.219609  0.624195  0  4.158088  0
C  C36  1  0.52209323  0.18718724  0.48284172  1  0.006501  0  -0.019398  -0.222792  0  3.904017  0
C  C37  1  0.48602051  0.80551122  0.51977523  1  0.033636  0  -0.023495  -0.228198  0  3.911368  0
C  C38  1  0.38016975  0.95635991  0.55700223  1  0.044588  0  -0.017233  -0.117176  0  4.084569  0
C  C39  1  0.63360863  0.03659063  0.45167537  1  0.082535  0  -0.006715  -0.088665  0  4.048291  0
C  C40  1  0.39255420  0.85124894  0.55494345  1  0.621432  0  0.104079  0.219822  0  4.0428  0
C  C41  1  0.61697205  0.14123861  0.44971248  1  0.57153  0  0.10635  0.230555  0  4.010106  0
C  C42  1  0.56982746  0.86696624  0.49292735  1  0.510931  0  0.106907  0.233157  0  3.982496  0
C  C43  1  0.44144399  0.12474795  0.51277223  1  0.602675  0  0.104873  0.22577  0  3.981167  0
C  C44  1  0.55551561  0.97378553  0.48826867  1  0.043197  0  -0.005743  -0.041214  0  4.009964  0
C  C45  1  0.45794619  0.01842727  0.51896104  1  0.046189  0  -0.004177  -0.032924  0  4.006947  0
C  C46  1  0.04372468  0.41613514  0.57147122  1  0.033176  0  -0.061883  -0.190132  0  3.916561  0
C  C47  1  0.95467462  0.58474469  0.42468523  1  -0.036872  0  -0.0637  -0.191312  0  3.921929  0
C  C48  1  0.15764881  0.42111531  0.56202368  1  0.537513  0  0.146802  0.230365  0  4.043434  0
C  C49  1  0.84078773  0.57438754  0.43169363  1  0.611679  0  0.146056  0.230141  0  4.035025  0
C  C50  1  0.14325418  0.53732307  0.46912799  1  1.201578  0  0.251065  0.37911  0  4.00824  0
C  C51  1  0.85653229  0.47350863  0.53241668  1  1.174616  0  0.252693  0.388661  0  3.99573  0
C  C52  1  0.02417478  0.53541471  0.47331601  1  0.036154  0  0.00659  -0.020358  0  4.017441  0
C  C53  1  0.97529117  0.47498459  0.52740241  1  0.073163  0  0.009756  -0.010736  0  4.006634  0
C  C54  1  0.50474666  0.50587730  0.36229962  1  1.550423  0  0.218731  0.594447  0  4.156125  0
C  C55  1  0.49022823  0.50979243  0.63410494  1  1.576803  0  0.22154  0.601954  0  4.151145  0
C  C56  1  0.59618014  0.52100927  0.24078301  1  0.013639  0  -0.090444  -0.105657  0  3.995133  0
C  C57  1  0.40908532  0.49286343  0.75747890  1  0.044307  0  -0.088805  -0.10867  0  3.972937  0
C  C58  1  0.58744454  0.54614854  0.16987754  1  -0.056965  0  -0.07863  -0.088775  0  3.976284  0
C  C59  1  0.41260737  0.51604130  0.82821365  1  -0.065883  0  -0.080127  -0.089454  0  3.980997  0
C  C60  1  0.48587625  0.57860609  0.14132159  1  0.071643  0  -0.008113  -0.078935  0  3.961627  0
C  C61  1  0.49032179  0.58348757  0.85373139  1  -0.01192  0  -0.009655  -0.083213  0  3.9689  0
C  C62  1  0.39176212  0.58760376  0.18684547  1  0.420279  0  0.093428  0.234602  0  4.033924  0
C  C63  1  0.56557310  0.62845911  0.80513287  1  0.5066  0  0.090395  0.23371  0  4.029843  0
C  C64  1  0.40055824  0.56051425  0.25754501  1  0.003447  0  -0.099318  -0.21915  0  3.962753  0
C  C65  1  0.56374630  0.60265633  0.73442844  1  -0.032377  0  -0.096506  -0.224927  0  3.981702  0
C  C66  1  0.50184697  0.52771962  0.28490938  1  0.022741  0  -0.013076  -0.001288  0  3.978362  0
C  C67  1  0.48666593  0.53511475  0.71037016  1  -0.039687  0  -0.009232  0.008276  0  3.979332  0
C  C68  1  0.48679715  0.60246187  0.92946062  1  0.964445  0  0.239262  0.261089  0  3.991344  0
C  C69  1  0.48125085  0.59922358  0.06540675  1  0.954559  0  0.24012  0.266405  0  3.983466  0
C  C70  1  0.19548921  0.57852543  0.17914732  1  0.385463  0  -0.132159  -0.162951  0  3.939269  0
C  C71  1  0.61705564  0.79869639  0.80693536  1  0.363638  0  -0.132623  -0.160562  0  3.927758  0
C  C72  1  0.25721592  0.17156279  0.48976258  1  0.375416  0  -0.137977  -0.168723  0  3.895186  0
C  C73  1  0.75066450  0.81135969  0.51729180  1  0.366627  0  -0.138836  -0.165752  0  3.89895  0
C  C74  1  0.66087600  0.24484098  0.35054209  1  0.385765  0  -0.132394  -0.158121  0  3.88269  0
C  C75  1  0.20582181  0.80089804  0.58755811  1  0.415966  0  -0.132825  -0.162668  0  3.888932  0
C  C76  1  0.29728509  0.99702075  0.60364602  1  0.849186  0  0.167238  0.25104  0  4.092852  0
C  C77  1  0.72965599  0.99947079  0.41430730  1  0.848774  0  0.167151  0.25584  0  4.086408  0
C  C78  1  0.80983621  0.45819395  0.65496541  1  0.302866  0  -0.12192  -0.159288  0  3.823447  0
C  C79  1  0.17954744  0.69725168  0.40969473  1  0.336303  0  -0.11984  -0.16522  0  3.807018  0
C  C80  1  0.77457531  0.62740038  0.38110884  1  0.893451  0  0.188936  0.202321  0  3.957942  0
C  C81  1  0.22426807  0.36261309  0.60948755  1  0.90367  0  0.192759  0.204538  0  3.953696  0
N  N82  1  0.38500640  0.58635093  0.03173581  1  -0.491796  0  -0.151347  -0.134668  0  3.23139  0
N  N83  1  0.57780184  0.63202202  0.96295335  1  -0.566939  0  -0.153882  -0.133284  0  3.210481  0
N  N84  1  0.38652468  0.59228568  0.96275003  1  -0.586835  0  -0.162255  -0.163519  0  3.220118  0
N  N85  1  0.57371960  0.63444988  0.03230999  1  -0.530642  0  -0.163235  -0.165666  0  3.196129  0
N  N86  1  0.79237938  0.51973517  0.48566009  1  -1.206404  0  -0.288224  -0.304232  0  3.372755  0
N  N87  1  0.20655138  0.48156128  0.51153581  1  -1.205486  0  -0.292812  -0.3101  0  3.384964  0
N  N88  1  0.22896524  0.01956228  0.64549425  1  -1.135311  0  -0.330389  -0.386428  0  2.689223  0
N  N89  1  0.81101020  0.97762924  0.38303457  1  -1.127207  0  -0.341049  -0.394953  0  2.678341  0
N  N90  1  0.73538226  0.67770905  0.33692620  1  -1.047154  0  -0.258598  -0.266484  0  2.666026  0
N  N91  1  0.26579768  0.31315202  0.65321229  1  -1.053134  0  -0.255462  -0.265723  0  2.678054  0
O  O92  1  0.58395607  0.64892936  0.50837896  1  -1.159952  0  -0.30933  -0.549395  0  2.375628  0
O  O93  1  0.41762059  0.34185485  0.48926578  1  -1.156738  0  -0.308609  -0.548978  0  2.360546  0
O  O94  1  0.39805009  0.65322285  0.49486805  1  -1.151545  0  -0.308661  -0.546273  0  2.329244  0
O  O95  1  0.60411937  0.34340127  0.50116086  1  -1.133659  0  -0.31162  -0.530504  0  2.332658  0
O  O96  1  0.59852092  0.49470664  0.39142367  1  -1.169297  0  -0.314001  -0.560752  0  2.364095  0
O  O97  1  0.39788528  0.50280429  0.60358685  1  -1.159197  0  -0.312576  -0.547311  0  2.361359  0
O  O98  1  0.41070647  0.50160330  0.39364678  1  -1.160319  0  -0.317572  -0.543821  0  2.40743  0
O  O99  1  0.58585190  0.49939836  0.60553651  1  -1.157874  0  -0.309427  -0.546642  0  2.380629  0
O  O100  1  0.29591225  0.62910052  0.16119381  1  -1.067291  0  -0.199354  -0.186284  0  2.58954  0
O  O101  1  0.64212462  0.69604149  0.82637791  1  -1.066093  0  -0.210798  -0.206306  0  2.561707  0
O  O102  1  0.34451767  0.16360542  0.54003364  1  -1.075806  0  -0.185743  -0.159841  0  2.597116  0
O  O103  1  0.66624543  0.82700701  0.46578352  1  -1.063072  0  -0.186528  -0.163704  0  2.585774  0
O  O104  1  0.69565293  0.19605029  0.41480721  1  -1.075422  0  -0.196553  -0.176769  0  2.558671  0
O  O105  1  0.32429921  0.78799272  0.59082236  1  -1.09323  0  -0.182271  -0.148476  0  2.582798  0
O  O106  1  0.80495040  0.42062334  0.58354567  1  -1.064256  0  -0.17037  -0.175944  0  2.536441  0
O  O107  1  0.19748563  0.58940720  0.41915113  1  -1.099619  0  -0.162162  -0.160707  0  2.592265  0
