# generated using pymatgen
data_PrH8C6O7
_symmetry_space_group_name_H-M   'P 1'
_cell_length_a   7.91961787
_cell_length_b   10.83067715
_cell_length_c   12.96462886
_cell_angle_alpha   71.44715243
_cell_angle_beta   72.21592482
_cell_angle_gamma   68.55840540
_symmetry_Int_Tables_number   1
_chemical_formula_structural   PrH8C6O7
_chemical_formula_sum   'Pr4 H32 C24 O28'
_cell_volume   958.48157622
_cell_formula_units_Z   4
loop_
 _symmetry_equiv_pos_site_id
 _symmetry_equiv_pos_as_xyz
  1  'x, y, z'
loop_
 _atom_site_type_symbol
 _atom_site_label
 _atom_site_symmetry_multiplicity
 _atom_site_fract_x
 _atom_site_fract_y
 _atom_site_fract_z
 _atom_site_occupancy
 _atom_site_hle17_bader_spin_density
 _atom_site_hle17_ddec_charge
 _atom_site_hle17_ddec_spin_density
 _atom_site_hle17_ddec_sum_bond_order
 _atom_site_hle17_magmom
 _atom_site_hse06_10hf_bader_spin_density
 _atom_site_hse06_10hf_ddec_charge
 _atom_site_hse06_10hf_ddec_spin_density
 _atom_site_hse06_10hf_ddec_sum_bond_order
 _atom_site_hse06_10hf_magmom
 _atom_site_hse06_bader_spin_density
 _atom_site_hse06_ddec_charge
 _atom_site_hse06_ddec_spin_density
 _atom_site_hse06_ddec_sum_bond_order
 _atom_site_hse06_magmom
 _atom_site_pbe_bader_spin_density
 _atom_site_pbe_cm5_charge
 _atom_site_pbe_ddec_charge
 _atom_site_pbe_ddec_spin_density
 _atom_site_pbe_ddec_sum_bond_order
 _atom_site_pbe_magmom
Pr  Pr0  1  0.01659954  0.31009888  0.22923762  1  0  2.321158  0  1.639495  0  0  2.158261  0  2.099417  0  0  2.245959  0  1.968348  0  0  1.515846  2.126647  0  2.133554  0
Pr  Pr1  1  0.55589535  0.18986993  0.27076248  1  0  2.32099  0  1.64136  0  0  2.158611  0  2.100623  0  0  2.245809  0  1.970389  0  0  1.515578  2.126837  0  2.135064  0
Pr  Pr2  1  0.98339976  0.68990132  0.77076230  1  0  2.321149  0  1.639531  0  0  2.158227  0  2.099505  0  0  2.245954  0  1.968385  0  0  1.515838  2.126622  0  2.133624  0
Pr  Pr3  1  0.44410503  0.81013027  0.72923769  1  0  2.320993  0  1.641341  0  0  2.158621  0  2.100581  0  0  2.245804  0  1.970371  0  0  1.515549  2.126845  0  2.135022  0
H  H4  1  0.82045427  0.58643496  0.08695535  1  0  0.447646  0  0.845882  0  0  0.417444  0  0.907308  0  0  0.428679  0  0.890923  0  0  0.303033  0.409511  0  0.918981  0
H  H5  1  0.49376138  0.91359733  0.41298726  1  0  0.448787  0  0.844186  0  0  0.417933  0  0.906723  0  0  0.429217  0  0.890268  0  0  0.30308  0.409999  0  0.918373  0
H  H6  1  0.17954688  0.41356524  0.91304404  1  0  0.44765  0  0.845875  0  0  0.417449  0  0.907299  0  0  0.428684  0  0.890915  0  0  0.303045  0.409515  0  0.918973  0
H  H7  1  0.50623791  0.08640287  0.58701266  1  0  0.448794  0  0.84418  0  0  0.417949  0  0.906703  0  0  0.42923  0  0.890253  0  0  0.303077  0.410014  0  0.918354  0
H  H8  1  0.66271571  0.50617713  0.14273532  1  0  0.432762  0  0.860471  0  0  0.403289  0  0.921478  0  0  0.414204  0  0.905637  0  0  0.299395  0.395573  0  0.932735  0
H  H9  1  0.31149847  0.99383517  0.35726643  1  0  0.433194  0  0.860081  0  0  0.404286  0  0.920107  0  0  0.415149  0  0.904329  0  0  0.300014  0.396595  0  0.931357  0
H  H10  1  0.33728359  0.49382307  0.85726459  1  0  0.432763  0  0.860471  0  0  0.403291  0  0.921476  0  0  0.414206  0  0.905635  0  0  0.299393  0.395575  0  0.932734  0
H  H11  1  0.68850191  0.00616503  0.64273374  1  0  0.433203  0  0.860069  0  0  0.404292  0  0.920103  0  0  0.415153  0  0.904328  0  0  0.30001  0.3966  0  0.931353  0
H  H12  1  0.09106564  0.82554753  0.48831798  1  0  0.109375  0  0.942345  0  0  0.122197  0  1.00623  0  0  0.12446  0  1.006163  0  0  0.112238  0.120282  0  1.006848  0
H  H13  1  0.40503032  0.67441806  0.01165634  1  0  0.109802  0  0.941684  0  0  0.122409  0  1.005788  0  0  0.124761  0  1.005644  0  0  0.112836  0.1205  0  1.006383  0
H  H14  1  0.90893407  0.17445165  0.51168212  1  0  0.109376  0  0.942331  0  0  0.12224  0  1.006214  0  0  0.124505  0  1.006144  0  0  0.112251  0.120324  0  1.006834  0
H  H15  1  0.59496929  0.32558213  0.98834460  1  0  0.109787  0  0.941679  0  0  0.122402  0  1.005786  0  0  0.124754  0  1.005648  0  0  0.112836  0.120492  0  1.006382  0
H  H16  1  0.18602633  0.78938458  0.35624373  1  0  0.103813  0  0.912687  0  0  0.12378  0  0.962866  0  0  0.125789  0  0.962101  0  0  0.106686  0.122311  0  0.963384  0
H  H17  1  0.33181919  0.71053970  0.14375350  1  0  0.104174  0  0.914256  0  0  0.124316  0  0.963848  0  0  0.1263  0  0.963173  0  0  0.106599  0.122886  0  0.964295  0
H  H18  1  0.81397307  0.21061460  0.64375536  1  0  0.103788  0  0.912657  0  0  0.123799  0  0.962831  0  0  0.125806  0  0.962066  0  0  0.106681  0.12233  0  0.963347  0
H  H19  1  0.66817934  0.28946050  0.85624719  1  0  0.104171  0  0.914247  0  0  0.124322  0  0.963838  0  0  0.12631  0  0.963163  0  0  0.106598  0.122893  0  0.964282  0
H  H20  1  0.87347139  0.75679027  0.36345743  1  0  0.117031  0  0.913624  0  0  0.132787  0  0.966081  0  0  0.135542  0  0.964309  0  0  0.111728  0.130866  0  0.967239  0
H  H21  1  0.99385863  0.74312133  0.13653333  1  0  0.115312  0  0.913951  0  0  0.131205  0  0.966515  0  0  0.133878  0  0.964777  0  0  0.110654  0.129325  0  0.967627  0
H  H22  1  0.12652683  0.24320994  0.63654224  1  0  0.117045  0  0.913642  0  0  0.132804  0  0.966089  0  0  0.135561  0  0.964314  0  0  0.111732  0.130882  0  0.967247  0
H  H23  1  0.00614031  0.25687784  0.86346755  1  0  0.115284  0  0.914018  0  0  0.131186  0  0.966572  0  0  0.133858  0  0.964835  0  0  0.110647  0.129306  0  0.967684  0
H  H24  1  0.00740297  0.63316029  0.46021992  1  0  0.122041  0  0.914268  0  0  0.13768  0  0.970096  0  0  0.140256  0  0.968555  0  0  0.112776  0.135912  0  0.971064  0
H  H25  1  0.10093271  0.86677895  0.03983303  1  0  0.121539  0  0.914661  0  0  0.137011  0  0.970805  0  0  0.139604  0  0.969177  0  0  0.112249  0.135174  0  0.971847  0
H  H26  1  0.99259751  0.36683889  0.53977942  1  0  0.122047  0  0.914271  0  0  0.137683  0  0.970104  0  0  0.14026  0  0.968563  0  0  0.112779  0.135915  0  0.971073  0
H  H27  1  0.89906700  0.13322023  0.96016707  1  0  0.1215  0  0.914675  0  0  0.136978  0  0.970822  0  0  0.139571  0  0.969193  0  0  0.112238  0.13514  0  0.971864  0
H  H28  1  0.31439848  0.99519625  0.08405382  1  0  0.109665  0  0.902255  0  0  0.128352  0  0.953855  0  0  0.130337  0  0.953344  0  0  0.112935  0.126914  0  0.954248  0
H  H29  1  0.39359537  0.50490828  0.41591610  1  0  0.109833  0  0.90317  0  0  0.128836  0  0.954416  0  0  0.130845  0  0.953838  0  0  0.112931  0.12734  0  0.954947  0
H  H30  1  0.68560123  0.00480293  0.91594628  1  0  0.109664  0  0.902259  0  0  0.128354  0  0.953864  0  0  0.130337  0  0.953353  0  0  0.112937  0.126916  0  0.954257  0
H  H31  1  0.60640423  0.49509192  0.58408484  1  0  0.109864  0  0.903182  0  0  0.128868  0  0.954417  0  0  0.130876  0  0.95384  0  0  0.112933  0.127361  0  0.954947  0
H  H32  1  0.34270915  0.13426679  0.97420387  1  0  0.123187  0  0.923905  0  0  0.138497  0  0.978034  0  0  0.141345  0  0.976631  0  0  0.111572  0.136494  0  0.97895  0
H  H33  1  0.45120057  0.36574424  0.52570348  1  0  0.124225  0  0.923837  0  0  0.139678  0  0.977965  0  0  0.142473  0  0.976622  0  0  0.112026  0.137784  0  0.978727  0
H  H34  1  0.65729015  0.86573341  0.02579605  1  0  0.123183  0  0.923918  0  0  0.1385  0  0.978043  0  0  0.141345  0  0.97664  0  0  0.111571  0.136497  0  0.97896  0
H  H35  1  0.54879980  0.63425596  0.47429669  1  0  0.124241  0  0.9238  0  0  0.13969  0  0.977926  0  0  0.142485  0  0.976584  0  0  0.112019  0.137791  0  0.978682  0
C  C36  1  0.97180346  0.97865111  0.35835049  1  0  0.7569  0  3.80794  0  0  0.715103  0  4.10458  0  0  0.748716  0  4.097739  0  0  0.242263  0.692292  0  4.11024  0
C  C37  1  0.30888471  0.52128340  0.14161800  1  0  0.754727  0  3.81081  0  0  0.713393  0  4.106299  0  0  0.746984  0  4.099523  0  0  0.239542  0.690613  0  4.111919  0
C  C38  1  0.02819625  0.02134807  0.64164961  1  0  0.756827  0  3.807984  0  0  0.715103  0  4.104573  0  0  0.748715  0  4.09773  0  0  0.24226  0.692291  0  4.110234  0
C  C39  1  0.69111381  0.47871679  0.85838269  1  0  0.754678  0  3.810872  0  0  0.713337  0  4.10639  0  0  0.746931  0  4.099619  0  0  0.239526  0.690558  0  4.112006  0
C  C40  1  0.05377839  0.82928586  0.41211512  1  0  -0.236969  0  3.645766  0  0  -0.277848  0  3.897214  0  0  -0.282685  0  3.904143  0  0  -0.152021  -0.27411  0  3.891533  0
C  C41  1  0.29532809  0.67063619  0.08787963  1  0  -0.238564  0  3.647296  0  0  -0.27917  0  3.897511  0  0  -0.284149  0  3.904508  0  0  -0.152036  -0.275434  0  3.891787  0
C  C42  1  0.94622132  0.17071332  0.58788499  1  0  -0.236874  0  3.645594  0  0  -0.277917  0  3.897197  0  0  -0.282749  0  3.90412  0  0  -0.152043  -0.274176  0  3.891514  0
C  C43  1  0.70467228  0.32936401  0.91212053  1  0  -0.238542  0  3.647279  0  0  -0.279172  0  3.897548  0  0  -0.284164  0  3.90456  0  0  -0.15204  -0.275437  0  3.891823  0
C  C44  1  0.92628969  0.74078579  0.43707168  1  0  -0.236984  0  3.644109  0  0  -0.278877  0  3.895781  0  0  -0.283272  0  3.901346  0  0  -0.154687  -0.275614  0  3.891098  0
C  C45  1  0.10430069  0.75915856  0.06294707  1  0  -0.233084  0  3.640933  0  0  -0.274872  0  3.892544  0  0  -0.279049  0  3.897966  0  0  -0.152452  -0.271629  0  3.887812  0
C  C46  1  0.07371145  0.25921441  0.56292771  1  0  -0.237016  0  3.644067  0  0  -0.278884  0  3.895786  0  0  -0.283281  0  3.901352  0  0  -0.15467  -0.27562  0  3.891099  0
C  C47  1  0.89569968  0.24084164  0.93705310  1  0  -0.233056  0  3.640978  0  0  -0.274828  0  3.892647  0  0  -0.279004  0  3.898074  0  0  -0.152464  -0.271586  0  3.887914  0
C  C48  1  0.76319921  0.76634133  0.53382463  1  0  0.754324  0  3.772085  0  0  0.710815  0  4.066594  0  0  0.744533  0  4.061113  0  0  0.230335  0.687666  0  4.072624  0
C  C49  1  0.06353586  0.73371085  0.96612817  1  0  0.756835  0  3.767203  0  0  0.712582  0  4.062755  0  0  0.746244  0  4.057285  0  0  0.231788  0.689477  0  4.068805  0
C  C50  1  0.23680235  0.23365785  0.46617495  1  0  0.75434  0  3.772086  0  0  0.710839  0  4.066588  0  0  0.744557  0  4.061107  0  0  0.230338  0.68769  0  4.072618  0
C  C51  1  0.93646267  0.26628934  0.03387251  1  0  0.756796  0  3.767155  0  0  0.712438  0  4.062884  0  0  0.746101  0  4.057415  0  0  0.231735  0.689334  0  4.068931  0
C  C52  1  0.47334902  0.10203698  0.10493717  1  0  0.735743  0  3.822934  0  0  0.692609  0  4.120322  0  0  0.725542  0  4.116085  0  0  0.213974  0.67003  0  4.125521  0
C  C53  1  0.68026825  0.39802826  0.39501060  1  0  0.733287  0  3.82685  0  0  0.690634  0  4.123487  0  0  0.723416  0  4.119485  0  0  0.212181  0.668128  0  4.128668  0
C  C54  1  0.52664950  0.89796322  0.89506351  1  0  0.735765  0  3.822914  0  0  0.692616  0  4.120333  0  0  0.725547  0  4.116095  0  0  0.213982  0.670036  0  4.125533  0
C  C55  1  0.31973135  0.60197194  0.60499033  1  0  0.733298  0  3.826836  0  0  0.690645  0  4.123463  0  0  0.723428  0  4.119464  0  0  0.212187  0.668126  0  4.128647  0
C  C56  1  0.41832526  0.04735752  0.03119668  1  0  -0.236161  0  3.686157  0  0  -0.27582  0  3.936925  0  0  -0.280787  0  3.944199  0  0  -0.156721  -0.272095  0  3.93097  0
C  C57  1  0.49683454  0.45270676  0.46875510  1  0  -0.236169  0  3.687308  0  0  -0.276607  0  3.938325  0  0  -0.281456  0  3.945592  0  0  -0.156336  -0.273055  0  3.932596  0
C  C58  1  0.58167511  0.95264268  0.96880349  1  0  -0.236153  0  3.686145  0  0  -0.275831  0  3.936929  0  0  -0.280788  0  3.944192  0  0  -0.156733  -0.272107  0  3.930977  0
C  C59  1  0.50316506  0.54729343  0.53124583  1  0  -0.236291  0  3.687304  0  0  -0.27671  0  3.938303  0  0  -0.28156  0  3.945571  0  0  -0.156335  -0.273107  0  3.932539  0
O  O60  1  0.77446732  0.51898031  0.15164642  1  0  -0.916344  0  1.838622  0  0  -0.866291  0  2.017691  0  0  -0.889417  0  1.981851  0  0  -0.64066  -0.85326  0  2.040425  0
O  O61  1  0.44497767  0.98102103  0.34829815  1  0  -0.91782  0  1.837323  0  0  -0.867802  0  2.016518  0  0  -0.890855  0  1.980741  0  0  -0.641328  -0.85479  0  2.039166  0
O  O62  1  0.22553198  0.48101989  0.84835350  1  0  -0.916348  0  1.838635  0  0  -0.866294  0  2.0177  0  0  -0.889423  0  1.981858  0  0  -0.640668  -0.853264  0  2.040434  0
O  O63  1  0.55502111  0.01898121  0.65170240  1  0  -0.917838  0  1.837297  0  0  -0.867823  0  2.016486  0  0  -0.890873  0  1.980713  0  0  -0.641308  -0.854811  0  2.039134  0
O  O64  1  0.07206180  0.05830560  0.33266895  1  0  -0.747295  0  1.992187  0  0  -0.692929  0  2.236399  0  0  -0.723584  0  2.224003  0  0  -0.364751  -0.675125  0  2.243474  0
O  O65  1  0.46308350  0.44166325  0.16734204  1  0  -0.745666  0  1.990356  0  0  -0.691435  0  2.234235  0  0  -0.722009  0  2.221843  0  0  -0.363334  -0.673608  0  2.241265  0
O  O66  1  0.92793791  0.94169358  0.66733116  1  0  -0.747259  0  1.992254  0  0  -0.692903  0  2.236434  0  0  -0.72356  0  2.224036  0  0  -0.364745  -0.675101  0  2.24351  0
O  O67  1  0.53691621  0.55833593  0.83265806  1  0  -0.745649  0  1.990371  0  0  -0.691414  0  2.234251  0  0  -0.721985  0  2.22186  0  0  -0.363339  -0.673588  0  2.241281  0
O  O68  1  0.80910415  0.01536988  0.34235149  1  0  -0.71751  0  2.01839  0  0  -0.662558  0  2.27038  0  0  -0.693215  0  2.257339  0  0  -0.399552  -0.64561  0  2.277723  0
O  O69  1  0.16691657  0.48456448  0.15758115  1  0  -0.716657  0  2.019734  0  0  -0.661993  0  2.271777  0  0  -0.692708  0  2.258727  0  0  -0.398897  -0.645172  0  2.279103  0
O  O70  1  0.19089514  0.98463032  0.65764842  1  0  -0.717494  0  2.018371  0  0  -0.66256  0  2.270331  0  0  -0.693217  0  2.257291  0  0  -0.399537  -0.645614  0  2.277674  0
O  O71  1  0.83308381  0.51543572  0.84241902  1  0  -0.716627  0  2.019723  0  0  -0.661953  0  2.271772  0  0  -0.692672  0  2.258721  0  0  -0.398874  -0.645134  0  2.279095  0
O  O72  1  0.59652409  0.81367538  0.52123201  1  0  -0.692985  0  2.024575  0  0  -0.637274  0  2.258896  0  0  -0.666004  0  2.247869  0  0  -0.341219  -0.620134  0  2.265606  0
O  O73  1  0.93154405  0.68644062  0.97866122  1  0  -0.695299  0  2.024028  0  0  -0.639434  0  2.258618  0  0  -0.668244  0  2.247658  0  0  -0.342436  -0.622387  0  2.265545  0
O  O74  1  0.40347758  0.18632278  0.47876674  1  0  -0.693004  0  2.024593  0  0  -0.637303  0  2.258908  0  0  -0.666038  0  2.247893  0  0  -0.341235  -0.620162  0  2.265618  0
O  O75  1  0.06845525  0.31355958  0.02133870  1  0  -0.695311  0  2.023984  0  0  -0.639405  0  2.258616  0  0  -0.668212  0  2.247655  0  0  -0.342442  -0.622357  0  2.265542  0
O  O76  1  0.79266008  0.73585212  0.63253029  1  0  -0.831842  0  2.097196  0  0  -0.772604  0  2.356184  0  0  -0.80779  0  2.343606  0  0  -0.43628  -0.754916  0  2.363321  0
O  O77  1  0.16123147  0.76425320  0.86744183  1  0  -0.832877  0  2.096708  0  0  -0.773596  0  2.356549  0  0  -0.808761  0  2.344038  0  0  -0.437022  -0.755878  0  2.363624  0
O  O78  1  0.20734030  0.26414808  0.36746988  1  0  -0.83185  0  2.097187  0  0  -0.772616  0  2.356181  0  0  -0.807797  0  2.343597  0  0  -0.436283  -0.754927  0  2.363316  0
O  O79  1  0.83876747  0.23574598  0.13255905  1  0  -0.832768  0  2.096614  0  0  -0.773448  0  2.356492  0  0  -0.808608  0  2.343978  0  0  -0.436952  -0.755733  0  2.363571  0
O  O80  1  0.34576764  0.19036654  0.15728236  1  0  -0.856334  0  2.121019  0  0  -0.801346  0  2.392756  0  0  -0.835958  0  2.379386  0  0  -0.468749  -0.784097  0  2.400478  0
O  O81  1  0.69330825  0.30972232  0.34265928  1  0  -0.857297  0  2.122502  0  0  -0.802601  0  2.394145  0  0  -0.837133  0  2.38085  0  0  -0.469696  -0.7854  0  2.401907  0
O  O82  1  0.65423165  0.80963366  0.84271756  1  0  -0.856357  0  2.121001  0  0  -0.801358  0  2.392739  0  0  -0.835973  0  2.379368  0  0  -0.468764  -0.784111  0  2.400462  0
O  O83  1  0.30669171  0.69027890  0.65734069  1  0  -0.857297  0  2.122485  0  0  -0.802595  0  2.394125  0  0  -0.837122  0  2.380815  0  0  -0.469707  -0.785395  0  2.401893  0
O  O84  1  0.63877420  0.06477612  0.11589092  1  0  -0.661237  0  1.925153  0  0  -0.615392  0  2.155691  0  0  -0.642522  0  2.146288  0  0  -0.357902  -0.59945  0  2.161123  0
O  O85  1  0.81945102  0.43521316  0.38408454  1  0  -0.659248  0  1.927151  0  0  -0.61325  0  2.157302  0  0  -0.640443  0  2.14798  0  0  -0.356157  -0.59739  0  2.162764  0
O  O86  1  0.36122551  0.93522306  0.88410918  1  0  -0.661261  0  1.925195  0  0  -0.6154  0  2.155737  0  0  -0.642528  0  2.146333  0  0  -0.3579  -0.599458  0  2.16117  0
O  O87  1  0.18055012  0.56478704  0.61591485  1  0  -0.659219  0  1.927147  0  0  -0.613231  0  2.157312  0  0  -0.640426  0  2.14799  0  0  -0.356141  -0.597366  0  2.162768  0
