# generated using pymatgen
data_KNdH14C4(N3O)6
_symmetry_space_group_name_H-M   'P 1'
_cell_length_a   7.34999805
_cell_length_b   9.71614102
_cell_length_c   12.74175349
_cell_angle_alpha   90.00001385
_cell_angle_beta   89.99974247
_cell_angle_gamma   97.70743578
_symmetry_Int_Tables_number   1
_chemical_formula_structural   KNdH14C4(N3O)6
_chemical_formula_sum   'K2 Nd2 H28 C8 N36 O12'
_cell_volume   901.71418135
_cell_formula_units_Z   2
loop_
 _symmetry_equiv_pos_site_id
 _symmetry_equiv_pos_as_xyz
  1  'x, y, z'
loop_
 _atom_site_type_symbol
 _atom_site_label
 _atom_site_symmetry_multiplicity
 _atom_site_fract_x
 _atom_site_fract_y
 _atom_site_fract_z
 _atom_site_occupancy
 _atom_site_hle17_bader_spin_density
 _atom_site_hle17_ddec_charge
 _atom_site_hle17_ddec_spin_density
 _atom_site_hle17_ddec_sum_bond_order
 _atom_site_hle17_magmom
 _atom_site_hse06_10hf_bader_spin_density
 _atom_site_hse06_10hf_ddec_charge
 _atom_site_hse06_10hf_ddec_spin_density
 _atom_site_hse06_10hf_ddec_sum_bond_order
 _atom_site_hse06_10hf_magmom
 _atom_site_hse06_bader_spin_density
 _atom_site_hse06_ddec_charge
 _atom_site_hse06_ddec_spin_density
 _atom_site_hse06_ddec_sum_bond_order
 _atom_site_hse06_magmom
 _atom_site_pbe_bader_spin_density
 _atom_site_pbe_cm5_charge
 _atom_site_pbe_ddec_charge
 _atom_site_pbe_ddec_spin_density
 _atom_site_pbe_ddec_sum_bond_order
 _atom_site_pbe_magmom
K  K0  1  0.44473595  0.49423139  0.75000142  1  0  0.894472  0  0.459683  0  0  0.832732  0  0.646375  0  0  0.849058  0  0.620797  0  0  0.778245  0.820254  0  0.664925  0
K  K1  1  0.55527351  0.50576537  0.25001280  1  0  0.894459  0  0.459652  0  0  0.832711  0  0.646366  0  0  0.849035  0  0.620787  0  0  0.778229  0.820232  0  0.664915  0
Nd  Nd2  1  0.81027414  0.22359148  0.75000014  1  0  2.246597  0  1.601921  0  0  2.051592  0  2.087328  0  0  2.091136  0  2.045937  0  0  1.46753  2.02203  0  2.118011  0
Nd  Nd3  1  0.18972560  0.77641070  0.24999917  1  0  2.246602  0  1.601953  0  0  2.051618  0  2.087333  0  0  2.091162  0  2.04594  0  0  1.467531  2.022059  0  2.118018  0
H  H4  1  0.86511915  0.19953824  0.14055333  1  0  0.328166  0  0.840437  0  0  0.317044  0  0.887949  0  0  0.323756  0  0.882483  0  0  0.342833  0.312192  0  0.892079  0
H  H5  1  0.13488667  0.80045659  0.64055224  1  0  0.328127  0  0.840438  0  0  0.317025  0  0.887937  0  0  0.323739  0  0.882466  0  0  0.342842  0.312175  0  0.892067  0
H  H6  1  0.13489123  0.80045641  0.85944754  1  0  0.328129  0  0.840536  0  0  0.317011  0  0.888053  0  0  0.323725  0  0.882582  0  0  0.342825  0.31216  0  0.892182  0
H  H7  1  0.86511716  0.19953925  0.35944628  1  0  0.32815  0  0.840404  0  0  0.317008  0  0.887952  0  0  0.32372  0  0.882486  0  0  0.342811  0.312153  0  0.892081  0
H  H8  1  0.87409865  0.53825664  0.81427460  1  0  0.401976  0  0.916172  0  0  0.361025  0  0.996322  0  0  0.372844  0  0.979279  0  0  0.289781  0.352685  0  1.008331  0
H  H9  1  0.12590308  0.46174442  0.31427452  1  0  0.401965  0  0.916195  0  0  0.361003  0  0.996358  0  0  0.372822  0  0.979316  0  0  0.289764  0.352664  0  1.008366  0
H  H10  1  0.12590358  0.46174445  0.18572550  1  0  0.401995  0  0.916148  0  0  0.361013  0  0.996339  0  0  0.372833  0  0.979296  0  0  0.289766  0.352675  0  1.008347  0
H  H11  1  0.87409395  0.53825783  0.68572479  1  0  0.40201  0  0.916125  0  0  0.361043  0  0.996292  0  0  0.372861  0  0.97925  0  0  0.289789  0.352704  0  1.008299  0
H  H12  1  0.42889772  0.06531797  0.81244336  1  0  0.407636  0  0.907702  0  0  0.371524  0  0.982098  0  0  0.382138  0  0.966712  0  0  0.301688  0.364024  0  0.992996  0
H  H13  1  0.57109882  0.93468424  0.31244300  1  0  0.407572  0  0.907799  0  0  0.371528  0  0.982091  0  0  0.38214  0  0.966706  0  0  0.301666  0.364027  0  0.99299  0
H  H14  1  0.57109909  0.93468324  0.18755673  1  0  0.407519  0  0.907869  0  0  0.371486  0  0.982155  0  0  0.382093  0  0.966779  0  0  0.301656  0.363988  0  0.993048  0
H  H15  1  0.42889799  0.06531696  0.68755631  1  0  0.407492  0  0.907902  0  0  0.371457  0  0.982187  0  0  0.382068  0  0.966803  0  0  0.301648  0.363953  0  0.993089  0
H  H16  1  0.13925983  0.07380523  0.81244373  1  0  0.407579  0  0.903312  0  0  0.370447  0  0.979866  0  0  0.38077  0  0.964851  0  0  0.295312  0.363119  0  0.990538  0
H  H17  1  0.86073740  0.92619384  0.31244498  1  0  0.407613  0  0.903201  0  0  0.370457  0  0.979833  0  0  0.380778  0  0.964819  0  0  0.295329  0.363127  0  0.990507  0
H  H18  1  0.86073653  0.92619390  0.18755479  1  0  0.407587  0  0.903234  0  0  0.370449  0  0.979862  0  0  0.380766  0  0.964855  0  0  0.295327  0.36312  0  0.990534  0
H  H19  1  0.13925897  0.07380529  0.68755354  1  0  0.407575  0  0.903292  0  0  0.370413  0  0.97991  0  0  0.380736  0  0.964895  0  0  0.295286  0.363081  0  0.990587  0
H  H20  1  0.66575085  0.39801606  0.94221407  1  0  0.39114  0  0.929855  0  0  0.348855  0  1.013892  0  0  0.360181  0  0.997478  0  0  0.292685  0.340862  0  1.025424  0
H  H21  1  0.33424467  0.60198609  0.44221348  1  0  0.39115  0  0.929849  0  0  0.348869  0  1.013882  0  0  0.360195  0  0.997469  0  0  0.292699  0.340876  0  1.025413  0
H  H22  1  0.33424754  0.60198616  0.05778680  1  0  0.39118  0  0.929808  0  0  0.348892  0  1.013849  0  0  0.360218  0  0.997436  0  0  0.292715  0.3409  0  1.025381  0
H  H23  1  0.66575214  0.39801512  0.55778661  1  0  0.391161  0  0.929825  0  0  0.34888  0  1.013857  0  0  0.360206  0  0.997443  0  0  0.292698  0.340886  0  1.02539  0
H  H24  1  0.52137657  0.26062580  0.93401836  1  0  0.395908  0  0.921129  0  0  0.353327  0  1.005487  0  0  0.364361  0  0.989617  0  0  0.292924  0.345512  0  1.016703  0
H  H25  1  0.47862173  0.73937629  0.43401820  1  0  0.395903  0  0.921134  0  0  0.353329  0  1.005483  0  0  0.364363  0  0.989612  0  0  0.292933  0.345514  0  1.016699  0
H  H26  1  0.47862589  0.73937632  0.06598173  1  0  0.3959  0  0.921131  0  0  0.35333  0  1.005475  0  0  0.364363  0  0.989605  0  0  0.292928  0.345516  0  1.016689  0
H  H27  1  0.52137621  0.26062385  0.56598189  1  0  0.395887  0  0.921158  0  0  0.353307  0  1.005516  0  0  0.364341  0  0.989645  0  0  0.29292  0.345492  0  1.016733  0
H  H28  1  0.51848245  0.81988128  0.80958970  1  0  0.378376  0  0.943724  0  0  0.340453  0  1.021771  0  0  0.350827  0  1.006494  0  0  0.278257  0.333164  0  1.032489  0
H  H29  1  0.48151569  0.18012194  0.30959100  1  0  0.378533  0  0.94351  0  0  0.340605  0  1.021562  0  0  0.350977  0  1.006287  0  0  0.278326  0.333317  0  1.032278  0
H  H30  1  0.48151661  0.18012405  0.19040960  1  0  0.378431  0  0.943651  0  0  0.340511  0  1.021692  0  0  0.350884  0  1.006417  0  0  0.278284  0.333222  0  1.03241  0
H  H31  1  0.51848450  0.81988232  0.69040909  1  0  0.378531  0  0.943502  0  0  0.340601  0  1.021559  0  0  0.350973  0  1.006285  0  0  0.278333  0.333313  0  1.032275  0
C  C32  1  0.00302190  0.28822619  0.01309398  1  0  0.50454  0  3.850535  0  0  0.45069  0  4.150142  0  0  0.470101  0  4.16117  0  0  0.33141  0.437765  0  4.142313  0
C  C33  1  0.99696595  0.71176912  0.51309299  1  0  0.504427  0  3.850725  0  0  0.450575  0  4.150326  0  0  0.469986  0  4.161358  0  0  0.33142  0.437654  0  4.142493  0
C  C34  1  0.99698124  0.71177280  0.98690532  1  0  0.504526  0  3.850568  0  0  0.450653  0  4.150203  0  0  0.470065  0  4.161233  0  0  0.331382  0.437732  0  4.142371  0
C  C35  1  0.00302297  0.28822705  0.48690475  1  0  0.504494  0  3.850622  0  0  0.450638  0  4.150247  0  0  0.47005  0  4.161277  0  0  0.33139  0.437709  0  4.142417  0
C  C36  1  0.78972101  0.07314332  0.01682947  1  0  0.51199  0  3.835686  0  0  0.455282  0  4.133923  0  0  0.475147  0  4.145132  0  0  0.334946  0.442138  0  4.125783  0
C  C37  1  0.21027765  0.92685175  0.51682978  1  0  0.512007  0  3.835568  0  0  0.455259  0  4.133837  0  0  0.475139  0  4.145044  0  0  0.334911  0.442107  0  4.125697  0
C  C38  1  0.21028348  0.92685564  0.98316905  1  0  0.512214  0  3.835508  0  0  0.455463  0  4.133788  0  0  0.475343  0  4.144994  0  0  0.334986  0.442318  0  4.125648  0
C  C39  1  0.78972122  0.07314003  0.48317110  1  0  0.512151  0  3.835721  0  0  0.455417  0  4.133967  0  0  0.475296  0  4.145174  0  0  0.334971  0.442259  0  4.125829  0
N  N40  1  0.03182117  0.30247825  0.90911191  1  0  -0.482454  0  3.101064  0  0  -0.435147  0  3.397203  0  0  -0.450476  0  3.409631  0  0  -0.30485  -0.424999  0  3.388681  0
N  N41  1  0.96817733  0.69752386  0.40911126  1  0  -0.482473  0  3.101067  0  0  -0.435166  0  3.397196  0  0  -0.450495  0  3.409625  0  0  -0.30487  -0.425022  0  3.388681  0
N  N42  1  0.96817813  0.69752186  0.09088818  1  0  -0.482462  0  3.100977  0  0  -0.435146  0  3.397104  0  0  -0.450478  0  3.409536  0  0  -0.304848  -0.425  0  3.388583  0
N  N43  1  0.03182106  0.30247835  0.59088805  1  0  -0.482413  0  3.101033  0  0  -0.435104  0  3.397167  0  0  -0.450435  0  3.409596  0  0  -0.30482  -0.424956  0  3.388649  0
N  N44  1  0.17326968  0.40723986  0.90035627  1  0  -0.122843  0  3.056694  0  0  -0.117921  0  3.364706  0  0  -0.117455  0  3.375004  0  0  -0.17957  -0.117583  0  3.357459  0
N  N45  1  0.82672911  0.59276330  0.40035675  1  0  -0.122736  0  3.056731  0  0  -0.117792  0  3.36473  0  0  -0.117328  0  3.37503  0  0  -0.179556  -0.117457  0  3.357483  0
N  N46  1  0.82672871  0.59276236  0.09964382  1  0  -0.122819  0  3.056736  0  0  -0.117894  0  3.36474  0  0  -0.11743  0  3.37504  0  0  -0.179565  -0.117558  0  3.357494  0
N  N47  1  0.17326950  0.40723996  0.59964334  1  0  -0.122796  0  3.056716  0  0  -0.117868  0  3.364725  0  0  -0.117401  0  3.375022  0  0  -0.179554  -0.117533  0  3.357479  0
N  N48  1  0.22194204  0.45289035  0.99418160  1  0  -0.092635  0  3.106825  0  0  -0.063148  0  3.394122  0  0  -0.064598  0  3.405821  0  0  -0.094567  -0.061902  0  3.386021  0
N  N49  1  0.77805488  0.54711382  0.49418220  1  0  -0.092772  0  3.106857  0  0  -0.063304  0  3.39419  0  0  -0.064754  0  3.405888  0  0  -0.094629  -0.062055  0  3.386085  0
N  N50  1  0.77805748  0.54711080  0.00581849  1  0  -0.09268  0  3.106795  0  0  -0.063203  0  3.394103  0  0  -0.064653  0  3.4058  0  0  -0.094574  -0.061956  0  3.386002  0
N  N51  1  0.22194216  0.45288842  0.50581711  1  0  -0.092716  0  3.106805  0  0  -0.06323  0  3.394125  0  0  -0.064681  0  3.405825  0  0  -0.094576  -0.061983  0  3.386026  0
N  N52  1  0.11780685  0.38016030  0.06779589  1  0  -0.372264  0  3.005539  0  0  -0.332428  0  3.277041  0  0  -0.347685  0  3.288358  0  0  -0.222844  -0.322295  0  3.269467  0
N  N53  1  0.88219297  0.61984200  0.56779753  1  0  -0.372145  0  3.005594  0  0  -0.332328  0  3.277096  0  0  -0.347582  0  3.288417  0  0  -0.222827  -0.322196  0  3.269518  0
N  N54  1  0.88219651  0.61983972  0.93220342  1  0  -0.37222  0  3.005535  0  0  -0.332373  0  3.277019  0  0  -0.347629  0  3.288337  0  0  -0.222845  -0.322239  0  3.269442  0
N  N55  1  0.11780497  0.38015814  0.43220256  1  0  -0.372205  0  3.005581  0  0  -0.332389  0  3.277104  0  0  -0.347647  0  3.288424  0  0  -0.222845  -0.322257  0  3.269533  0
N  N56  1  0.87487821  0.19292167  0.06126360  1  0  -0.468242  0  3.302039  0  0  -0.413586  0  3.552367  0  0  -0.432444  0  3.555589  0  0  -0.38454  -0.400425  0  3.549643  0
N  N57  1  0.12511513  0.80707556  0.56126568  1  0  -0.468095  0  3.301923  0  0  -0.41346  0  3.552252  0  0  -0.432311  0  3.555454  0  0  -0.384547  -0.400309  0  3.549543  0
N  N58  1  0.12512855  0.80707514  0.93873649  1  0  -0.468233  0  3.302149  0  0  -0.413573  0  3.552498  0  0  -0.432424  0  3.5557  0  0  -0.384499  -0.400417  0  3.549776  0
N  N59  1  0.87488057  0.19292045  0.43873755  1  0  -0.468291  0  3.302117  0  0  -0.413606  0  3.552435  0  0  -0.432457  0  3.555637  0  0  -0.384559  -0.400451  0  3.54974  0
N  N60  1  0.76534747  0.04674920  0.91382221  1  0  -0.459434  0  3.031336  0  0  -0.415472  0  3.322246  0  0  -0.430959  0  3.334669  0  0  -0.287839  -0.405077  0  3.313658  0
N  N61  1  0.23465234  0.95325288  0.41382587  1  0  -0.45936  0  3.031256  0  0  -0.415418  0  3.322179  0  0  -0.430904  0  3.334594  0  0  -0.287786  -0.405027  0  3.313599  0
N  N62  1  0.23465656  0.95325394  0.08617631  1  0  -0.459442  0  3.0314  0  0  -0.415493  0  3.322344  0  0  -0.430978  0  3.334758  0  0  -0.287823  -0.4051  0  3.313756  0
N  N63  1  0.76534696  0.04674723  0.58617736  1  0  -0.459383  0  3.031329  0  0  -0.415455  0  3.322264  0  0  -0.430939  0  3.334678  0  0  -0.287814  -0.405063  0  3.313683  0
N  N64  1  0.67073364  0.91626665  0.91027503  1  0  -0.064389  0  3.037561  0  0  -0.043737  0  3.32367  0  0  -0.043383  0  3.333934  0  0  -0.076959  -0.043699  0  3.316688  0
N  N65  1  0.32926711  0.08373333  0.41027592  1  0  -0.064542  0  3.037636  0  0  -0.043856  0  3.323723  0  0  -0.043501  0  3.33398  0  0  -0.077016  -0.043821  0  3.316748  0
N  N66  1  0.32926656  0.08373136  0.08972506  1  0  -0.064464  0  3.037779  0  0  -0.043803  0  3.323877  0  0  -0.043446  0  3.334134  0  0  -0.077004  -0.043766  0  3.316895  0
N  N67  1  0.67073197  0.91626575  0.58972496  1  0  -0.064524  0  3.037674  0  0  -0.043836  0  3.32377  0  0  -0.04348  0  3.334027  0  0  -0.077  -0.043801  0  3.316794  0
N  N68  1  0.64077551  0.86911454  0.00531171  1  0  -0.065243  0  3.063609  0  0  -0.043977  0  3.343904  0  0  -0.044932  0  3.356455  0  0  -0.081448  -0.043102  0  3.335435  0
N  N69  1  0.35922842  0.13088563  0.50531147  1  0  -0.065038  0  3.063457  0  0  -0.043785  0  3.343674  0  0  -0.044725  0  3.356232  0  0  -0.081357  -0.04292  0  3.335194  0
N  N70  1  0.35922650  0.13088551  0.99468839  1  0  -0.06516  0  3.063569  0  0  -0.043891  0  3.343777  0  0  -0.044831  0  3.356334  0  0  -0.081372  -0.043018  0  3.335305  0
N  N71  1  0.64077337  0.86911339  0.49468862  1  0  -0.06505  0  3.063566  0  0  -0.0438  0  3.343785  0  0  -0.044742  0  3.356345  0  0  -0.081367  -0.042937  0  3.335308  0
N  N72  1  0.71531492  0.96468377  0.07568733  1  0  -0.412509  0  3.040244  0  0  -0.356312  0  3.300736  0  0  -0.373259  0  3.312627  0  0  -0.230329  -0.344736  0  3.292676  0
N  N73  1  0.28468417  0.03531542  0.57568806  1  0  -0.412758  0  3.040269  0  0  -0.356485  0  3.300652  0  0  -0.373482  0  3.312597  0  0  -0.23038  -0.344868  0  3.292543  0
N  N74  1  0.28468799  0.03531418  0.92431040  1  0  -0.412793  0  3.040342  0  0  -0.356501  0  3.300712  0  0  -0.373499  0  3.312656  0  0  -0.230412  -0.344913  0  3.292638  0
N  N75  1  0.71531604  0.96468259  0.42431282  1  0  -0.412824  0  3.040459  0  0  -0.356543  0  3.300844  0  0  -0.373537  0  3.312788  0  0  -0.230376  -0.344925  0  3.292736  0
O  O76  1  0.85120086  0.47787858  0.74999932  1  0  -0.95165  0  1.981584  0  0  -0.886194  0  2.202219  0  0  -0.906358  0  2.168439  0  0  -0.689265  -0.871612  0  2.225547  0
O  O77  1  0.14880137  0.52212251  0.24999998  1  0  -0.951598  0  1.98152  0  0  -0.886146  0  2.202216  0  0  -0.90629  0  2.168393  0  0  -0.689238  -0.871562  0  2.225541  0
O  O78  1  0.50165573  0.10099687  0.74999974  1  0  -0.910761  0  1.987879  0  0  -0.850581  0  2.202246  0  0  -0.868899  0  2.170009  0  0  -0.666737  -0.837426  0  2.225125  0
O  O79  1  0.49834426  0.89900009  0.24999957  1  0  -0.910717  0  1.987973  0  0  -0.850598  0  2.202194  0  0  -0.868918  0  2.169968  0  0  -0.666705  -0.837446  0  2.225067  0
O  O80  1  0.05834367  0.07227089  0.74999953  1  0  -0.923199  0  1.96273  0  0  -0.878249  0  2.174761  0  0  -0.895491  0  2.14362  0  0  -0.649437  -0.865857  0  2.196598  0
O  O81  1  0.94165337  0.92773136  0.24999899  1  0  -0.923298  0  1.96258  0  0  -0.878356  0  2.174678  0  0  -0.895599  0  2.143549  0  0  -0.649517  -0.865964  0  2.196514  0
O  O82  1  0.61499720  0.32224363  0.89272722  1  0  -0.928823  0  1.981247  0  0  -0.868566  0  2.19605  0  0  -0.888305  0  2.164566  0  0  -0.675064  -0.854485  0  2.21824  0
O  O83  1  0.38499780  0.67776065  0.39272809  1  0  -0.928856  0  1.981265  0  0  -0.868607  0  2.196057  0  0  -0.888349  0  2.164575  0  0  -0.675103  -0.854527  0  2.218245  0
O  O84  1  0.38500163  0.67776066  0.10727287  1  0  -0.928884  0  1.981255  0  0  -0.868628  0  2.196046  0  0  -0.888368  0  2.164564  0  0  -0.675081  -0.854548  0  2.218233  0
O  O85  1  0.61499788  0.32224162  0.60727279  1  0  -0.928829  0  1.981247  0  0  -0.868569  0  2.196034  0  0  -0.888307  0  2.164551  0  0  -0.675069  -0.854489  0  2.218224  0
O  O86  1  0.44494665  0.77605540  0.74999831  1  0  -0.872296  0  1.78818  0  0  -0.825974  0  1.952934  0  0  -0.842649  0  1.921739  0  0  -0.683986  -0.813674  0  1.974641  0
O  O87  1  0.55505445  0.22394676  0.25000100  1  0  -0.872354  0  1.788154  0  0  -0.826023  0  1.952896  0  0  -0.842702  0  1.921709  0  0  -0.684007  -0.813723  0  1.974605  0
