# generated using pymatgen
data_ZnH12C16NO5
_symmetry_space_group_name_H-M   'P 1'
_cell_length_a   7.63728539
_cell_length_b   8.84693027
_cell_length_c   10.62489735
_cell_angle_alpha   88.49253566
_cell_angle_beta   80.30422741
_cell_angle_gamma   85.04240560
_symmetry_Int_Tables_number   1
_chemical_formula_structural   ZnH12C16NO5
_chemical_formula_sum   'Zn2 H24 C32 N2 O10'
_cell_volume   704.93528699
_cell_formula_units_Z   2
loop_
 _symmetry_equiv_pos_site_id
 _symmetry_equiv_pos_as_xyz
  1  'x, y, z'
loop_
 _atom_site_type_symbol
 _atom_site_label
 _atom_site_symmetry_multiplicity
 _atom_site_fract_x
 _atom_site_fract_y
 _atom_site_fract_z
 _atom_site_occupancy
 _atom_site_hle17_bader_spin_density
 _atom_site_hle17_ddec_charge
 _atom_site_hle17_ddec_spin_density
 _atom_site_hle17_ddec_sum_bond_order
 _atom_site_hle17_magmom
 _atom_site_hse06_10hf_bader_spin_density
 _atom_site_hse06_10hf_ddec_charge
 _atom_site_hse06_10hf_ddec_spin_density
 _atom_site_hse06_10hf_ddec_sum_bond_order
 _atom_site_hse06_10hf_magmom
 _atom_site_hse06_bader_spin_density
 _atom_site_hse06_ddec_charge
 _atom_site_hse06_ddec_spin_density
 _atom_site_hse06_ddec_sum_bond_order
 _atom_site_hse06_magmom
 _atom_site_pbe_bader_spin_density
 _atom_site_pbe_cm5_charge
 _atom_site_pbe_ddec_charge
 _atom_site_pbe_ddec_spin_density
 _atom_site_pbe_ddec_sum_bond_order
 _atom_site_pbe_magmom
Zn  Zn0  1  0.11831021  0.51267786  0.59350586  1  0  1.038106  0  1.863376  0  0  0.864721  0  2.332496  0  0  0.917611  0  2.266741  0  0  0.673388  0.828066  0  2.37728  0
Zn  Zn1  1  0.88168968  0.48732279  0.40649443  1  0  1.038102  0  1.863393  0  0  0.864701  0  2.332536  0  0  0.917591  0  2.26678  0  0  0.673376  0.828049  0  2.37731  0
H  H2  1  0.66719055  0.82467281  0.79610014  1  0  0.105668  0  0.979409  0  0  0.114158  0  1.044352  0  0  0.118409  0  1.041959  0  0  0.097921  0.111007  0  1.046262  0
H  H3  1  0.33280694  0.17532555  0.20390049  1  0  0.105631  0  0.979427  0  0  0.114117  0  1.044379  0  0  0.118368  0  1.041986  0  0  0.097907  0.110968  0  1.04629  0
H  H4  1  0.42275731  0.79779545  0.59554531  1  0  0.110245  0  0.950088  0  0  0.118972  0  1.013873  0  0  0.122778  0  1.010187  0  0  0.105322  0.115862  0  1.017166  0
H  H5  1  0.57724284  0.20220294  0.40445406  1  0  0.110256  0  0.950078  0  0  0.118981  0  1.013869  0  0  0.122787  0  1.010182  0  0  0.10532  0.115868  0  1.017162  0
H  H6  1  0.51956773  0.01929629  0.87707879  1  0  0.095281  0  0.979363  0  0  0.103922  0  1.046861  0  0  0.107079  0  1.045122  0  0  0.098362  0.101475  0  1.048543  0
H  H7  1  0.48043506  0.98070212  0.12292121  1  0  0.095304  0  0.979399  0  0  0.10394  0  1.046895  0  0  0.107098  0  1.045155  0  0  0.098375  0.101493  0  1.048577  0
H  H8  1  0.28807233  0.18183743  0.01415834  1  0  0.080845  0  0.962531  0  0  0.093702  0  1.021665  0  0  0.096208  0  1.02023  0  0  0.0963  0.091627  0  1.023162  0
H  H9  1  0.71192889  0.81816323  0.98584085  1  0  0.080835  0  0.962567  0  0  0.093703  0  1.021686  0  0  0.096213  0  1.02025  0  0  0.096291  0.091627  0  1.023182  0
H  H10  1  0.97473736  0.20340041  0.97522515  1  0  0.096856  0  0.976646  0  0  0.108359  0  1.040277  0  0  0.110944  0  1.039553  0  0  0.101694  0.106685  0  1.040421  0
H  H11  1  0.02526519  0.79660027  0.02477388  1  0  0.096809  0  0.976564  0  0  0.108308  0  1.040219  0  0  0.110895  0  1.039492  0  0  0.101675  0.106632  0  1.040366  0
H  H12  1  0.12699980  0.90567694  0.65423250  1  0  0.118412  0  0.973579  0  0  0.125541  0  1.041581  0  0  0.128999  0  1.040217  0  0  0.102038  0.122839  0  1.042842  0
H  H13  1  0.87300142  0.09432373  0.34576670  1  0  0.118384  0  0.973613  0  0  0.125564  0  1.041553  0  0  0.129021  0  1.040188  0  0  0.10204  0.12286  0  1.042814  0
H  H14  1  0.67457497  0.09512849  0.67472177  1  0  0.095203  0  0.941169  0  0  0.106891  0  1.004792  0  0  0.107607  0  1.005438  0  0  0.1142  0.106926  0  1.003324  0
H  H15  1  0.32542479  0.90487330  0.32527851  1  0  0.095208  0  0.941163  0  0  0.106888  0  1.004803  0  0  0.107604  0  1.005448  0  0  0.114195  0.106922  0  1.003335  0
H  H16  1  0.88433352  0.00937278  0.60437646  1  0  0.088749  0  0.923509  0  0  0.101713  0  0.984496  0  0  0.103187  0  0.983217  0  0  0.109641  0.10033  0  0.985998  0
H  H17  1  0.11566504  0.99062786  0.39562306  1  0  0.088752  0  0.923507  0  0  0.10171  0  0.9845  0  0  0.103184  0  0.98322  0  0  0.109649  0.10033  0  0.985996  0
H  H18  1  0.48118736  0.38658117  0.63752455  1  0  0.101074  0  0.931957  0  0  0.107345  0  0.996685  0  0  0.110365  0  0.993922  0  0  0.125291  0.105106  0  0.998237  0
H  H19  1  0.51881240  0.61342061  0.36247762  1  0  0.101095  0  0.931935  0  0  0.10731  0  0.996727  0  0  0.110329  0  0.993965  0  0  0.125295  0.105072  0  0.998277  0
H  H20  1  0.65921115  0.37855358  0.81241595  1  0  0.115937  0  0.962718  0  0  0.125808  0  1.022037  0  0  0.128916  0  1.021184  0  0  0.112632  0.123417  0  1.022877  0
H  H21  1  0.34078804  0.62144138  0.18758549  1  0  0.115897  0  0.962691  0  0  0.12577  0  1.022024  0  0  0.128879  0  1.021171  0  0  0.112615  0.12338  0  1.022864  0
H  H22  1  0.20527220  0.61681734  0.04648617  1  0  0.113595  0  0.965929  0  0  0.122856  0  1.026937  0  0  0.12651  0  1.02489  0  0  0.113226  0.120208  0  1.028421  0
H  H23  1  0.79472648  0.38318216  0.95351524  1  0  0.113611  0  0.965922  0  0  0.122876  0  1.026916  0  0  0.12653  0  1.02487  0  0  0.113241  0.120223  0  1.028413  0
H  H24  1  0.04913245  0.61940392  0.85859642  1  0  0.090138  0  0.940428  0  0  0.099229  0  1.002621  0  0  0.102116  0  1.000223  0  0  0.121021  0.096652  0  1.004983  0
H  H25  1  0.95086744  0.38059673  0.14140482  1  0  0.09014  0  0.940433  0  0  0.099228  0  1.002631  0  0  0.102116  0  1.00023  0  0  0.121025  0.096651  0  1.004994  0
C  C26  1  0.75234404  0.67959990  0.63313611  1  0  0.689315  0  3.916314  0  0  0.642984  0  4.201897  0  0  0.679396  0  4.194542  0  0  0.199731  0.618598  0  4.205673  0
C  C27  1  0.24765598  0.32039962  0.36686325  1  0  0.689193  0  3.916468  0  0  0.642903  0  4.202009  0  0  0.67931  0  4.194665  0  0  0.199725  0.618517  0  4.205784  0
C  C28  1  0.62246060  0.78723578  0.71081072  1  0  -0.259902  0  3.714648  0  0  -0.274252  0  3.976596  0  0  -0.287306  0  3.994355  0  0  -0.112419  -0.265154  0  3.963805  0
C  C29  1  0.37753821  0.21276259  0.28918881  1  0  -0.259827  0  3.71467  0  0  -0.274185  0  3.976601  0  0  -0.287238  0  3.994361  0  0  -0.112413  -0.265089  0  3.963814  0
C  C30  1  0.46348245  0.84033318  0.68098446  1  0  -0.031218  0  3.701784  0  0  -0.056504  0  3.948714  0  0  -0.051154  0  3.96487  0  0  -0.07365  -0.06072  0  3.937781  0
C  C31  1  0.53651889  0.15966635  0.31901474  1  0  -0.031223  0  3.701742  0  0  -0.056524  0  3.948662  0  0  -0.051171  0  3.964813  0  0  -0.073649  -0.060735  0  3.937729  0
C  C32  1  0.33671904  0.94851042  0.75774609  1  0  0.094074  0  3.830992  0  0  0.118439  0  4.059411  0  0  0.118057  0  4.084689  0  0  -0.015571  0.118381  0  4.041177  0
C  C33  1  0.66328231  0.05148911  0.24225312  1  0  0.094051  0  3.830995  0  0  0.118463  0  4.059353  0  0  0.118079  0  4.084633  0  0  -0.015555  0.118403  0  4.041124  0
C  C34  1  0.38300024  0.02877792  0.85850517  1  0  -0.14125  0  3.733418  0  0  -0.164512  0  3.981881  0  0  -0.167961  0  4.003355  0  0  -0.103164  -0.16261  0  3.966568  0
C  C35  1  0.61700111  0.97122161  0.14149121  1  0  -0.141264  0  3.733437  0  0  -0.164529  0  3.981886  0  0  -0.167982  0  4.003368  0  0  -0.103199  -0.162627  0  3.966575  0
C  C36  1  0.25325546  0.12074404  0.93540895  1  0  -0.04268  0  3.811599  0  0  -0.058094  0  4.07166  0  0  -0.057986  0  4.092328  0  0  -0.09381  -0.057672  0  4.056651  0
C  C37  1  0.74674577  0.87925663  0.06458836  1  0  -0.04268  0  3.811606  0  0  -0.058104  0  4.071668  0  0  -0.057999  0  4.092338  0  0  -0.093785  -0.057676  0  4.05665  0
C  C38  1  0.07819133  0.13617478  0.91293491  1  0  -0.158184  0  3.737077  0  0  -0.187884  0  3.994658  0  0  -0.191753  0  4.013697  0  0  -0.100312  -0.184436  0  3.980753  0
C  C39  1  0.92180856  0.86382588  0.08706539  1  0  -0.158119  0  3.736979  0  0  -0.18781  0  3.994566  0  0  -0.191677  0  4.013605  0  0  -0.100297  -0.18436  0  3.980657  0
C  C40  1  0.03297363  0.06328420  0.80927412  1  0  0.277703  0  3.806538  0  0  0.275969  0  4.061511  0  0  0.286131  0  4.076963  0  0  0.079897  0.268518  0  4.051554  0
C  C41  1  0.96702627  0.93671645  0.19072430  1  0  0.277709  0  3.806539  0  0  0.275938  0  4.061562  0  0  0.286098  0  4.077013  0  0  0.079884  0.268486  0  4.051606  0
C  C42  1  0.16093100  0.96918159  0.73205640  1  0  -0.226763  0  3.67352  0  0  -0.255123  0  3.915507  0  0  -0.261513  0  3.936056  0  0  -0.101961  -0.249556  0  3.901026  0
C  C43  1  0.83907022  0.03081907  0.26794185  1  0  -0.226748  0  3.67354  0  0  -0.255156  0  3.915518  0  0  -0.261543  0  3.936067  0  0  -0.101957  -0.249587  0  3.90104  0
C  C44  1  0.81853877  0.10177167  0.66754132  1  0  -0.06866  0  3.640768  0  0  -0.126494  0  3.906578  0  0  -0.123358  0  3.907392  0  0  -0.066856  -0.128678  0  3.905859  0
C  C45  1  0.18146245  0.89822899  0.33245788  1  0  -0.068686  0  3.640805  0  0  -0.126531  0  3.906621  0  0  -0.123387  0  3.907427  0  0  -0.066883  -0.128708  0  3.905896  0
C  C46  1  0.86893990  0.25366914  0.60624464  1  0  0.664244  0  3.87716  0  0  0.611895  0  4.181324  0  0  0.64529  0  4.174663  0  0  0.207797  0.589415  0  4.184798  0
C  C47  1  0.13106277  0.74633041  0.39375534  1  0  0.664137  0  3.877368  0  0  0.611778  0  4.181535  0  0  0.645168  0  4.174879  0  0  0.207706  0.589297  0  4.18501  0
C  C48  1  0.42589261  0.43644916  0.72993340  1  0  0.153116  0  3.649491  0  0  0.1194  0  3.902484  0  0  0.126833  0  3.920932  0  0  0.063122  0.115136  0  3.88814  0
C  C49  1  0.57410703  0.56355376  0.27006594  1  0  0.153083  0  3.649537  0  0  0.119434  0  3.902513  0  0  0.126866  0  3.920962  0  0  0.063149  0.115169  0  3.888174  0
C  C50  1  0.52404462  0.43250261  0.82904502  1  0  -0.143918  0  3.665895  0  0  -0.162622  0  3.913683  0  0  -0.170867  0  3.93574  0  0  -0.07348  -0.157271  0  3.898008  0
C  C51  1  0.47595685  0.56749579  0.17095608  1  0  -0.143898  0  3.66591  0  0  -0.16263  0  3.913679  0  0  -0.170875  0  3.935734  0  0  -0.073522  -0.157279  0  3.89801  0
C  C52  1  0.44941865  0.49932595  0.94640490  1  0  0.099678  0  3.73937  0  0  0.112481  0  3.965792  0  0  0.116564  0  3.98746  0  0  0.018756  0.109561  0  3.95217  0
C  C53  1  0.55058016  0.50067242  0.05359652  1  0  0.099689  0  3.739382  0  0  0.112531  0  3.965779  0  0  0.116614  0  3.987447  0  0  0.01877  0.109597  0  3.95217  0
C  C54  1  0.27341217  0.56510543  0.95787220  1  0  -0.157365  0  3.694319  0  0  -0.175837  0  3.941717  0  0  -0.183726  0  3.963249  0  0  -0.076296  -0.170862  0  3.92682  0
C  C55  1  0.72658797  0.43489294  0.04212999  1  0  -0.15738  0  3.694397  0  0  -0.175864  0  3.941797  0  0  -0.183753  0  3.96333  0  0  -0.0763  -0.170887  0  3.926902  0
C  C56  1  0.18436366  0.56638975  0.85433650  1  0  0.133659  0  3.690183  0  0  0.100978  0  3.942587  0  0  0.10743  0  3.962313  0  0  0.054062  0.097061  0  3.928238  0
C  C57  1  0.81563490  0.43361089  0.14566490  1  0  0.133671  0  3.690162  0  0  0.10099  0  3.942576  0  0  0.107443  0  3.962299  0  0  0.05408  0.097073  0  3.928231  0
N  N58  1  0.25938322  0.50417010  0.74160248  1  0  -0.300852  0  3.257646  0  0  -0.215952  0  3.5265  0  0  -0.235778  0  3.5418  0  0  -0.319534  -0.203143  0  3.515601  0
N  N59  1  0.74061895  0.49583398  0.25839841  1  0  -0.300861  0  3.257572  0  0  -0.215962  0  3.526405  0  0  -0.23579  0  3.541708  0  0  -0.319557  -0.203146  0  3.515486  0
O  O60  1  0.71329707  0.62487902  0.53222426  1  0  -0.638875  0  2.056105  0  0  -0.566835  0  2.313209  0  0  -0.596324  0  2.29987  0  0  -0.317238  -0.546523  0  2.32142  0
O  O61  1  0.28670295  0.37512050  0.46777510  1  0  -0.638888  0  2.056151  0  0  -0.566861  0  2.313225  0  0  -0.596358  0  2.299902  0  0  -0.317278  -0.546546  0  2.321429  0
O  O62  1  0.89943847  0.64942244  0.67523926  1  0  -0.649895  0  2.051251  0  0  -0.581821  0  2.314227  0  0  -0.610728  0  2.300044  0  0  -0.324135  -0.561797  0  2.323463  0
O  O63  1  0.10056022  0.35057706  0.32476026  1  0  -0.649804  0  2.051281  0  0  -0.581753  0  2.314248  0  0  -0.610657  0  2.300073  0  0  -0.324102  -0.561729  0  2.323483  0
O  O64  1  0.85608249  0.08332393  0.79424888  1  0  -0.284929  0  2.328689  0  0  -0.221474  0  2.568394  0  0  -0.237183  0  2.569707  0  0  -0.19298  -0.210449  0  2.567643  0
O  O65  1  0.14391740  0.91667673  0.20574954  1  0  -0.284922  0  2.328755  0  0  -0.221433  0  2.56845  0  0  -0.237143  0  2.569762  0  0  -0.192953  -0.210411  0  2.567699  0
O  O66  1  0.97293456  0.32664410  0.65719920  1  0  -0.625531  0  2.105908  0  0  -0.56285  0  2.370519  0  0  -0.59067  0  2.359292  0  0  -0.309076  -0.543237  0  2.376937  0
O  O67  1  0.02706944  0.67335545  0.34279968  1  0  -0.625479  0  2.105926  0  0  -0.562769  0  2.370517  0  0  -0.590601  0  2.359321  0  0  -0.309026  -0.543158  0  2.376937  0
O  O68  1  0.79987316  0.29192536  0.50785694  1  0  -0.631869  0  2.053343  0  0  -0.56511  0  2.31592  0  0  -0.594117  0  2.30338  0  0  -0.313908  -0.544767  0  2.323609  0
O  O69  1  0.20012540  0.70807528  0.49214446  1  0  -0.631793  0  2.053487  0  0  -0.565019  0  2.316034  0  0  -0.594024  0  2.303498  0  0  -0.313849  -0.544675  0  2.323723  0
