# generated using pymatgen
data_Zn4H12C26S2O23
_symmetry_space_group_name_H-M   'P 1'
_cell_length_a   15.93131875
_cell_length_b   15.93789369
_cell_length_c   21.31037441
_cell_angle_alpha   111.93365841
_cell_angle_beta   112.27387371
_cell_angle_gamma   90.11219979
_symmetry_Int_Tables_number   1
_chemical_formula_structural   Zn4H12C26S2O23
_chemical_formula_sum   'Zn8 H24 C52 S4 O46'
_cell_volume   4579.36685118
_cell_formula_units_Z   2
loop_
 _symmetry_equiv_pos_site_id
 _symmetry_equiv_pos_as_xyz
  1  'x, y, z'
loop_
 _atom_site_type_symbol
 _atom_site_label
 _atom_site_symmetry_multiplicity
 _atom_site_fract_x
 _atom_site_fract_y
 _atom_site_fract_z
 _atom_site_occupancy
 _atom_site_pbe_bader_charge
 _atom_site_pbe_bader_spin_density
 _atom_site_pbe_cm5_charge
 _atom_site_pbe_ddec_charge
 _atom_site_pbe_ddec_spin_density
 _atom_site_pbe_ddec_sum_bond_order
 _atom_site_pbe_magmom
Zn  Zn0  1  0.03532359  0.63631532  0.56550782  1  1.318732  0  0.680595  0.966852  0  2.360271  0
Zn  Zn1  1  0.63497577  0.03383281  0.56724608  1  1.32148  0  0.682578  0.96841  0  2.366727  0
Zn  Zn2  1  0.06641919  0.47577078  0.43315849  1  1.318639  0  0.682039  0.969537  0  2.358145  0
Zn  Zn3  1  0.47634609  0.07173522  0.43618640  1  1.312443  0  0.68376  0.970754  0  2.352943  0
Zn  Zn4  1  0.87027607  0.47103851  0.44064975  1  1.320412  0  0.682454  0.966864  0  2.37098  0
Zn  Zn5  1  0.47064119  0.87227564  0.43867389  1  1.321356  0  0.680481  0.968329  0  2.358181  0
Zn  Zn6  1  0.04240511  0.43543980  0.56422268  1  1.323496  0  0.684769  0.971231  0  2.35284  0
Zn  Zn7  1  0.43183982  0.04077485  0.56210265  1  1.326741  0  0.686  0.971907  0  2.353554  0
H  H8  1  0.27116881  0.59223586  0.93002006  1  0.091915  0  0.109705  0.136336  0  0.978189  0
H  H9  1  0.59370436  0.27855444  0.92738939  1  0.088149  0  0.108624  0.131902  0  0.978667  0
H  H10  1  0.63140509  0.28851870  0.04909009  1  0.085189  0  0.104228  0.123875  0  0.987166  0
H  H11  1  0.28021869  0.63807497  0.05138903  1  0.099281  0  0.104062  0.126535  0  0.990814  0
H  H12  1  0.34237595  0.69368446  0.95228995  1  0.065723  0  0.102737  0.114138  0  0.988458  0
H  H13  1  0.70219710  0.33827249  0.95114417  1  0.068574  0  0.104529  0.117806  0  0.982072  0
H  H14  1  0.70834767  0.38603705  0.07252189  1  0.051286  0  0.108013  0.121864  0  0.954876  0
H  H15  1  0.38447152  0.70547388  0.07430910  1  0.078184  0  0.106171  0.120415  0  0.956007  0
H  H16  1  0.17642445  0.85088592  0.94975479  1  0.063792  0  0.111578  0.098416  0  0.977757  0
H  H17  1  0.83897375  0.15376988  0.95712110  1  0.054092  0  0.110307  0.098284  0  0.965797  0
H  H18  1  0.91169384  0.26583287  0.07618393  1  0.1426  0  0.128053  0.133804  0  0.959201  0
H  H19  1  0.27658056  0.91852882  0.07296949  1  0.108346  0  0.122102  0.116842  0  0.949879  0
H  H20  1  0.43790498  0.91036161  0.12871062  1  0.125832  0  0.117587  0.057512  0  0.938648  0
H  H21  1  0.89560696  0.42921148  0.12211390  1  0.095294  0  0.117247  0.056418  0  0.942583  0
H  H22  1  0.80129932  0.28220429  0.88046157  1  0.09914  0  0.10921  0.048452  0  0.96488  0
H  H23  1  0.30532817  0.78775878  0.87930569  1  0.085605  0  0.109479  0.049797  0  0.960974  0
H  H24  1  0.01386669  0.70475095  0.85464607  1  0.097396  0  0.125011  0.086808  0  0.957111  0
H  H25  1  0.69210122  0.01336635  0.85888379  1  0.140788  0  0.132249  0.096292  0  0.939351  0
H  H26  1  0.82679185  0.04237676  0.02025614  1  0.121067  0  0.121613  0.071074  0  0.976607  0
H  H27  1  0.12388907  0.88808306  0.02232223  1  0.084706  0  0.111421  0.054516  0  0.988627  0
H  H28  1  0.04281613  0.55093193  0.99262191  1  0.665837  0  0.340515  0.402791  0  0.87284  0
H  H29  1  0.53174468  0.06829800  0.00173913  1  0.64862  0  0.331041  0.395262  0  0.905282  0
H  H30  1  0.67810824  0.99152424  0.00794469  1  0.644906  0  0.310624  0.362811  0  0.974693  0
H  H31  1  0.23661904  0.76526164  0.19761138  1  0.625002  0  0.328294  0.380541  0  0.895777  0
C  C32  1  0.89213268  0.40432391  0.30025498  1  1.598997  0  0.240428  0.689084  0  4.21814  0
C  C33  1  0.40390843  0.90170773  0.30119454  1  1.640079  0  0.239447  0.682564  0  4.229052  0
C  C34  1  0.34496892  0.84881493  0.50380915  1  1.684577  0  0.245103  0.67921  0  4.217229  0
C  C35  1  0.85218737  0.34532745  0.50858120  1  1.676876  0  0.245972  0.67592  0  4.223897  0
C  C36  1  0.16288987  0.66631526  0.50361896  1  1.679916  0  0.24398  0.674474  0  4.22652  0
C  C37  1  0.66882576  0.16265772  0.50676641  1  1.664968  0  0.24546  0.678052  0  4.218496  0
C  C38  1  0.10493982  0.60346224  0.70109648  1  1.628774  0  0.24061  0.686538  0  4.218301  0
C  C39  1  0.22783464  0.73121591  0.50505264  1  -0.26958  0  -0.007609  -0.096719  0  3.905053  0
C  C40  1  0.73524194  0.22705467  0.50942346  1  0.132629  0  -0.010774  -0.104336  0  3.911424  0
C  C41  1  0.59901141  0.10081842  0.70135597  1  1.602988  0  0.241405  0.685806  0  4.223323  0
C  C42  1  0.28161382  0.78538470  0.50524365  1  0.108499  0  -0.009689  -0.102973  0  3.908521  0
C  C43  1  0.78991063  0.28103679  0.51037834  1  -0.286779  0  -0.006332  -0.095012  0  3.903444  0
C  C44  1  0.23652890  0.81559950  0.95963384  1  -0.036335  0  -0.08138  -0.13658  0  3.791845  0
C  C45  1  0.81080499  0.21802699  0.96149687  1  -0.044655  0  -0.080066  -0.129866  0  3.779694  0
C  C46  1  0.84663934  0.28277197  0.04429009  1  -0.040635  0  -0.079212  -0.147542  0  3.802371  0
C  C47  1  0.29408198  0.85237645  0.04418770  1  -0.039378  0  -0.074111  -0.136152  0  3.786237  0
C  C48  1  0.28553524  0.66668309  0.96028427  1  -0.036708  0  -0.160621  -0.211186  0  3.847226  0
C  C49  1  0.66758640  0.28579210  0.95896329  1  -0.026989  0  -0.160014  -0.211067  0  3.847843  0
C  C50  1  0.69020294  0.31129512  0.04119618  1  -0.040674  0  -0.156565  -0.206676  0  3.84495  0
C  C51  1  0.30958608  0.69294592  0.04274899  1  -0.060073  0  -0.157649  -0.204823  0  3.844417  0
C  C52  1  0.36034757  0.85990770  0.22107225  1  0.222468  0  -0.030628  -0.17671  0  3.930518  0
C  C53  1  0.84846160  0.35898195  0.22071077  1  -0.013037  0  -0.0346  -0.166862  0  3.933427  0
C  C54  1  0.63663605  0.13436028  0.78105815  1  -0.236166  0  -0.030955  -0.163152  0  3.926499  0
C  C55  1  0.14099193  0.64206277  0.78091646  1  0.1803  0  -0.031373  -0.162263  0  3.924972  0
C  C56  1  0.20161961  0.71048870  0.92820645  1  0.149307  0  0.011145  0.134281  0  3.83902  0
C  C57  1  0.39756044  0.87079803  0.06812830  1  0.887431  0  0.120861  0.312276  0  3.860792  0
C  C58  1  0.86983066  0.38333427  0.06212547  1  0.929077  0  0.120677  0.313975  0  3.867907  0
C  C59  1  0.84918472  0.25444732  0.91843146  1  0.970943  0  0.100753  0.301561  0  3.923879  0
C  C60  1  0.70321644  0.19517797  0.92822225  1  0.073769  0  0.008719  0.13257  0  3.848089  0
C  C61  1  0.28727498  0.84353085  0.91988383  1  0.976916  0  0.103784  0.303168  0  3.910818  0
C  C62  1  0.77379351  0.26757281  0.07420755  1  0.079521  0  0.017347  0.148211  0  3.826387  0
C  C63  1  0.03604857  0.73034545  0.91535958  1  0.971166  0  0.103996  0.256234  0  3.914587  0
C  C64  1  0.68723093  0.02612361  0.91197735  1  0.905197  0  0.115727  0.268658  0  3.895567  0
C  C65  1  0.83324043  0.11445055  0.05806814  1  0.942381  0  0.100953  0.241925  0  3.914354  0
C  C66  1  0.12908133  0.85594700  0.06135550  1  1.002612  0  0.094316  0.262677  0  3.960352  0
C  C67  1  0.27140025  0.78160427  0.07383673  1  0.072003  0  0.015956  0.13994  0  3.827633  0
C  C68  1  0.16220588  0.75996897  0.04282973  1  -0.098923  0  0.004005  -0.14396  0  3.572087  0
C  C69  1  0.74417205  0.15979266  0.04244833  1  -0.119197  0  0.000863  -0.156914  0  3.606439  0
C  C70  1  0.67917644  0.12356294  0.95684765  1  -0.097967  0  -0.004171  -0.164643  0  3.614792  0
C  C71  1  0.12399730  0.69972672  0.95633501  1  -0.099421  0  0.001329  -0.147998  0  3.56186  0
C  C72  1  0.31688053  0.82314910  0.15425862  1  -0.401099  0  -0.017176  -0.057476  0  4.056711  0
C  C73  1  0.81365179  0.31296512  0.15444176  1  -0.138011  0  -0.019826  -0.040927  0  4.050604  0
C  C74  1  0.66634837  0.15943019  0.84782757  1  0.087252  0  -0.021269  -0.049156  0  4.053789  0
C  C75  1  0.16614566  0.67255597  0.84771352  1  -0.413033  0  -0.020491  -0.048817  0  4.046602  0
C  C76  1  0.22614143  0.28124683  0.48843809  1  -0.217595  0  -0.006966  -0.098266  0  3.899181  0
C  C77  1  0.27968423  0.22722285  0.48836382  1  0.058777  0  -0.010368  -0.101978  0  3.904091  0
C  C78  1  0.77981638  0.72700316  0.49837511  1  0.050999  0  -0.007891  -0.095854  0  3.904629  0
C  C79  1  0.72469655  0.77943079  0.49681719  1  -0.155955  0  -0.011812  -0.106396  0  3.912411  0
C  C80  1  0.84436690  0.66331957  0.50029906  1  1.681314  0  0.243441  0.673372  0  4.226739  0
C  C81  1  0.66028759  0.84307091  0.49746828  1  1.640485  0  0.243566  0.677872  0  4.221205  0
C  C82  1  0.16240346  0.34575031  0.49136781  1  1.688246  0  0.246322  0.679081  0  4.218696  0
C  C83  1  0.34376833  0.16324205  0.49116650  1  1.662364  0  0.245851  0.678615  0  4.216128  0
S  S84  1  0.07878770  0.56668702  0.91153626  1  3.08863  0  0.54774  1.097243  0  5.895517  0
S  S85  1  0.54280461  0.09807339  0.91695301  1  3.113417  0  0.54873  1.08999  0  5.889595  0
S  S86  1  0.69522648  0.12477939  0.09889409  1  3.094108  0  0.547164  1.128317  0  5.928779  0
S  S87  1  0.12005946  0.70514223  0.09291201  1  3.07455  0  0.542269  1.114262  0  5.924972  0
O  O88  1  0.00389570  0.50437556  0.50089381  1  -1.232659  0  -0.570455  -1.044105  0  2.53181  0
O  O89  1  0.43968602  0.98591164  0.33125688  1  -1.144241  0  -0.297559  -0.520394  0  2.257655  0
O  O90  1  0.51171110  0.08877674  0.66838309  1  -1.123285  0  -0.298781  -0.521941  0  2.270497  0
O  O91  1  0.83905077  0.42057076  0.33410912  1  -1.122111  0  -0.303443  -0.529997  0  2.27472  0
O  O92  1  0.40032942  0.84870134  0.33290759  1  -1.151445  0  -0.303742  -0.533817  0  2.252817  0
O  O93  1  0.10671496  0.51843401  0.66946732  1  -1.144898  0  -0.300243  -0.525346  0  2.264111  0
O  O94  1  0.43561923  0.84535242  0.02584863  1  -1.042338  0  -0.22478  -0.309381  0  2.140535  0
O  O95  1  0.86429635  0.41388961  0.01625110  1  -1.061209  0  -0.229614  -0.317499  0  2.132531  0
O  O96  1  0.92725021  0.24759211  0.92326554  1  -1.074243  0  -0.26814  -0.346025  0  2.084245  0
O  O97  1  0.30140408  0.92354024  0.92982111  1  -1.067808  0  -0.266371  -0.343683  0  2.092911  0
O  O98  1  0.07445490  0.65863961  0.67031081  1  -1.142844  0  -0.30669  -0.536592  0  2.268521  0
O  O99  1  0.65727994  0.08642377  0.67232875  1  -1.142943  0  -0.304106  -0.532809  0  2.27594  0
O  O100  1  0.99287303  0.77846250  0.94711724  1  -1.034666  0  -0.211935  -0.27283  0  2.165892  0
O  O101  1  0.68529385  0.96275918  0.93153640  1  -1.07854  0  -0.22205  -0.30014  0  2.228325  0
O  O102  1  0.90519716  0.15532376  0.11046612  1  -1.034992  0  -0.20939  -0.260117  0  2.165882  0
O  O103  1  0.12172858  0.89771431  0.11902349  1  -1.061531  0  -0.238769  -0.298544  0  2.16353  0
O  O104  1  0.97981682  0.42325143  0.32873388  1  -1.113385  0  -0.305256  -0.534885  0  2.274063  0
O  O105  1  0.02355206  0.54895699  0.83545881  1  -1.268033  0  -0.286025  -0.480638  0  2.156897  0
O  O106  1  0.15412172  0.51906686  0.93178672  1  -1.255355  0  -0.279314  -0.47134  0  2.1702  0
O  O107  1  0.00761168  0.55218133  0.94328154  1  -1.210832  0  -0.334187  -0.48382  0  2.211775  0
O  O108  1  0.50593012  0.18044321  0.94056890  1  -1.248439  0  -0.269886  -0.457264  0  2.164729  0
O  O109  1  0.52011051  0.04351652  0.83991100  1  -1.255982  0  -0.278224  -0.465367  0  2.140812  0
O  O110  1  0.52056409  0.03003767  0.94853003  1  -1.201635  0  -0.333864  -0.489507  0  2.23727  0
O  O111  1  0.76065247  0.15765494  0.17413884  1  -1.25671  0  -0.272878  -0.454799  0  2.141034  0
O  O112  1  0.60357618  0.14883429  0.08418209  1  -1.278091  0  -0.296481  -0.525939  0  2.181626  0
O  O113  1  0.68930189  0.01800158  0.06331475  1  -1.219604  0  -0.344976  -0.507131  0  2.23087  0
O  O114  1  0.02465823  0.71040901  0.07293801  1  -1.255516  0  -0.283932  -0.46513  0  2.142527  0
O  O115  1  0.15037717  0.61648733  0.07889887  1  -1.295147  0  -0.310285  -0.550762  0  2.185907  0
O  O116  1  0.16980890  0.76633113  0.17894754  1  -1.189785  0  -0.333314  -0.475207  0  2.232576  0
O  O117  1  0.50312263  0.00471915  0.50073515  1  -1.231081  0  -0.57102  -1.045853  0  2.534297  0
O  O118  1  0.80915075  0.57876687  0.46362782  1  -1.144226  0  -0.298261  -0.523846  0  2.276889  0
O  O119  1  0.58032813  0.81397379  0.44450388  1  -1.143031  0  -0.302483  -0.530611  0  2.264696  0
O  O120  1  0.12526466  0.35268949  0.53614177  1  -1.127557  0  -0.297609  -0.523977  0  2.274801  0
O  O121  1  0.36162440  0.13626052  0.54339847  1  -1.13488  0  -0.297069  -0.523375  0  2.275239  0
O  O122  1  0.81544957  0.38013461  0.46169413  1  -1.133767  0  -0.2971  -0.521041  0  2.279303  0
O  O123  1  0.39307716  0.81249822  0.46775730  1  -1.141454  0  -0.30226  -0.530052  0  2.272333  0
O  O124  1  0.93609866  0.35985085  0.55348051  1  -1.140128  0  -0.295874  -0.520934  0  2.273218  0
O  O125  1  0.34579011  0.93369555  0.53825461  1  -1.142999  0  -0.296657  -0.522647  0  2.270721  0
O  O126  1  0.13939870  0.58786831  0.44975022  1  -1.140351  0  -0.298745  -0.524918  0  2.273724  0
O  O127  1  0.58574224  0.15581885  0.46274904  1  -1.1366  0  -0.300194  -0.526857  0  2.276386  0
O  O128  1  0.13620358  0.69476847  0.55615469  1  -1.130036  0  -0.298955  -0.524172  0  2.272315  0
O  O129  1  0.70025365  0.11974360  0.54835274  1  -1.123784  0  -0.298222  -0.52407  0  2.276398  0
O  O130  1  0.92906574  0.69867287  0.53851374  1  -1.141416  0  -0.298549  -0.524082  0  2.268613  0
O  O131  1  0.69027215  0.92157830  0.55131541  1  -1.145745  0  -0.297887  -0.524219  0  2.275811  0
O  O132  1  0.15072387  0.38841257  0.44949501  1  -1.145032  0  -0.297758  -0.524384  0  2.271861  0
O  O133  1  0.37570465  0.14087034  0.44164070  1  -1.133599  0  -0.300119  -0.527896  0  2.269049  0
