# generated using pymatgen
data_K2CaZrH16(CO3)8
_symmetry_space_group_name_H-M   'P 1'
_cell_length_a   8.77501343
_cell_length_b   9.19693591
_cell_length_c   9.19694691
_cell_angle_alpha   76.84531129
_cell_angle_beta   61.50589095
_cell_angle_gamma   61.50550542
_symmetry_Int_Tables_number   1
_chemical_formula_structural   K2CaZrH16(CO3)8
_chemical_formula_sum   'K2 Ca1 Zr1 H16 C8 O24'
_cell_volume   573.29550436
_cell_formula_units_Z   1
loop_
 _symmetry_equiv_pos_site_id
 _symmetry_equiv_pos_as_xyz
  1  'x, y, z'
loop_
 _atom_site_type_symbol
 _atom_site_label
 _atom_site_symmetry_multiplicity
 _atom_site_fract_x
 _atom_site_fract_y
 _atom_site_fract_z
 _atom_site_occupancy
 _atom_site_hle17_bader_spin_density
 _atom_site_hle17_ddec_charge
 _atom_site_hle17_ddec_spin_density
 _atom_site_hle17_ddec_sum_bond_order
 _atom_site_hle17_magmom
 _atom_site_hse06_10hf_bader_spin_density
 _atom_site_hse06_10hf_ddec_charge
 _atom_site_hse06_10hf_ddec_spin_density
 _atom_site_hse06_10hf_ddec_sum_bond_order
 _atom_site_hse06_10hf_magmom
 _atom_site_hse06_bader_spin_density
 _atom_site_hse06_ddec_charge
 _atom_site_hse06_ddec_spin_density
 _atom_site_hse06_ddec_sum_bond_order
 _atom_site_hse06_magmom
 _atom_site_pbe_bader_spin_density
 _atom_site_pbe_cm5_charge
 _atom_site_pbe_ddec_charge
 _atom_site_pbe_ddec_spin_density
 _atom_site_pbe_ddec_sum_bond_order
 _atom_site_pbe_magmom
K  K0  1  0.49999921  0.99999645  0.00000245  1  0  0.937746  0  0.434441  0  0  0.889326  0  0.608467  0  0  0.905659  0  0.583703  0  0  0.748387  0.87661  0  0.626928  0
K  K1  1  0.75000255  0.49999759  0.49999547  1  0  0.915869  0  0.464824  0  0  0.863537  0  0.6478  0  0  0.879662  0  0.622568  0  0  0.780049  0.851145  0  0.6664  0
Ca  Ca2  1  0.24999691  0.50000160  0.49999990  1  0  1.463248  0  1.174765  0  0  1.315283  0  1.532206  0  0  1.358899  0  1.492077  0  0  0.874957  1.282643  0  1.560496  0
Zr  Zr3  1  0.00000803  0.99999832  0.99999558  1  0  2.30834  0  2.357006  0  0  2.206789  0  2.762886  0  0  2.302464  0  2.708652  0  0  1.616739  2.139937  0  2.798941  0
H  H4  1  0.38167565  0.84360576  0.34633501  1  0  0.409167  0  0.895456  0  0  0.379295  0  0.958691  0  0  0.389872  0  0.943047  0  0  0.294973  0.371822  0  0.969733  0
H  H5  1  0.57161298  0.15639410  0.65367044  1  0  0.40929  0  0.895322  0  0  0.379348  0  0.958646  0  0  0.389924  0  0.943004  0  0  0.294998  0.371875  0  0.969688  0
H  H6  1  0.27199142  0.34633208  0.15639280  1  0  0.409256  0  0.895323  0  0  0.379327  0  0.958634  0  0  0.389901  0  0.942994  0  0  0.294969  0.371855  0  0.969675  0
H  H7  1  0.77471742  0.65366499  0.84360610  1  0  0.409158  0  0.895469  0  0  0.379299  0  0.95869  0  0  0.389873  0  0.94305  0  0  0.294958  0.371826  0  0.969733  0
H  H8  1  0.45360880  0.92429448  0.42172425  1  0  0.429131  0  0.865513  0  0  0.399764  0  0.926213  0  0  0.409857  0  0.91138  0  0  0.288035  0.392605  0  0.936731  0
H  H9  1  0.79962561  0.07570531  0.57828002  1  0  0.429164  0  0.865494  0  0  0.399804  0  0.926178  0  0  0.409896  0  0.911346  0  0  0.288071  0.392647  0  0.936691  0
H  H10  1  0.12466839  0.42172159  0.07570771  1  0  0.429141  0  0.865539  0  0  0.399777  0  0.926228  0  0  0.40987  0  0.911397  0  0  0.288057  0.392619  0  0.936744  0
H  H11  1  0.62209582  0.57827965  0.92429484  1  0  0.429131  0  0.865506  0  0  0.399764  0  0.926207  0  0  0.409857  0  0.911374  0  0  0.28804  0.392605  0  0.936724  0
H  H12  1  0.62951967  0.92257014  0.57544805  1  0  0.426304  0  0.870325  0  0  0.397249  0  0.930828  0  0  0.40743  0  0.915895  0  0  0.287671  0.390043  0  0.941393  0
H  H13  1  0.12753245  0.07743454  0.42455075  1  0  0.426341  0  0.870332  0  0  0.397259  0  0.930866  0  0  0.407438  0  0.915936  0  0  0.287672  0.390053  0  0.941429  0
H  H14  1  0.79503330  0.57544814  0.07743362  1  0  0.426343  0  0.870291  0  0  0.397273  0  0.930815  0  0  0.407453  0  0.915881  0  0  0.287684  0.390067  0  0.941378  0
H  H15  1  0.44791041  0.42455529  0.92256822  1  0  0.426341  0  0.870305  0  0  0.397271  0  0.930827  0  0  0.407452  0  0.915893  0  0  0.287682  0.390066  0  0.94139  0
H  H16  1  0.47373482  0.85214021  0.66205428  1  0  0.410581  0  0.89181  0  0  0.381762  0  0.952898  0  0  0.392445  0  0.936993  0  0  0.293371  0.374155  0  0.964232  0
H  H17  1  0.98792390  0.14786062  0.33794794  1  0  0.410689  0  0.891641  0  0  0.38184  0  0.952789  0  0  0.392524  0  0.936877  0  0  0.293379  0.374233  0  0.964123  0
H  H18  1  0.86421359  0.66205337  0.14786060  1  0  0.410708  0  0.891611  0  0  0.381864  0  0.95275  0  0  0.392548  0  0.93684  0  0  0.293434  0.374257  0  0.964085  0
H  H19  1  0.67412649  0.33794853  0.85213760  1  0  0.410567  0  0.891811  0  0  0.38175  0  0.952899  0  0  0.392431  0  0.936993  0  0  0.293386  0.374143  0  0.964231  0
C  C20  1  0.19861515  0.78153546  0.22448038  1  0  0.561902  0  3.915465  0  0  0.513923  0  4.216903  0  0  0.545228  0  4.207434  0  0  0.228579  0.492594  0  4.222845  0
C  C21  1  0.20462686  0.21846265  0.77552104  1  0  0.561862  0  3.915399  0  0  0.513844  0  4.2169  0  0  0.545148  0  4.207432  0  0  0.228526  0.492516  0  4.222837  0
C  C22  1  0.57690670  0.22447751  0.21846347  1  0  0.561906  0  3.915534  0  0  0.513867  0  4.21699  0  0  0.545176  0  4.20752  0  0  0.228445  0.492542  0  4.222932  0
C  C23  1  0.01985510  0.77551744  0.78153719  1  0  0.561831  0  3.915546  0  0  0.513848  0  4.216985  0  0  0.545153  0  4.207517  0  0  0.228395  0.49252  0  4.222922  0
C  C24  1  0.04398360  0.72646489  0.26172453  1  0  0.560787  0  3.90172  0  0  0.515979  0  4.199759  0  0  0.546612  0  4.190602  0  0  0.229977  0.495049  0  4.205513  0
C  C25  1  0.03216768  0.27353630  0.73827818  1  0  0.560808  0  3.901792  0  0  0.516011  0  4.199831  0  0  0.546645  0  4.190671  0  0  0.229925  0.495084  0  4.205578  0
C  C26  1  0.69429299  0.26172085  0.27353269  1  0  0.560546  0  3.902145  0  0  0.515839  0  4.200028  0  0  0.546455  0  4.190897  0  0  0.229767  0.494911  0  4.205782  0
C  C27  1  0.22955100  0.73828134  0.72646545  1  0  0.560675  0  3.901905  0  0  0.515878  0  4.199935  0  0  0.546513  0  4.190775  0  0  0.229697  0.494947  0  4.205686  0
O  O28  1  0.20651722  0.89539771  0.11536466  1  0  -0.653422  0  2.137256  0  0  -0.61377  0  2.394535  0  0  -0.642993  0  2.387217  0  0  -0.388705  -0.59342  0  2.398854  0
O  O29  1  0.21727993  0.10460018  0.88463545  1  0  -0.653364  0  2.137281  0  0  -0.613701  0  2.39458  0  0  -0.642925  0  2.387263  0  0  -0.388661  -0.593355  0  2.398902  0
O  O30  1  0.67812598  0.11536051  0.10459576  1  0  -0.653338  0  2.137144  0  0  -0.613626  0  2.39436  0  0  -0.642865  0  2.387089  0  0  -0.388637  -0.593279  0  2.398679  0
O  O31  1  0.89808349  0.88463757  0.89539735  1  0  -0.653351  0  2.137236  0  0  -0.613678  0  2.394493  0  0  -0.642905  0  2.387194  0  0  -0.388677  -0.593331  0  2.398812  0
O  O32  1  0.94229319  0.80655540  0.17916476  1  0  -0.66911  0  2.103296  0  0  -0.621114  0  2.344912  0  0  -0.652501  0  2.337932  0  0  -0.349062  -0.599263  0  2.349057  0
O  O33  1  0.92801095  0.19344826  0.82083709  1  0  -0.669115  0  2.103476  0  0  -0.62113  0  2.345074  0  0  -0.652513  0  2.33809  0  0  -0.349024  -0.599285  0  2.349219  0
O  O34  1  0.87854729  0.17916071  0.19344238  1  0  -0.669031  0  2.103622  0  0  -0.621073  0  2.345187  0  0  -0.652453  0  2.338211  0  0  -0.349226  -0.599231  0  2.34934  0
O  O35  1  0.25115119  0.82083452  0.80655372  1  0  -0.669109  0  2.103753  0  0  -0.621109  0  2.345332  0  0  -0.652493  0  2.338345  0  0  -0.349091  -0.599263  0  2.349481  0
O  O36  1  0.30115332  0.71461348  0.30125129  1  0  -0.585756  0  2.039485  0  0  -0.52772  0  2.266504  0  0  -0.553019  0  2.258572  0  0  -0.307152  -0.509955  0  2.271522  0
O  O37  1  0.31701453  0.28538765  0.69874929  1  0  -0.585778  0  2.039322  0  0  -0.527702  0  2.266345  0  0  -0.553003  0  2.258416  0  0  -0.307124  -0.509937  0  2.27136  0
O  O38  1  0.39759905  0.30124852  0.28538764  1  0  -0.585776  0  2.039499  0  0  -0.527714  0  2.266521  0  0  -0.55301  0  2.258593  0  0  -0.307343  -0.509952  0  2.271539  0
O  O39  1  0.98423009  0.69874837  0.71461489  1  0  -0.585717  0  2.039469  0  0  -0.527693  0  2.266499  0  0  -0.552995  0  2.25857  0  0  -0.307242  -0.509927  0  2.271515  0
O  O40  1  0.02782781  0.61361759  0.36285183  1  0  -0.575725  0  2.03811  0  0  -0.526935  0  2.272546  0  0  -0.550293  0  2.265111  0  0  -0.350339  -0.510471  0  2.277288  0
O  O41  1  0.00429396  0.38638548  0.63714734  1  0  -0.575739  0  2.03799  0  0  -0.526957  0  2.272444  0  0  -0.550318  0  2.265011  0  0  -0.350334  -0.510494  0  2.277181  0
O  O42  1  0.60931991  0.36285101  0.38638578  1  0  -0.575566  0  2.038028  0  0  -0.526857  0  2.272513  0  0  -0.550212  0  2.265093  0  0  -0.350279  -0.510389  0  2.277241  0
O  O43  1  0.35856669  0.63714078  0.61361219  1  0  -0.575661  0  2.037816  0  0  -0.526921  0  2.272339  0  0  -0.550285  0  2.264906  0  0  -0.350372  -0.510456  0  2.277077  0
O  O44  1  0.37901241  0.94879615  0.35794075  1  0  -0.863931  0  1.802109  0  0  -0.81261  0  1.954609  0  0  -0.831416  0  1.923883  0  0  -0.617219  -0.799222  0  1.976128  0
O  O45  1  0.68574779  0.05120679  0.64206056  1  0  -0.864047  0  1.80198  0  0  -0.812665  0  1.954587  0  0  -0.831474  0  1.92386  0  0  -0.617261  -0.799278  0  1.976105  0
O  O46  1  0.26304553  0.35793982  0.05120670  1  0  -0.86401  0  1.802016  0  0  -0.812644  0  1.954609  0  0  -0.831451  0  1.923882  0  0  -0.617261  -0.799256  0  1.976127  0
O  O47  1  0.67219344  0.64205767  0.94879634  1  0  -0.863911  0  1.802132  0  0  -0.812605  0  1.95461  0  0  -0.831413  0  1.923884  0  0  -0.617254  -0.799217  0  1.976129  0
O  O48  1  0.57456332  0.86098292  0.55428326  1  0  -0.856263  0  1.793561  0  0  -0.804563  0  1.943804  0  0  -0.822889  0  1.912785  0  0  -0.614886  -0.791523  0  1.965573  0
O  O49  1  0.98982483  0.13902654  0.44571485  1  0  -0.856405  0  1.793445  0  0  -0.804684  0  1.943781  0  0  -0.82301  0  1.912759  0  0  -0.614898  -0.791645  0  1.965544  0
O  O50  1  0.87114465  0.55428585  0.13902611  1  0  -0.856429  0  1.793369  0  0  -0.804719  0  1.943665  0  0  -0.823044  0  1.912642  0  0  -0.614925  -0.791682  0  1.965435  0
O  O51  1  0.56445500  0.44571776  0.86097993  1  0  -0.856276  0  1.793554  0  0  -0.80458  0  1.943837  0  0  -0.822904  0  1.912818  0  0  -0.614851  -0.791541  0  1.965605  0
