# generated using pymatgen
data_CoHC5O4
_symmetry_space_group_name_H-M   'P 1'
_cell_length_a   7.36152502
_cell_length_b   8.14158642
_cell_length_c   9.06379029
_cell_angle_alpha   89.63882180
_cell_angle_beta   113.97560474
_cell_angle_gamma   89.97870650
_symmetry_Int_Tables_number   1
_chemical_formula_structural   CoHC5O4
_chemical_formula_sum   'Co4 H4 C20 O16'
_cell_volume   496.35026208
_cell_formula_units_Z   4
loop_
 _symmetry_equiv_pos_site_id
 _symmetry_equiv_pos_as_xyz
  1  'x, y, z'
loop_
 _atom_site_type_symbol
 _atom_site_label
 _atom_site_symmetry_multiplicity
 _atom_site_fract_x
 _atom_site_fract_y
 _atom_site_fract_z
 _atom_site_occupancy
 _atom_site_pbe_cm5_charge
 _atom_site_pbe_ddec_charge
 _atom_site_pbe_ddec_spin_density
 _atom_site_pbe_ddec_sum_bond_order
 _atom_site_pbe_magmom
Co  Co0  1  0.11886252  0.06124267  0.38467581  1  0.671332  0.965334  2.79149  2.420167  2.539
Co  Co1  1  0.73414870  0.43885111  0.61518705  1  0.670476  0.963716  2.793818  2.419349  2.539
Co  Co2  1  0.88113917  0.93875691  0.61532696  1  0.671337  0.96531  2.791427  2.420223  2.54
Co  Co3  1  0.26585151  0.56115097  0.38481082  1  0.670491  0.963795  2.793711  2.419334  2.54
H  H4  1  0.74358958  0.74996250  0.00019832  1  0.114953  0.128233  0.000253  1.006381  0.0
H  H5  1  0.25641360  0.25003830  0.99980495  1  0.114955  0.128207  0.000253  1.006396  0.0
H  H6  1  0.06962130  0.74994510  0.00016191  1  0.119327  0.131967  0.000122  0.978828  0.0
H  H7  1  0.93038040  0.25005575  0.99983645  1  0.119313  0.131938  0.000122  0.978866  0.0
C  C8  1  0.32469604  0.89037219  0.25926913  1  0.231018  0.615702  0.001225  4.12937  0.0
C  C9  1  0.06547171  0.60950383  0.74097361  1  0.230602  0.614446  0.00119  4.129653  0.0
C  C10  1  0.67530715  0.10962986  0.74073083  1  0.231034  0.6158  0.001224  4.129275  0.0
C  C11  1  0.93452850  0.39049456  0.25902426  1  0.230586  0.61445  0.001188  4.129553  0.0
C  C12  1  0.37593950  0.81979132  0.12898918  1  0.006243  -0.019484  -0.002366  3.928998  0.0
C  C13  1  0.24706258  0.68005354  0.87135550  1  0.007181  -0.018056  -0.002329  3.928129  0.0
C  C14  1  0.62406220  0.18021074  0.87101029  1  0.006204  -0.019543  -0.002367  3.929012  0.0
C  C15  1  0.75293911  0.31994603  0.12864727  1  0.007155  -0.01808  -0.00233  3.928102  0.0
C  C16  1  0.56660357  0.82277996  0.12813858  1  -0.007027  -0.054508  0.008129  3.925959  0.011
C  C17  1  0.43861522  0.67710184  0.87220591  1  -0.007418  -0.056574  0.008129  3.926067  0.011
C  C18  1  0.43339813  0.17722331  0.87186309  1  -0.007015  -0.054516  0.008129  3.925981  0.011
C  C19  1  0.56138498  0.32289773  0.12779747  1  -0.007419  -0.056551  0.008129  3.926127  0.011
C  C20  1  0.73461077  0.90050423  0.26346825  1  0.231388  0.606155  0.001067  4.142179  0.001
C  C21  1  0.47123451  0.59952840  0.73672925  1  0.230937  0.606873  0.001069  4.14275  0.001
C  C22  1  0.26538943  0.09949413  0.73653293  1  0.231411  0.60616  0.001068  4.14224  0.001
C  C23  1  0.52876272  0.40046874  0.26327094  1  0.230955  0.606869  0.001068  4.142804  0.001
C  C24  1  0.59608478  0.74991464  0.00019943  1  -0.060915  -0.068648  -0.002658  3.893859  -0.001
C  C25  1  0.40391692  0.25008741  0.99980114  1  -0.060913  -0.068616  -0.002658  3.893936  -0.001
C  C26  1  0.21783704  0.74988933  0.00019853  1  -0.073041  -0.123492  0.004756  3.926701  0.006
C  C27  1  0.78216465  0.25011271  0.99980314  1  -0.072983  -0.123442  0.004756  3.926632  0.006
O  O28  1  0.27680338  0.04133859  0.25128687  1  -0.28673  -0.485624  0.053877  2.259973  0.087
O  O29  1  0.02565019  0.45852917  0.74882813  1  -0.286424  -0.484556  0.05385  2.2594  0.087
O  O30  1  0.72319831  0.95865978  0.74871369  1  -0.286737  -0.485643  0.05388  2.259895  0.087
O  O31  1  0.97435300  0.54146924  0.25116852  1  -0.286426  -0.484579  0.053851  2.259363  0.087
O  O32  1  0.30494396  0.79652598  0.36527964  1  -0.297511  -0.557231  0.054142  2.441088  0.084
O  O33  1  0.93972366  0.70336781  0.63488646  1  -0.297682  -0.557276  0.054189  2.442241  0.084
O  O34  1  0.69505922  0.20347484  0.63472142  1  -0.297513  -0.557255  0.054141  2.441086  0.084
O  O35  1  0.06027952  0.29663302  0.36511350  1  -0.297669  -0.55728  0.05419  2.44215  0.084
O  O36  1  0.89395108  0.93175961  0.24548977  1  -0.300433  -0.55352  0.044792  2.457786  0.068
O  O37  1  0.64858271  0.56842324  0.75456316  1  -0.299858  -0.553139  0.044791  2.457191  0.068
O  O38  1  0.10604764  0.06824367  0.75451092  1  -0.300464  -0.553525  0.044792  2.457853  0.068
O  O39  1  0.35141304  0.43157759  0.24543654  1  -0.299919  -0.553196  0.044794  2.457196  0.068
O  O40  1  0.70590230  0.93317652  0.39006712  1  -0.298452  -0.550308  0.045258  2.474385  0.068
O  O41  1  0.31585616  0.56684248  0.61014539  1  -0.297962  -0.550019  0.045289  2.474844  0.068
O  O42  1  0.29409790  0.06682182  0.60993626  1  -0.298438  -0.550298  0.045258  2.474498  0.068
O  O43  1  0.68413958  0.43315589  0.38985431  1  -0.29795  -0.549993  0.045292  2.474887  0.068
