# generated using pymatgen
data_Hg2H27C15S2NCl2
_symmetry_space_group_name_H-M   'P 1'
_cell_length_a   9.95613463
_cell_length_b   9.95615789
_cell_length_c   11.91438629
_cell_angle_alpha   78.45997368
_cell_angle_beta   78.45978147
_cell_angle_gamma   68.51239680
_symmetry_Int_Tables_number   1
_chemical_formula_structural   Hg2H27C15S2NCl2
_chemical_formula_sum   'Hg4 H54 C30 S4 N2 Cl4'
_cell_volume   1066.25212581
_cell_formula_units_Z   2
loop_
 _symmetry_equiv_pos_site_id
 _symmetry_equiv_pos_as_xyz
  1  'x, y, z'
loop_
 _atom_site_type_symbol
 _atom_site_label
 _atom_site_symmetry_multiplicity
 _atom_site_fract_x
 _atom_site_fract_y
 _atom_site_fract_z
 _atom_site_occupancy
 _atom_site_hle17_bader_spin_density
 _atom_site_hle17_ddec_charge
 _atom_site_hle17_ddec_spin_density
 _atom_site_hle17_ddec_sum_bond_order
 _atom_site_hle17_magmom
 _atom_site_hse06_10hf_bader_spin_density
 _atom_site_hse06_10hf_ddec_charge
 _atom_site_hse06_10hf_ddec_spin_density
 _atom_site_hse06_10hf_ddec_sum_bond_order
 _atom_site_hse06_10hf_magmom
 _atom_site_hse06_bader_spin_density
 _atom_site_hse06_ddec_charge
 _atom_site_hse06_ddec_spin_density
 _atom_site_hse06_ddec_sum_bond_order
 _atom_site_hse06_magmom
 _atom_site_pbe_bader_spin_density
 _atom_site_pbe_cm5_charge
 _atom_site_pbe_ddec_charge
 _atom_site_pbe_ddec_spin_density
 _atom_site_pbe_ddec_sum_bond_order
 _atom_site_pbe_magmom
Hg  Hg0  1  0.00262460  0.99737504  0.99999954  1  0  0.571085  0  2.084763  0  0  0.430126  0  2.553775  0  0  0.468993  0  2.532036  0  0  0.466765  0.404186  0  2.567471  0
Hg  Hg1  1  0.96483051  0.20053050  0.71918528  1  0  0.537868  0  2.278066  0  0  0.411742  0  2.778458  0  0  0.448594  0  2.754212  0  0  0.408016  0.390707  0  2.789532  0
Hg  Hg2  1  0.79947002  0.03516830  0.28081308  1  0  0.537868  0  2.278063  0  0  0.411747  0  2.778454  0  0  0.448597  0  2.754204  0  0  0.40803  0.390705  0  2.789525  0
Hg  Hg3  1  0.02337372  0.97662237  0.50000205  1  0  0.571496  0  2.085589  0  0  0.428889  0  2.553472  0  0  0.469358  0  2.532353  0  0  0.465661  0.400959  0  2.566802  0
H  H4  1  0.26640812  0.81926162  0.82190463  1  0  0.069328  0  0.960155  0  0  0.076399  0  1.031184  0  0  0.078638  0  1.02881  0  0  0.103882  0.074654  0  1.032828  0
H  H5  1  0.18073585  0.73359594  0.17809573  1  0  0.069284  0  0.960159  0  0  0.076354  0  1.031194  0  0  0.078593  0  1.02882  0  0  0.103853  0.074609  0  1.032838  0
H  H6  1  0.49570755  0.59833863  0.81460312  1  0  0.108189  0  0.960117  0  0  0.11669  0  1.021046  0  0  0.119752  0  1.020662  0  0  0.103608  0.114473  0  1.021614  0
H  H7  1  0.40165861  0.50429836  0.18539980  1  0  0.108155  0  0.960152  0  0  0.11666  0  1.021092  0  0  0.119721  0  1.020706  0  0  0.103598  0.114436  0  1.021666  0
H  H8  1  0.56224670  0.43775408  0.00000255  1  0  0.095802  0  0.949885  0  0  0.103561  0  1.017197  0  0  0.106331  0  1.014713  0  0  0.105236  0.1013  0  1.019559  0
H  H9  1  0.17990108  0.70311398  0.67456885  1  0  0.079578  0  0.980483  0  0  0.086692  0  1.049978  0  0  0.088999  0  1.048033  0  0  0.1028  0.084983  0  1.051237  0
H  H10  1  0.29688104  0.82010027  0.32543319  1  0  0.079578  0  0.980454  0  0  0.086696  0  1.049947  0  0  0.089  0  1.048013  0  0  0.102802  0.084985  0  1.051202  0
H  H11  1  0.40294261  0.47619113  0.68217578  1  0  0.109138  0  0.957036  0  0  0.11884  0  1.016216  0  0  0.121638  0  1.016138  0  0  0.105898  0.11707  0  1.016212  0
H  H12  1  0.52380771  0.59706171  0.31782123  1  0  0.109084  0  0.957035  0  0  0.118797  0  1.016204  0  0  0.121593  0  1.016131  0  0  0.105877  0.117031  0  1.016203  0
H  H13  1  0.57741240  0.42259135  0.49999842  1  0  0.099562  0  0.945761  0  0  0.10966  0  1.009111  0  0  0.111991  0  1.007547  0  0  0.107127  0.107873  0  1.010433  0
H  H14  1  0.82375735  0.36127786  0.94094720  1  0  0.087022  0  0.962324  0  0  0.099845  0  1.032196  0  0  0.100247  0  1.03272  0  0  0.084994  0.099185  0  1.032327  0
H  H15  1  0.63872084  0.17624200  0.05905172  1  0  0.087061  0  0.962318  0  0  0.099868  0  1.0322  0  0  0.100272  0  1.032723  0  0  0.085001  0.099207  0  1.032331  0
H  H16  1  0.93479925  0.33798104  0.04849919  1  0  0.098676  0  0.937688  0  0  0.112917  0  1.002811  0  0  0.113853  0  1.002641  0  0  0.091932  0.112313  0  1.002937  0
H  H17  1  0.66201822  0.06519928  0.95150046  1  0  0.09867  0  0.937694  0  0  0.112901  0  1.002829  0  0  0.113838  0  1.002661  0  0  0.09192  0.112297  0  1.002955  0
H  H18  1  0.88231193  0.29964905  0.38575770  1  0  0.092986  0  0.962163  0  0  0.105042  0  1.032571  0  0  0.105526  0  1.033162  0  0  0.084384  0.104588  0  1.032562  0
H  H19  1  0.70034997  0.11768774  0.61424265  1  0  0.092989  0  0.962153  0  0  0.105046  0  1.03257  0  0  0.105528  0  1.033153  0  0  0.084384  0.104593  0  1.032559  0
H  H20  1  0.83314683  0.39082352  0.51011388  1  0  0.087214  0  0.957869  0  0  0.10214  0  1.022892  0  0  0.102851  0  1.022862  0  0  0.085112  0.101361  0  1.023234  0
H  H21  1  0.60917706  0.16685283  0.48988637  1  0  0.087231  0  0.957857  0  0  0.10216  0  1.022883  0  0  0.102868  0  1.02285  0  0  0.085118  0.10138  0  1.023224  0
H  H22  1  0.94288824  0.65296520  0.74111887  1  0  0.105584  0  0.969074  0  0  0.124581  0  1.035703  0  0  0.126151  0  1.035937  0  0  0.078592  0.124853  0  1.033013  0
H  H23  1  0.34703160  0.05711243  0.25888204  1  0  0.105563  0  0.969104  0  0  0.124565  0  1.035729  0  0  0.126132  0  1.035967  0  0  0.07858  0.124837  0  1.033039  0
H  H24  1  0.84051461  0.53503679  0.75433516  1  0  0.095548  0  0.973447  0  0  0.113713  0  1.040619  0  0  0.115306  0  1.040156  0  0  0.073907  0.112388  0  1.041174  0
H  H25  1  0.46496237  0.15948687  0.24566603  1  0  0.095542  0  0.97342  0  0  0.113699  0  1.040607  0  0  0.115293  0  1.040143  0  0  0.073906  0.112377  0  1.041157  0
H  H26  1  0.03456408  0.46664280  0.72367415  1  0  0.084325  0  0.974427  0  0  0.104057  0  1.042175  0  0  0.105057  0  1.04245  0  0  0.07123  0.103572  0  1.04129  0
H  H27  1  0.53335772  0.96543645  0.27632616  1  0  0.08433  0  0.974414  0  0  0.10406  0  1.042164  0  0  0.105061  0  1.042436  0  0  0.07124  0.103575  0  1.041279  0
H  H28  1  0.83730077  0.73089991  0.93323993  1  0  0.104476  0  0.971201  0  0  0.122048  0  1.039116  0  0  0.123039  0  1.039977  0  0  0.077809  0.121312  0  1.038109  0
H  H29  1  0.26909961  0.16269900  0.06675836  1  0  0.104466  0  0.971216  0  0  0.122037  0  1.039131  0  0  0.123027  0  1.039992  0  0  0.077804  0.121301  0  1.038124  0
H  H30  1  0.83073954  0.60193452  0.05930704  1  0  0.095856  0  0.964908  0  0  0.115119  0  1.031476  0  0  0.116397  0  1.031792  0  0  0.081235  0.114268  0  1.030946  0
H  H31  1  0.39806421  0.16925977  0.94069383  1  0  0.095802  0  0.964927  0  0  0.115056  0  1.031511  0  0  0.116333  0  1.031828  0  0  0.081209  0.114207  0  1.03098  0
H  H32  1  0.72067408  0.62681249  0.95099723  1  0  0.094762  0  0.962129  0  0  0.117646  0  1.021407  0  0  0.118013  0  1.023454  0  0  0.081199  0.116635  0  1.02146  0
H  H33  1  0.37318468  0.27932632  0.04900137  1  0  0.094766  0  0.962135  0  0  0.117651  0  1.021392  0  0  0.118018  0  1.023439  0  0  0.081208  0.11664  0  1.021445  0
H  H34  1  0.10880112  0.61381439  0.89158666  1  0  0.096511  0  0.980898  0  0  0.115774  0  1.048105  0  0  0.116356  0  1.049929  0  0  0.076462  0.11515  0  1.047038  0
H  H35  1  0.38618314  0.89119932  0.10841425  1  0  0.096514  0  0.980907  0  0  0.11579  0  1.048098  0  0  0.116374  0  1.049919  0  0  0.076469  0.115163  0  1.047039  0
H  H36  1  0.19024228  0.42474260  0.87902577  1  0  0.096884  0  0.960124  0  0  0.118963  0  1.020006  0  0  0.120274  0  1.020358  0  0  0.079043  0.117686  0  1.020802  0
H  H37  1  0.57525699  0.80975975  0.12097420  1  0  0.096905  0  0.960148  0  0  0.118982  0  1.020025  0  0  0.120294  0  1.020375  0  0  0.079047  0.117705  0  1.020821  0
H  H38  1  0.10979949  0.48131302  0.01637279  1  0  0.098097  0  0.963345  0  0  0.120749  0  1.025126  0  0  0.121619  0  1.0264  0  0  0.083774  0.120065  0  1.024366  0
H  H39  1  0.51868636  0.89020033  0.98362775  1  0  0.09808  0  0.963354  0  0  0.120732  0  1.025134  0  0  0.121594  0  1.026416  0  0  0.083758  0.12005  0  1.024371  0
H  H40  1  0.05204032  0.35350955  0.21832515  1  0  0.104904  0  0.95281  0  0  0.125225  0  1.016621  0  0  0.126535  0  1.016766  0  0  0.082741  0.124282  0  1.016517  0
H  H41  1  0.64649077  0.94795871  0.78167361  1  0  0.104904  0  0.95276  0  0  0.125222  0  1.016585  0  0  0.126532  0  1.016731  0  0  0.082744  0.124279  0  1.016482  0
H  H42  1  0.19035927  0.32758264  0.30193456  1  0  0.101129  0  0.961875  0  0  0.121672  0  1.023742  0  0  0.123107  0  1.023789  0  0  0.080379  0.120337  0  1.024324  0
H  H43  1  0.67241970  0.80964047  0.69806186  1  0  0.101119  0  0.961857  0  0  0.121672  0  1.023716  0  0  0.123109  0  1.023762  0  0  0.080403  0.120337  0  1.024298  0
H  H44  1  0.12353826  0.49552837  0.21117332  1  0  0.086398  0  0.982956  0  0  0.108044  0  1.04736  0  0  0.108757  0  1.048598  0  0  0.079191  0.107741  0  1.046205  0
H  H45  1  0.50447176  0.87646095  0.78882553  1  0  0.08642  0  0.982945  0  0  0.108064  0  1.047351  0  0  0.108778  0  1.048588  0  0  0.079199  0.107761  0  1.046196  0
H  H46  1  0.06778894  0.62901062  0.38959736  1  0  0.091698  0  0.957177  0  0  0.112781  0  1.022554  0  0  0.113548  0  1.023544  0  0  0.077326  0.112232  0  1.021556  0
H  H47  1  0.37098818  0.93221265  0.61040153  1  0  0.091709  0  0.957176  0  0  0.112797  0  1.022541  0  0  0.113565  0  1.02353  0  0  0.077331  0.112248  0  1.021542  0
H  H48  1  0.13034661  0.45976047  0.47952538  1  0  0.0938  0  0.964396  0  0  0.112391  0  1.029967  0  0  0.113931  0  1.030199  0  0  0.076229  0.11136  0  1.029725  0
H  H49  1  0.54023864  0.86965647  0.52047293  1  0  0.093823  0  0.9644  0  0  0.11241  0  1.029973  0  0  0.113949  0  1.030205  0  0  0.076238  0.111379  0  1.029732  0
H  H50  1  0.95147449  0.58470903  0.51377670  1  0  0.100908  0  0.956989  0  0  0.123685  0  1.017205  0  0  0.124453  0  1.018471  0  0  0.081532  0.122606  0  1.017188  0
H  H51  1  0.41528939  0.04852775  0.48622274  1  0  0.10092  0  0.957017  0  0  0.123677  0  1.017254  0  0  0.124446  0  1.01852  0  0  0.081548  0.1226  0  1.017238  0
H  H52  1  0.79358039  0.53726529  0.26876539  1  0  0.102483  0  0.964002  0  0  0.120219  0  1.031009  0  0  0.121869  0  1.030681  0  0  0.081243  0.119252  0  1.030955  0
H  H53  1  0.46273422  0.20641838  0.73123710  1  0  0.102448  0  0.964058  0  0  0.120184  0  1.031068  0  0  0.121831  0  1.030743  0  0  0.081234  0.119218  0  1.031012  0
H  H54  1  0.87254691  0.67327712  0.26120698  1  0  0.09006  0  0.989162  0  0  0.106604  0  1.062319  0  0  0.107668  0  1.062844  0  0  0.072564  0.106324  0  1.061157  0
H  H55  1  0.32672297  0.12745202  0.73879460  1  0  0.09004  0  0.989148  0  0  0.106587  0  1.062307  0  0  0.107652  0  1.062832  0  0  0.072553  0.106306  0  1.061145  0
H  H56  1  0.75708611  0.63475067  0.38815500  1  0  0.094826  0  0.95602  0  0  0.11538  0  1.018737  0  0  0.116405  0  1.019662  0  0  0.079893  0.114327  0  1.018845  0
H  H57  1  0.36524892  0.24291259  0.61184764  1  0  0.094837  0  0.956072  0  0  0.115387  0  1.018789  0  0  0.116414  0  1.019711  0  0  0.079888  0.114331  0  1.0189  0
C  C58  1  0.92982559  0.36014353  0.95497754  1  0  -0.165914  0  3.570968  0  0  -0.208117  0  3.814148  0  0  -0.205575  0  3.827658  0  0  -0.152934  -0.209332  0  3.804749  0
C  C59  1  0.63985652  0.07017446  0.04502174  1  0  -0.165936  0  3.570958  0  0  -0.2081  0  3.814094  0  0  -0.205566  0  3.827612  0  0  -0.152906  -0.209316  0  3.804697  0
C  C60  1  0.92209829  0.34837795  0.44139885  1  0  -0.161373  0  3.556875  0  0  -0.201859  0  3.794439  0  0  -0.199167  0  3.807925  0  0  -0.155631  -0.20355  0  3.785463  0
C  C61  1  0.65162479  0.07790030  0.55859939  1  0  -0.161452  0  3.556954  0  0  -0.201922  0  3.79447  0  0  -0.199208  0  3.807925  0  0  -0.155661  -0.203609  0  3.785488  0
C  C62  1  0.30254488  0.74733949  0.90025108  1  0  0.113661  0  3.721836  0  0  0.083565  0  3.969358  0  0  0.090519  0  3.988411  0  0  0.044951  0.079282  0  3.956301  0
C  C63  1  0.25266017  0.69745641  0.09975094  1  0  0.113724  0  3.721739  0  0  0.083626  0  3.969268  0  0  0.09058  0  3.988318  0  0  0.044968  0.079343  0  3.956209  0
C  C64  1  0.42795750  0.62440985  0.89667722  1  0  -0.116841  0  3.724578  0  0  -0.12554  0  3.966342  0  0  -0.13307  0  3.988427  0  0  -0.079864  -0.121149  0  3.952983  0
C  C65  1  0.37558901  0.57204448  0.10332368  1  0  -0.116791  0  3.72461  0  0  -0.125496  0  3.966363  0  0  -0.133029  0  3.98845  0  0  -0.079834  -0.121099  0  3.953004  0
C  C66  1  0.46496370  0.53503984  0.00000052  1  0  0.008752  0  3.701627  0  0  -0.00865  0  3.944052  0  0  -0.004579  0  3.96241  0  0  -0.056395  -0.011754  0  3.934146  0
C  C67  1  0.25966680  0.67406816  0.59809452  1  0  0.110705  0  3.696875  0  0  0.082009  0  3.936989  0  0  0.088609  0  3.957094  0  0  0.042668  0.077813  0  3.923436  0
C  C68  1  0.32592954  0.74033529  0.40190933  1  0  0.11072  0  3.696661  0  0  0.082024  0  3.936784  0  0  0.088622  0  3.956885  0  0  0.042673  0.077833  0  3.923226  0
C  C69  1  0.38300187  0.54919151  0.60137074  1  0  -0.117959  0  3.732901  0  0  -0.126683  0  3.975376  0  0  -0.134255  0  3.997732  0  0  -0.07952  -0.121805  0  3.960136  0
C  C70  1  0.45080938  0.61700159  0.39862785  1  0  -0.117937  0  3.732771  0  0  -0.126677  0  3.975281  0  0  -0.134247  0  3.997634  0  0  -0.079528  -0.121806  0  3.960046  0
C  C71  1  0.48018459  0.51981854  0.49999948  1  0  0.005586  0  3.705515  0  0  -0.015718  0  3.952294  0  0  -0.01144  0  3.970435  0  0  -0.059029  -0.018067  0  3.939909  0
C  C72  1  0.95158191  0.50659253  0.90295675  1  0  0.251577  0  3.580466  0  0  0.294778  0  3.798799  0  0  0.295006  0  3.819378  0  0  -0.023069  0.29446  0  3.784816  0
C  C73  1  0.49340669  0.04841883  0.09704355  1  0  0.251609  0  3.580411  0  0  0.2948  0  3.798737  0  0  0.295031  0  3.819317  0  0  -0.023055  0.294483  0  3.784754  0
C  C74  1  0.94159352  0.54183499  0.77285940  1  0  -0.355966  0  3.669605  0  0  -0.43065  0  3.896795  0  0  -0.434174  0  3.907938  0  0  -0.257657  -0.428019  0  3.886918  0
C  C75  1  0.45816353  0.05840724  0.22714023  1  0  -0.355953  0  3.669582  0  0  -0.430632  0  3.896774  0  0  -0.434155  0  3.907916  0  0  -0.257665  -0.428004  0  3.886895  0
C  C76  1  0.82750632  0.62316130  0.96562203  1  0  -0.339965  0  3.649215  0  0  -0.414875  0  3.878849  0  0  -0.418535  0  3.890879  0  0  -0.246766  -0.412284  0  3.870964  0
C  C77  1  0.37683811  0.17249376  0.03437863  1  0  -0.339937  0  3.649167  0  0  -0.414836  0  3.878834  0  0  -0.418495  0  3.890862  0  0  -0.246768  -0.412244  0  3.870944  0
C  C78  1  0.09878168  0.50615558  0.92386666  1  0  -0.342786  0  3.645798  0  0  -0.419969  0  3.871934  0  0  -0.423443  0  3.883813  0  0  -0.25273  -0.417269  0  3.864581  0
C  C79  1  0.49384339  0.90121786  0.07613405  1  0  -0.342819  0  3.645768  0  0  -0.42001  0  3.87191  0  0  -0.42348  0  3.883791  0  0  -0.252748  -0.417315  0  3.864556  0
C  C80  1  0.97489896  0.47026537  0.36835102  1  0  0.247667  0  3.589671  0  0  0.291795  0  3.807708  0  0  0.291994  0  3.828379  0  0  -0.023662  0.291547  0  3.79371  0
C  C81  1  0.52973473  0.02510279  0.63164889  1  0  0.247685  0  3.589593  0  0  0.291826  0  3.807609  0  0  0.292019  0  3.828281  0  0  -0.023666  0.291577  0  3.793611  0
C  C82  1  0.09196179  0.40822706  0.26916565  1  0  -0.341378  0  3.650509  0  0  -0.417958  0  3.876924  0  0  -0.421031  0  3.887817  0  0  -0.249764  -0.41538  0  3.869266  0
C  C83  1  0.59177343  0.90803736  0.73083308  1  0  -0.341381  0  3.650405  0  0  -0.417976  0  3.876847  0  0  -0.421051  0  3.887736  0  0  -0.249787  -0.415399  0  3.869188  0
C  C84  1  0.03444567  0.53944791  0.44239856  1  0  -0.340221  0  3.658818  0  0  -0.417149  0  3.887507  0  0  -0.420695  0  3.899515  0  0  -0.250975  -0.414549  0  3.879279  0
C  C85  1  0.46055081  0.96555715  0.55760007  1  0  -0.340287  0  3.658845  0  0  -0.417208  0  3.887545  0  0  -0.420755  0  3.899555  0  0  -0.251023  -0.414612  0  3.879321  0
C  C86  1  0.84134823  0.58549811  0.31887382  1  0  -0.346753  0  3.662199  0  0  -0.422086  0  3.893919  0  0  -0.426082  0  3.905932  0  0  -0.24994  -0.419628  0  3.885701  0
C  C87  1  0.41450315  0.15865179  0.68112816  1  0  -0.346716  0  3.662328  0  0  -0.422049  0  3.894027  0  0  -0.426046  0  3.906044  0  0  -0.249914  -0.419588  0  3.885811  0
S  S88  1  0.07164407  0.20509351  0.89195866  1  0  -0.191957  0  2.413646  0  0  -0.112434  0  2.811535  0  0  -0.134858  0  2.811031  0  0  -0.104737  -0.100328  0  2.811089  0
S  S89  1  0.79490633  0.92835546  0.10803990  1  0  -0.191937  0  2.413681  0  0  -0.112418  0  2.811561  0  0  -0.134838  0  2.811056  0  0  -0.104723  -0.100311  0  2.811114  0
S  S90  1  0.07058386  0.20264083  0.51042236  1  0  -0.208651  0  2.369907  0  0  -0.134535  0  2.770847  0  0  -0.157432  0  2.770361  0  0  -0.116058  -0.120231  0  2.770731  0
S  S91  1  0.79735525  0.92941818  0.48957809  1  0  -0.208604  0  2.369962  0  0  -0.134493  0  2.770918  0  0  -0.157396  0  2.770423  0  0  -0.116042  -0.120188  0  2.770797  0
N  N92  1  0.21687545  0.78312441  0.00000060  1  0  -0.283185  0  3.281221  0  0  -0.200757  0  3.539847  0  0  -0.220816  0  3.5619  0  0  -0.312715  -0.187224  0  3.52377  0
N  N93  1  0.23250300  0.76749655  0.50000290  1  0  -0.272991  0  3.299551  0  0  -0.184481  0  3.554339  0  0  -0.205543  0  3.577617  0  0  -0.308736  -0.170186  0  3.538064  0
Cl  Cl94  1  0.98166194  0.91587992  0.76620653  1  0  -0.560429  0  0.938006  0  0  -0.503586  0  1.220998  0  0  -0.520935  0  1.201614  0  0  -0.315777  -0.490186  0  1.230837  0
Cl  Cl95  1  0.08411971  0.01833766  0.23379182  1  0  -0.560421  0  0.937995  0  0  -0.503577  0  1.220985  0  0  -0.520928  0  1.201605  0  0  -0.315777  -0.490175  0  1.230822  0
Cl  Cl96  1  0.69195957  0.33154859  0.74991351  1  0  -0.539726  0  0.856406  0  0  -0.476987  0  1.101942  0  0  -0.492615  0  1.086345  0  0  -0.317453  -0.466669  0  1.112039  0
Cl  Cl97  1  0.66845095  0.30803945  0.25008713  1  0  -0.539721  0  0.856382  0  0  -0.476989  0  1.101921  0  0  -0.492613  0  1.086324  0  0  -0.317456  -0.466664  0  1.11201  0
