# generated using pymatgen
data_ZnH14C8N2O7
_symmetry_space_group_name_H-M   'P 1'
_cell_length_a   6.59509294
_cell_length_b   11.18436193
_cell_length_c   16.25425918
_cell_angle_alpha   106.91601753
_cell_angle_beta   90.00199806
_cell_angle_gamma   89.99912609
_symmetry_Int_Tables_number   1
_chemical_formula_structural   ZnH14C8N2O7
_chemical_formula_sum   'Zn4 H56 C32 N8 O28'
_cell_volume   1147.06951901
_cell_formula_units_Z   4
loop_
 _symmetry_equiv_pos_site_id
 _symmetry_equiv_pos_as_xyz
  1  'x, y, z'
loop_
 _atom_site_type_symbol
 _atom_site_label
 _atom_site_symmetry_multiplicity
 _atom_site_fract_x
 _atom_site_fract_y
 _atom_site_fract_z
 _atom_site_occupancy
 _atom_site_hle17_bader_spin_density
 _atom_site_hle17_ddec_charge
 _atom_site_hle17_ddec_spin_density
 _atom_site_hle17_ddec_sum_bond_order
 _atom_site_hle17_magmom
 _atom_site_hse06_10hf_bader_spin_density
 _atom_site_hse06_10hf_ddec_charge
 _atom_site_hse06_10hf_ddec_spin_density
 _atom_site_hse06_10hf_ddec_sum_bond_order
 _atom_site_hse06_10hf_magmom
 _atom_site_hse06_bader_spin_density
 _atom_site_hse06_ddec_charge
 _atom_site_hse06_ddec_spin_density
 _atom_site_hse06_ddec_sum_bond_order
 _atom_site_hse06_magmom
 _atom_site_pbe_bader_spin_density
 _atom_site_pbe_cm5_charge
 _atom_site_pbe_ddec_charge
 _atom_site_pbe_ddec_spin_density
 _atom_site_pbe_ddec_sum_bond_order
 _atom_site_pbe_magmom
Zn  Zn0  1  0.24365583  0.70333528  0.89830058  1  0  1.106663  0  1.657056  0  0  0.929694  0  2.089831  0  0  0.978177  0  2.03585  0  0  0.680258  0.895864  0  2.126743  0
Zn  Zn1  1  0.74365042  0.29668272  0.60170070  1  0  1.106632  0  1.656947  0  0  0.929826  0  2.089678  0  0  0.978306  0  2.035698  0  0  0.680319  0.896  0  2.126594  0
Zn  Zn2  1  0.75635990  0.29666984  0.10170379  1  0  1.106733  0  1.657001  0  0  0.929713  0  2.089813  0  0  0.978201  0  2.035829  0  0  0.680282  0.895884  0  2.126734  0
Zn  Zn3  1  0.25633498  0.70331774  0.39830279  1  0  1.106644  0  1.657021  0  0  0.929685  0  2.089798  0  0  0.978166  0  2.035817  0  0  0.680288  0.89586  0  2.126717  0
H  H4  1  0.49558758  0.36768691  0.95337044  1  0  0.126972  0  0.9542  0  0  0.135011  0  1.020268  0  0  0.138013  0  1.018245  0  0  0.117277  0.132813  0  1.021822  0
H  H5  1  0.99558876  0.63234178  0.54661614  1  0  0.126934  0  0.954031  0  0  0.134917  0  1.020196  0  0  0.13792  0  1.018173  0  0  0.117189  0.132718  0  1.021751  0
H  H6  1  0.50439631  0.63230311  0.04662555  1  0  0.126983  0  0.954073  0  0  0.135029  0  1.020137  0  0  0.138033  0  1.018117  0  0  0.117255  0.132832  0  1.021687  0
H  H7  1  0.00443304  0.36764064  0.45337412  1  0  0.126951  0  0.954134  0  0  0.134855  0  1.020361  0  0  0.13785  0  1.018345  0  0  0.117256  0.132658  0  1.021909  0
H  H8  1  0.28905805  0.28986893  0.88931270  1  0  0.126945  0  0.913317  0  0  0.140582  0  0.969534  0  0  0.14397  0  0.966388  0  0  0.126145  0.138113  0  0.971834  0
H  H9  1  0.78904450  0.71014340  0.61069124  1  0  0.127011  0  0.913267  0  0  0.140552  0  0.969607  0  0  0.143943  0  0.966463  0  0  0.126178  0.138091  0  0.971896  0
H  H10  1  0.71092281  0.71013985  0.11068928  1  0  0.126962  0  0.913284  0  0  0.140631  0  0.969483  0  0  0.144024  0  0.966341  0  0  0.126188  0.138163  0  0.971777  0
H  H11  1  0.21097577  0.28984946  0.38930651  1  0  0.126925  0  0.913312  0  0  0.140461  0  0.969654  0  0  0.143847  0  0.966514  0  0  0.126108  0.137997  0  0.971943  0
H  H12  1  0.54936624  0.07468651  0.63496667  1  0  0.106985  0  0.954048  0  0  0.116013  0  1.022436  0  0  0.11882  0  1.02055  0  0  0.114009  0.113947  0  1.023993  0
H  H13  1  0.04936627  0.92530096  0.86504579  1  0  0.107038  0  0.954068  0  0  0.116012  0  1.022537  0  0  0.118822  0  1.020643  0  0  0.114008  0.113945  0  1.024096  0
H  H14  1  0.45062371  0.92530268  0.36503286  1  0  0.106948  0  0.954147  0  0  0.115907  0  1.022631  0  0  0.118715  0  1.020741  0  0  0.113932  0.113841  0  1.024184  0
H  H15  1  0.95063278  0.07469562  0.13495204  1  0  0.107042  0  0.954108  0  0  0.116011  0  1.022586  0  0  0.118829  0  1.020694  0  0  0.113982  0.113944  0  1.024145  0
H  H16  1  0.69131353  0.02201384  0.71082410  1  0  0.120009  0  0.96252  0  0  0.13187  0  1.026858  0  0  0.135317  0  1.024037  0  0  0.115576  0.129427  0  1.028922  0
H  H17  1  0.19131944  0.97799884  0.78917913  1  0  0.120128  0  0.962416  0  0  0.131902  0  1.026839  0  0  0.135356  0  1.024015  0  0  0.115538  0.129459  0  1.028906  0
H  H18  1  0.30868552  0.97798555  0.28917489  1  0  0.120087  0  0.96249  0  0  0.131962  0  1.026812  0  0  0.135401  0  1.023997  0  0  0.115583  0.129513  0  1.02888  0
H  H19  1  0.80870235  0.02199673  0.21081606  1  0  0.120144  0  0.962289  0  0  0.131879  0  1.026748  0  0  0.135354  0  1.023905  0  0  0.115532  0.129438  0  1.028806  0
H  H20  1  0.82210171  0.36751778  0.88548883  1  0  0.099674  0  0.899144  0  0  0.11864  0  0.952149  0  0  0.119824  0  0.951311  0  0  0.119451  0.117708  0  0.952877  0
H  H21  1  0.32212273  0.63251501  0.61448743  1  0  0.099767  0  0.89908  0  0  0.118728  0  0.952085  0  0  0.119929  0  0.951196  0  0  0.119399  0.117787  0  0.952825  0
H  H22  1  0.17786247  0.63248061  0.11450750  1  0  0.09956  0  0.899106  0  0  0.118535  0  0.952165  0  0  0.119735  0  0.951288  0  0  0.11936  0.117605  0  0.952897  0
H  H23  1  0.67790209  0.36747325  0.38551193  1  0  0.099818  0  0.898903  0  0  0.118662  0  0.952008  0  0  0.119852  0  0.951151  0  0  0.119367  0.117736  0  0.952738  0
H  H24  1  0.74186948  0.41675032  0.79633526  1  0  0.078431  0  0.962319  0  0  0.089791  0  1.030956  0  0  0.091053  0  1.03003  0  0  0.106212  0.088749  0  1.031855  0
H  H25  1  0.24188869  0.58326663  0.70366149  1  0  0.078554  0  0.962007  0  0  0.089819  0  1.030762  0  0  0.091078  0  1.029841  0  0  0.106183  0.088786  0  1.031648  0
H  H26  1  0.25810228  0.58324453  0.20366718  1  0  0.078358  0  0.962324  0  0  0.089753  0  1.030944  0  0  0.091015  0  1.03002  0  0  0.1062  0.088725  0  1.031842  0
H  H27  1  0.75812097  0.41673749  0.29634022  1  0  0.078591  0  0.961922  0  0  0.089817  0  1.030694  0  0  0.091081  0  1.029768  0  0  0.106177  0.088789  0  1.031589  0
H  H28  1  0.04392605  0.29314705  0.75343202  1  0  0.095308  0  0.91629  0  0  0.110507  0  0.975071  0  0  0.11149  0  0.975299  0  0  0.115541  0.109659  0  0.975062  0
H  H29  1  0.54395444  0.70689620  0.74654777  1  0  0.095227  0  0.916166  0  0  0.110267  0  0.975136  0  0  0.111318  0  0.975288  0  0  0.11552  0.10942  0  0.975126  0
H  H30  1  0.95604722  0.70685612  0.24656890  1  0  0.095175  0  0.916343  0  0  0.110397  0  0.975139  0  0  0.111385  0  0.97536  0  0  0.115496  0.109548  0  0.975135  0
H  H31  1  0.45605825  0.29310327  0.25345369  1  0  0.095299  0  0.915998  0  0  0.110252  0  0.975028  0  0  0.111304  0  0.975176  0  0  0.115517  0.109402  0  0.97502  0
H  H32  1  0.95482023  0.17269870  0.79545855  1  0  0.081844  0  0.917532  0  0  0.096572  0  0.979576  0  0  0.097763  0  0.978545  0  0  0.108304  0.09559  0  0.980488  0
H  H33  1  0.45479395  0.82735464  0.70453946  1  0  0.082002  0  0.917124  0  0  0.096663  0  0.979262  0  0  0.097856  0  0.978241  0  0  0.108254  0.09567  0  0.980193  0
H  H34  1  0.04515304  0.82730624  0.20453901  1  0  0.081785  0  0.917535  0  0  0.096486  0  0.979658  0  0  0.097682  0  0.978623  0  0  0.108234  0.095502  0  0.980567  0
H  H35  1  0.54521420  0.17263192  0.29546573  1  0  0.081912  0  0.91709  0  0  0.096558  0  0.979212  0  0  0.097755  0  0.978188  0  0  0.108233  0.095566  0  0.98013  0
H  H36  1  0.88320072  0.01377462  0.57918156  1  0  0.115533  0  0.951862  0  0  0.127233  0  1.012521  0  0  0.129591  0  1.011753  0  0  0.116793  0.125556  0  1.013104  0
H  H37  1  0.38321153  0.98623162  0.92081704  1  0  0.115675  0  0.95179  0  0  0.127354  0  1.012463  0  0  0.12971  0  1.011696  0  0  0.116867  0.125674  0  1.013043  0
H  H38  1  0.11678468  0.98621998  0.42081221  1  0  0.11557  0  0.951958  0  0  0.127237  0  1.012662  0  0  0.129596  0  1.011895  0  0  0.116772  0.125553  0  1.013253  0
H  H39  1  0.61678600  0.01377236  0.07917973  1  0  0.115691  0  0.951821  0  0  0.127417  0  1.012443  0  0  0.129774  0  1.011673  0  0  0.116884  0.125738  0  1.01302  0
H  H40  1  0.05253199  0.04193065  0.66792748  1  0  0.121537  0  0.930703  0  0  0.132865  0  0.993563  0  0  0.135422  0  0.99192  0  0  0.117706  0.13097  0  0.994871  0
H  H41  1  0.55254008  0.95808444  0.83207606  1  0  0.121545  0  0.930591  0  0  0.132971  0  0.993342  0  0  0.135527  0  0.991695  0  0  0.117799  0.131056  0  0.994667  0
H  H42  1  0.94744583  0.95807138  0.33206584  1  0  0.121565  0  0.930592  0  0  0.132944  0  0.993414  0  0  0.135503  0  0.991771  0  0  0.117832  0.13106  0  0.994698  0
H  H43  1  0.44748323  0.04191198  0.16791621  1  0  0.121633  0  0.930637  0  0  0.133024  0  0.993421  0  0  0.135588  0  0.991765  0  0  0.117817  0.1311  0  0.994754  0
H  H44  1  0.92531997  0.59789521  0.78965852  1  0  0.437885  0  0.867273  0  0  0.402084  0  0.938724  0  0  0.413945  0  0.921619  0  0  0.291106  0.393733  0  0.950752  0
H  H45  1  0.42531247  0.40212821  0.71032914  1  0  0.437955  0  0.867212  0  0  0.402171  0  0.938625  0  0  0.414027  0  0.921524  0  0  0.291199  0.393821  0  0.950652  0
H  H46  1  0.07468817  0.40211152  0.21033691  1  0  0.437984  0  0.867153  0  0  0.402182  0  0.938613  0  0  0.414049  0  0.921497  0  0  0.291179  0.393833  0  0.950639  0
H  H47  1  0.57468354  0.59788517  0.28967124  1  0  0.437981  0  0.867104  0  0  0.402154  0  0.938578  0  0  0.414011  0  0.921473  0  0  0.291155  0.393807  0  0.950606  0
H  H48  1  0.82701051  0.66980664  0.88235885  1  0  0.436123  0  0.854114  0  0  0.407616  0  0.912272  0  0  0.418222  0  0.896774  0  0  0.300488  0.400089  0  0.923285  0
H  H49  1  0.32700454  0.33019602  0.61763705  1  0  0.436076  0  0.854207  0  0  0.40756  0  0.912383  0  0  0.418166  0  0.896886  0  0  0.300465  0.400036  0  0.92339  0
H  H50  1  0.17299763  0.33019539  0.11763447  1  0  0.436168  0  0.854062  0  0  0.407608  0  0.9123  0  0  0.418214  0  0.896801  0  0  0.300462  0.400085  0  0.923304  0
H  H51  1  0.67298693  0.66981004  0.38236749  1  0  0.436117  0  0.85414  0  0  0.407603  0  0.912313  0  0  0.418209  0  0.896814  0  0  0.300476  0.400078  0  0.92332  0
H  H52  1  0.18474201  0.92097643  0.02585117  1  0  0.424102  0  0.873852  0  0  0.391288  0  0.939889  0  0  0.402601  0  0.923607  0  0  0.291701  0.383287  0  0.951376  0
H  H53  1  0.68472061  0.07903259  0.47414795  1  0  0.424166  0  0.873729  0  0  0.391413  0  0.939703  0  0  0.40273  0  0.923415  0  0  0.291749  0.38341  0  0.951194  0
H  H54  1  0.81528888  0.07902771  0.97415116  1  0  0.424148  0  0.87374  0  0  0.391371  0  0.939779  0  0  0.402696  0  0.923477  0  0  0.291722  0.383367  0  0.951272  0
H  H55  1  0.31525721  0.92096781  0.52585369  1  0  0.424095  0  0.873765  0  0  0.391322  0  0.939814  0  0  0.402636  0  0.92353  0  0  0.291703  0.383318  0  0.951307  0
H  H56  1  0.97941238  0.85662901  0.98951516  1  0  0.420809  0  0.879385  0  0  0.387032  0  0.948578  0  0  0.398983  0  0.931233  0  0  0.290402  0.378579  0  0.960838  0
H  H57  1  0.47940657  0.14338075  0.51048979  1  0  0.420677  0  0.879631  0  0  0.386901  0  0.948783  0  0  0.398853  0  0.931437  0  0  0.290366  0.378448  0  0.961043  0
H  H58  1  0.02060032  0.14337340  0.01049178  1  0  0.420714  0  0.879535  0  0  0.386936  0  0.948709  0  0  0.398888  0  0.931363  0  0  0.290371  0.378488  0  0.960962  0
H  H59  1  0.52057580  0.85661879  0.48951414  1  0  0.420873  0  0.879325  0  0  0.387012  0  0.948617  0  0  0.398962  0  0.931271  0  0  0.290412  0.378561  0  0.960875  0
C  C60  1  0.35688597  0.47145309  0.87692057  1  0  0.685882  0  3.823332  0  0  0.635565  0  4.123835  0  0  0.668783  0  4.117554  0  0  0.214135  0.613027  0  4.127366  0
C  C61  1  0.85691899  0.52856447  0.62308040  1  0  0.686203  0  3.823265  0  0  0.635809  0  4.123856  0  0  0.669033  0  4.117562  0  0  0.214226  0.613269  0  4.127396  0
C  C62  1  0.64309034  0.52854856  0.12309238  1  0  0.685854  0  3.823867  0  0  0.635516  0  4.124428  0  0  0.668737  0  4.118145  0  0  0.214061  0.612985  0  4.12796  0
C  C63  1  0.14311645  0.47144646  0.37693182  1  0  0.685884  0  3.823422  0  0  0.63568  0  4.123689  0  0  0.668898  0  4.117402  0  0  0.214215  0.613144  0  4.127229  0
C  C64  1  0.42361041  0.34803672  0.88999722  1  0  -0.167162  0  3.64991  0  0  -0.226768  0  3.900859  0  0  -0.227422  0  3.906257  0  0  -0.061036  -0.226174  0  3.897082  0
C  C65  1  0.92359676  0.65196528  0.60998886  1  0  -0.167147  0  3.64949  0  0  -0.226766  0  3.900536  0  0  -0.227431  0  3.90594  0  0  -0.061016  -0.226169  0  3.89676  0
C  C66  1  0.57638105  0.65195520  0.11000036  1  0  -0.16715  0  3.649576  0  0  -0.226728  0  3.900685  0  0  -0.227399  0  3.906115  0  0  -0.061023  -0.226135  0  3.896902  0
C  C67  1  0.07643110  0.34802474  0.39000713  1  0  -0.166986  0  3.649577  0  0  -0.226572  0  3.90053  0  0  -0.227219  0  3.905931  0  0  -0.061049  -0.225973  0  3.896742  0
C  C68  1  0.49650388  0.17464991  0.76412891  1  0  0.518653  0  3.818681  0  0  0.467404  0  4.120805  0  0  0.496668  0  4.120078  0  0  0.234526  0.447757  0  4.120665  0
C  C69  1  0.99648289  0.82538107  0.73587288  1  0  0.518359  0  3.819574  0  0  0.467333  0  4.121214  0  0  0.496588  0  4.12049  0  0  0.23448  0.447694  0  4.121072  0
C  C70  1  0.50349365  0.82535513  0.23587236  1  0  0.518625  0  3.818744  0  0  0.467361  0  4.121071  0  0  0.496621  0  4.120338  0  0  0.234417  0.447715  0  4.120923  0
C  C71  1  0.00352980  0.17461541  0.26412187  1  0  0.518528  0  3.81907  0  0  0.467411  0  4.120836  0  0  0.496676  0  4.120113  0  0  0.234652  0.447773  0  4.12069  0
C  C72  1  0.63937012  0.10577916  0.69398325  1  0  -0.176008  0  3.653791  0  0  -0.230537  0  3.905456  0  0  -0.232077  0  3.912298  0  0  -0.077489  -0.229641  0  3.901067  0
C  C73  1  0.13937198  0.89422924  0.80602581  1  0  -0.176009  0  3.653744  0  0  -0.230692  0  3.905124  0  0  -0.23224  0  3.911967  0  0  -0.077448  -0.2298  0  3.900745  0
C  C74  1  0.36060012  0.89421853  0.30602095  1  0  -0.176115  0  3.653985  0  0  -0.230675  0  3.905394  0  0  -0.232203  0  3.912232  0  0  -0.077393  -0.229775  0  3.900996  0
C  C75  1  0.86061948  0.10576908  0.19396805  1  0  -0.176183  0  3.65392  0  0  -0.230781  0  3.905252  0  0  -0.23237  0  3.912131  0  0  -0.077403  -0.22989  0  3.900878  0
C  C76  1  0.76052022  0.33485122  0.81984883  1  0  -0.019047  0  3.646912  0  0  -0.082979  0  3.908427  0  0  -0.0789  0  3.918994  0  0  -0.060938  -0.085643  0  3.9012  0
C  C77  1  0.26052173  0.66516904  0.68013650  1  0  -0.019415  0  3.646801  0  0  -0.083382  0  3.908189  0  0  -0.079295  0  3.91878  0  0  -0.060878  -0.086038  0  3.900942  0
C  C78  1  0.23945609  0.66513975  0.18014795  1  0  -0.018824  0  3.646395  0  0  -0.082784  0  3.908111  0  0  -0.078699  0  3.918682  0  0  -0.060831  -0.085472  0  3.900914  0
C  C79  1  0.73949703  0.33482753  0.31986134  1  0  -0.019256  0  3.64644  0  0  -0.083091  0  3.907681  0  0  -0.079013  0  3.918271  0  0  -0.060728  -0.085786  0  3.9005  0
C  C80  1  0.90799683  0.24315720  0.76396385  1  0  -0.032074  0  3.623674  0  0  -0.089192  0  3.887321  0  0  -0.08623  0  3.89838  0  0  -0.069686  -0.091032  0  3.879679  0
C  C81  1  0.40799168  0.75687476  0.73602763  1  0  -0.031956  0  3.623202  0  0  -0.089054  0  3.886488  0  0  -0.086151  0  3.897556  0  0  -0.069505  -0.090886  0  3.878831  0
C  C82  1  0.09197947  0.75684403  0.23603425  1  0  -0.031735  0  3.623003  0  0  -0.089053  0  3.886671  0  0  -0.086095  0  3.897724  0  0  -0.069561  -0.090885  0  3.879037  0
C  C83  1  0.59201192  0.24311073  0.26397243  1  0  -0.032054  0  3.62295  0  0  -0.089006  0  3.886025  0  0  -0.0861  0  3.897088  0  0  -0.06949  -0.090823  0  3.878379  0
C  C84  1  0.96669725  0.08676815  0.62708090  1  0  -0.205642  0  3.64312  0  0  -0.258252  0  3.893244  0  0  -0.260673  0  3.901373  0  0  -0.080784  -0.256559  0  3.887616  0
C  C85  1  0.46669825  0.91324421  0.87291574  1  0  -0.205805  0  3.643344  0  0  -0.258717  0  3.893337  0  0  -0.261141  0  3.901456  0  0  -0.080953  -0.256988  0  3.887694  0
C  C86  1  0.03328512  0.91323862  0.37291578  1  0  -0.205733  0  3.643191  0  0  -0.258508  0  3.8932  0  0  -0.260944  0  3.901338  0  0  -0.080854  -0.256809  0  3.887544  0
C  C87  1  0.53331445  0.08674859  0.12708015  1  0  -0.20592  0  3.643594  0  0  -0.258809  0  3.893686  0  0  -0.261241  0  3.901804  0  0  -0.081003  -0.257078  0  3.888037  0
C  C88  1  0.11718108  0.14611654  0.58005298  1  0  0.694548  0  3.850147  0  0  0.63739  0  4.162544  0  0  0.670518  0  4.155291  0  0  0.214384  0.614891  0  4.166762  0
C  C89  1  0.61718105  0.85390174  0.91994100  1  0  0.694893  0  3.849991  0  0  0.637929  0  4.162081  0  0  0.671062  0  4.154815  0  0  0.214767  0.615426  0  4.166308  0
C  C90  1  0.88282100  0.85389137  0.41995129  1  0  0.694834  0  3.849713  0  0  0.637656  0  4.162164  0  0  0.670785  0  4.154903  0  0  0.214563  0.615158  0  4.16639  0
C  C91  1  0.38285439  0.14609854  0.08005630  1  0  0.694884  0  3.849936  0  0  0.637563  0  4.16248  0  0  0.670683  0  4.155227  0  0  0.214561  0.615074  0  4.166695  0
N  N92  1  0.56192041  0.27844094  0.82391564  1  0  -0.183718  0  3.432015  0  0  -0.097437  0  3.665099  0  0  -0.117467  0  3.686759  0  0  -0.278026  -0.083826  0  3.649814  0
N  N93  1  0.06192774  0.72158675  0.67607501  1  0  -0.184007  0  3.431274  0  0  -0.097504  0  3.663984  0  0  -0.117536  0  3.685639  0  0  -0.278299  -0.083897  0  3.648701  0
N  N94  1  0.43805589  0.72155571  0.17608467  1  0  -0.183898  0  3.431321  0  0  -0.097837  0  3.664797  0  0  -0.117867  0  3.686458  0  0  -0.278181  -0.084218  0  3.649517  0
N  N95  1  0.93809102  0.27840905  0.32392822  1  0  -0.184234  0  3.431258  0  0  -0.097723  0  3.663944  0  0  -0.117755  0  3.685595  0  0  -0.278435  -0.084112  0  3.648673  0
N  N96  1  0.81806962  0.17723488  0.67894312  1  0  -0.201549  0  3.277704  0  0  -0.103882  0  3.522056  0  0  -0.122026  0  3.542516  0  0  -0.334951  -0.0914  0  3.507652  0
N  N97  1  0.31808821  0.82278182  0.82105528  1  0  -0.201859  0  3.278628  0  0  -0.103421  0  3.521956  0  0  -0.121558  0  3.542442  0  0  -0.334971  -0.090946  0  3.507539  0
N  N98  1  0.18190062  0.82277501  0.32106521  1  0  -0.201839  0  3.278287  0  0  -0.103499  0  3.521741  0  0  -0.12163  0  3.54219  0  0  -0.335034  -0.091028  0  3.507338  0
N  N99  1  0.68190780  0.17720728  0.17894115  1  0  -0.201703  0  3.27882  0  0  -0.103322  0  3.522197  0  0  -0.121451  0  3.542694  0  0  -0.33502  -0.090844  0  3.50777  0
O  O100  1  0.28862942  0.55398871  0.94321221  1  0  -0.622929  0  2.000783  0  0  -0.551932  0  2.247891  0  0  -0.581311  0  2.235899  0  0  -0.316095  -0.531688  0  2.255579  0
O  O101  1  0.78864980  0.44602035  0.55677511  1  0  -0.623291  0  2.000163  0  0  -0.55225  0  2.247277  0  0  -0.581636  0  2.235286  0  0  -0.316291  -0.531999  0  2.254959  0
O  O102  1  0.71137873  0.44601261  0.05678898  1  0  -0.623068  0  2.000498  0  0  -0.55212  0  2.247672  0  0  -0.581506  0  2.235684  0  0  -0.316183  -0.531861  0  2.255346  0
O  O103  1  0.21136593  0.55397735  0.44322971  1  0  -0.622885  0  2.000494  0  0  -0.551966  0  2.24759  0  0  -0.581344  0  2.235596  0  0  -0.31612  -0.531718  0  2.255274  0
O  O104  1  0.37042907  0.49174035  0.80430250  1  0  -0.6418  0  1.99382  0  0  -0.57903  0  2.225213  0  0  -0.60552  0  2.214753  0  0  -0.307335  -0.560718  0  2.231942  0
O  O105  1  0.87046725  0.50826835  0.69568284  1  0  -0.641687  0  1.994381  0  0  -0.578881  0  2.225848  0  0  -0.605371  0  2.215376  0  0  -0.307215  -0.56057  0  2.232585  0
O  O106  1  0.62958059  0.50826843  0.19569947  1  0  -0.641639  0  1.994544  0  0  -0.578795  0  2.225906  0  0  -0.605273  0  2.215438  0  0  -0.307143  -0.560489  0  2.232642  0
O  O107  1  0.12953938  0.49173486  0.30431932  1  0  -0.641883  0  1.994173  0  0  -0.579082  0  2.225493  0  0  -0.605578  0  2.215021  0  0  -0.307348  -0.56077  0  2.232231  0
O  O108  1  0.08312696  0.25652855  0.57685065  1  0  -0.642297  0  1.984063  0  0  -0.577281  0  2.222988  0  0  -0.603468  0  2.211377  0  0  -0.306832  -0.559027  0  2.230407  0
O  O109  1  0.58315880  0.74349054  0.92316700  1  0  -0.642659  0  1.983858  0  0  -0.577781  0  2.222774  0  0  -0.60398  0  2.211167  0  0  -0.307181  -0.55952  0  2.230196  0
O  O110  1  0.91688118  0.74347282  0.42315239  1  0  -0.642536  0  1.983887  0  0  -0.577559  0  2.222913  0  0  -0.603748  0  2.211294  0  0  -0.307001  -0.5593  0  2.230337  0
O  O111  1  0.41684632  0.25651108  0.07684471  1  0  -0.642708  0  1.98427  0  0  -0.577547  0  2.223135  0  0  -0.603741  0  2.211538  0  0  -0.307027  -0.559292  0  2.230557  0
O  O112  1  0.26915252  0.08017709  0.54542533  1  0  -0.658323  0  2.021122  0  0  -0.586418  0  2.239079  0  0  -0.614212  0  2.229208  0  0  -0.310687  -0.567036  0  2.245424  0
O  O113  1  0.76915832  0.91982585  0.95457287  1  0  -0.658333  0  2.021205  0  0  -0.586542  0  2.239147  0  0  -0.614337  0  2.229253  0  0  -0.310769  -0.567159  0  2.245497  0
O  O114  1  0.73085714  0.91982393  0.45456534  1  0  -0.658378  0  2.021175  0  0  -0.586441  0  2.23915  0  0  -0.614222  0  2.229259  0  0  -0.310719  -0.567064  0  2.245499  0
O  O115  1  0.23086650  0.08017915  0.04542717  1  0  -0.658451  0  2.02101  0  0  -0.586335  0  2.238838  0  0  -0.614127  0  2.228973  0  0  -0.310727  -0.566989  0  2.245213  0
O  O116  1  0.32446906  0.12899311  0.76630280  1  0  -0.574754  0  1.980072  0  0  -0.536909  0  2.223718  0  0  -0.559208  0  2.217393  0  0  -0.311237  -0.521438  0  2.227391  0
O  O117  1  0.82448313  0.87100056  0.73370368  1  0  -0.574229  0  1.981633  0  0  -0.53652  0  2.22509  0  0  -0.558836  0  2.218833  0  0  -0.310982  -0.521056  0  2.228758  0
O  O118  1  0.67550876  0.87099056  0.23369877  1  0  -0.574551  0  1.980737  0  0  -0.536648  0  2.224373  0  0  -0.558976  0  2.218116  0  0  -0.311054  -0.521184  0  2.228044  0
O  O119  1  0.17553259  0.12900157  0.26629335  1  0  -0.574218  0  1.981432  0  0  -0.536516  0  2.224969  0  0  -0.558828  0  2.218706  0  0  -0.311065  -0.521054  0  2.228633  0
O  O120  1  0.95593865  0.64739282  0.85084574  1  0  -0.861436  0  1.905993  0  0  -0.793798  0  2.119283  0  0  -0.815822  0  2.08275  0  0  -0.58431  -0.778348  0  2.144613  0
O  O121  1  0.45593479  0.35265283  0.64914345  1  0  -0.861506  0  1.906036  0  0  -0.793879  0  2.119289  0  0  -0.815908  0  2.082784  0  0  -0.584421  -0.778431  0  2.144622  0
O  O122  1  0.04407253  0.35262877  0.14914941  1  0  -0.861515  0  1.905901  0  0  -0.793831  0  2.119166  0  0  -0.815877  0  2.08266  0  0  -0.584331  -0.778378  0  2.144495  0
O  O123  1  0.54405668  0.64737268  0.35085859  1  0  -0.861558  0  1.905908  0  0  -0.79388  0  2.1192  0  0  -0.815915  0  2.082712  0  0  -0.584365  -0.778434  0  2.144528  0
O  O124  1  0.12048682  0.83668766  0.00462253  1  0  -0.811042  0  1.858364  0  0  -0.742725  0  2.055396  0  0  -0.764802  0  2.01873  0  0  -0.574594  -0.727226  0  2.08087  0
O  O125  1  0.62046662  0.16332162  0.49537695  1  0  -0.810999  0  1.85846  0  0  -0.742751  0  2.055399  0  0  -0.764828  0  2.018723  0  0  -0.574595  -0.727253  0  2.080879  0
O  O126  1  0.87953194  0.16332022  0.99538051  1  0  -0.811018  0  1.858327  0  0  -0.742769  0  2.055383  0  0  -0.764836  0  2.018672  0  0  -0.574586  -0.727267  0  2.080854  0
O  O127  1  0.37951120  0.83668160  0.50462583  1  0  -0.811087  0  1.858282  0  0  -0.742714  0  2.055359  0  0  -0.764789  0  2.01869  0  0  -0.574568  -0.727214  0  2.080836  0
