# generated using pymatgen
data_HoCuH15C16N2O13
_symmetry_space_group_name_H-M   'P 1'
_cell_length_a   10.74731432
_cell_length_b   13.89655387
_cell_length_c   19.61300869
_cell_angle_alpha   89.99956247
_cell_angle_beta   100.73243114
_cell_angle_gamma   89.99958623
_symmetry_Int_Tables_number   1
_chemical_formula_structural   HoCuH15C16N2O13
_chemical_formula_sum   'Ho4 Cu4 H60 C64 N8 O52'
_cell_volume   2877.97609045
_cell_formula_units_Z   4
loop_
 _symmetry_equiv_pos_site_id
 _symmetry_equiv_pos_as_xyz
  1  'x, y, z'
loop_
 _atom_site_type_symbol
 _atom_site_label
 _atom_site_symmetry_multiplicity
 _atom_site_fract_x
 _atom_site_fract_y
 _atom_site_fract_z
 _atom_site_occupancy
 _atom_site_pbe_bader_charge
 _atom_site_pbe_bader_spin_density
 _atom_site_pbe_cm5_charge
 _atom_site_pbe_ddec_charge
 _atom_site_pbe_ddec_spin_density
 _atom_site_pbe_ddec_sum_bond_order
 _atom_site_pbe_magmom
Ho  Ho0  1  0.15495615  0.56842219  0.05885331  1  2.153548  -9.7e-05  1.511929  2.038246  -0.000107  2.103931  0.0
Ho  Ho1  1  0.84503786  0.06841798  0.44114260  1  2.153654  8.7e-05  1.511932  2.038218  8.8e-05  2.103927  0.0
Ho  Ho2  1  0.84504288  0.43158591  0.94114592  1  2.153653  0.000143  1.511945  2.038265  0.000148  2.103934  0.0
Ho  Ho3  1  0.15495833  0.93158796  0.55885737  1  2.153589  0.000154  1.511934  2.038263  0.000162  2.103963  0.0
Cu  Cu4  1  0.24797218  0.06810276  0.22382344  1  1.068903  -0.55367  0.74715  0.785119  -0.765764  2.178883  -0.553
Cu  Cu5  1  0.75201712  0.56810129  0.27616485  1  1.068886  0.553674  0.747174  0.785231  0.726662  2.178608  0.553
Cu  Cu6  1  0.75200417  0.93187584  0.77615511  1  1.069239  0.555196  0.747326  0.785309  0.728773  2.178911  0.554
Cu  Cu7  1  0.24801218  0.43187731  0.72385636  1  1.069114  0.555202  0.747353  0.785324  0.728783  2.178936  0.554
H  H8  1  0.22859745  0.07557968  0.05409208  1  0.596861  7.3e-05  0.328656  0.406496  2e-05  0.876218  0.0
H  H9  1  0.77140879  0.57558275  0.44590606  1  0.596957  -7.2e-05  0.328717  0.406637  -2e-05  0.876044  0.0
H  H10  1  0.77139873  0.92440683  0.94591094  1  0.596781  -7.2e-05  0.328659  0.406543  -2.2e-05  0.876154  0.0
H  H11  1  0.22860067  0.42440880  0.55409220  1  0.596826  -7.2e-05  0.328647  0.406563  -2.2e-05  0.876141  0.0
H  H12  1  0.09266044  0.09618654  0.06659001  1  0.622887  4.5e-05  0.328342  0.407122  8e-06  0.874689  0.0
H  H13  1  0.90734273  0.59618899  0.43340516  1  0.622837  -4.9e-05  0.328292  0.406959  -1.3e-05  0.87491  0.0
H  H14  1  0.90733575  0.90379781  0.93341097  1  0.622864  -4.6e-05  0.328324  0.407047  -9e-06  0.874768  0.0
H  H15  1  0.09266578  0.40379896  0.56659301  1  0.622928  -5e-05  0.328334  0.40706  -1.4e-05  0.874773  0.0
H  H16  1  0.21445296  0.61871406  0.91472589  1  0.657228  -2.3e-05  0.321982  0.440314  -1e-05  0.852564  0.0
H  H17  1  0.78554904  0.11871258  0.58527407  1  0.657277  -2.2e-05  0.321931  0.440216  -9e-06  0.85268  0.0
H  H18  1  0.78554608  0.38128828  0.08527181  1  0.65728  -2.6e-05  0.321941  0.440199  -1.1e-05  0.852703  0.0
H  H19  1  0.21445377  0.88128832  0.41472963  1  0.657311  2.7e-05  0.321957  0.440223  1e-05  0.852671  0.0
H  H20  1  0.09171293  0.56034527  0.91303539  1  0.649832  -1e-06  0.30075  0.388219  -4e-06  0.962435  0.0
H  H21  1  0.90828975  0.06035027  0.58696344  1  0.650039  1e-06  0.300754  0.388256  -2e-06  0.962407  0.0
H  H22  1  0.90828326  0.43965492  0.08696356  1  0.649873  2e-06  0.300754  0.388244  4e-06  0.962405  0.0
H  H23  1  0.09171212  0.93964991  0.41303762  1  0.649845  -0.0  0.300778  0.388286  -2e-06  0.962364  0.0
H  H24  1  0.40215692  0.46973075  0.07708007  1  0.613248  3e-06  0.335915  0.423143  1.1e-05  0.858221  0.0
H  H25  1  0.59783623  0.96973072  0.42291562  1  0.613415  -3e-06  0.335949  0.423208  -1.1e-05  0.85818  0.0
H  H26  1  0.59783359  0.53027231  0.92291931  1  0.613381  6e-06  0.335907  0.423171  1.1e-05  0.858204  0.0
H  H27  1  0.40216564  0.03027090  0.57708391  1  0.613387  6e-06  0.335934  0.423155  1.1e-05  0.858238  0.0
H  H28  1  0.43798246  0.57805888  0.08801923  1  0.671676  6e-05  0.308281  0.421357  8.9e-05  0.897074  0.0
H  H29  1  0.56201240  0.07805945  0.41197264  1  0.67163  -6e-05  0.308368  0.421447  -9.3e-05  0.896967  0.0
H  H30  1  0.56201279  0.42194274  0.91197962  1  0.671634  6.2e-05  0.308293  0.421337  9.1e-05  0.897081  0.0
H  H31  1  0.43798948  0.92194289  0.58802689  1  0.67165  6.2e-05  0.308382  0.421434  9.1e-05  0.896981  0.0
H  H32  1  0.50990002  0.00596186  0.27988533  1  0.139124  -0.002103  0.123281  0.098159  -0.001071  1.019312  -0.001
H  H33  1  0.49009094  0.50596605  0.22010551  1  0.139395  0.002103  0.123255  0.098037  0.001014  1.019318  0.001
H  H34  1  0.49010090  0.99403617  0.72011461  1  0.139208  0.002227  0.12329  0.098166  0.001057  1.01928  0.001
H  H35  1  0.50991188  0.49403485  0.77989463  1  0.139271  0.002227  0.123276  0.098063  0.001057  1.019277  0.001
H  H36  1  0.62755332  0.85256709  0.28350905  1  0.143254  -0.000957  0.107424  0.121088  -0.000519  1.054918  -0.001
H  H37  1  0.37244311  0.35257010  0.21647487  1  0.143418  0.000957  0.107412  0.121145  0.000493  1.05493  0.001
H  H38  1  0.37244951  0.14742590  0.71648905  1  0.143309  0.000948  0.107499  0.121222  0.000496  1.054792  0.001
H  H39  1  0.62755497  0.64742649  0.78352682  1  0.143472  0.000948  0.107436  0.121195  0.000496  1.054902  0.001
H  H40  1  0.21127616  0.89876180  0.13494491  1  0.141042  -0.001803  0.122968  0.098815  -0.000896  0.999424  -0.001
H  H41  1  0.78871213  0.39875800  0.36505016  1  0.141299  0.001802  0.122972  0.098911  0.000845  0.999356  0.001
H  H42  1  0.78872287  0.10124270  0.86505637  1  0.141169  0.002202  0.12302  0.098886  0.001049  0.99937  0.002
H  H43  1  0.21129259  0.60124074  0.63494712  1  0.141399  0.002202  0.123021  0.098956  0.001048  0.999256  0.002
H  H44  1  0.02210155  0.11061788  0.29159954  1  0.169901  -0.00171  0.126436  0.10888  -0.000836  1.019549  -0.001
H  H45  1  0.97788632  0.61062091  0.20838634  1  0.169311  0.001711  0.12647  0.108945  0.00079  1.019593  0.001
H  H46  1  0.97789938  0.88939094  0.70840091  1  0.169597  0.001958  0.126434  0.108815  0.000902  1.019573  0.002
H  H47  1  0.02211177  0.38939006  0.79161127  1  0.168825  0.001959  0.126424  0.108804  0.000901  1.019524  0.002
H  H48  1  0.87322760  0.24598937  0.28894889  1  0.16094  -0.000865  0.113788  0.130811  -0.00051  1.025645  -0.001
H  H49  1  0.12675680  0.74599425  0.21103640  1  0.16108  0.000865  0.11382  0.130948  0.000487  1.025547  0.001
H  H50  1  0.12678658  0.75400794  0.71105343  1  0.160609  0.001206  0.113778  0.130859  0.000623  1.025583  0.001
H  H51  1  0.87322708  0.25400521  0.78896026  1  0.160971  0.001206  0.113723  0.130795  0.000623  1.025598  0.001
H  H52  1  0.23253744  0.25895473  0.16865499  1  0.138932  -0.002079  0.123943  0.101115  -0.001055  1.027701  -0.002
H  H53  1  0.76746005  0.75894682  0.33134229  1  0.138967  0.002079  0.123947  0.101089  0.000996  1.027696  0.002
H  H54  1  0.76746727  0.74104905  0.83134840  1  0.138893  0.002323  0.123892  0.101039  0.001121  1.027723  0.002
H  H55  1  0.23253710  0.24105480  0.66865522  1  0.13865  0.002324  0.123891  0.10106  0.001121  1.027652  0.002
H  H56  1  0.72120510  0.68989900  0.98072963  1  0.072621  3e-06  0.104519  0.157073  2e-06  0.989008  0.0
H  H57  1  0.27878472  0.18989962  0.51926819  1  0.072243  5e-06  0.104487  0.156969  1e-06  0.988981  0.0
H  H58  1  0.27878446  0.31009758  0.01927068  1  0.072225  -2e-06  0.104518  0.157059  -1e-06  0.988948  0.0
H  H59  1  0.72121999  0.81010128  0.48073367  1  0.072373  -2e-06  0.104468  0.156973  3e-06  0.989011  0.0
H  H60  1  0.78039510  0.76465185  0.05481486  1  0.0509  -1e-05  0.098103  0.150184  -6e-06  0.989826  0.0
H  H61  1  0.21959379  0.26465541  0.44518303  1  0.05095  -7e-06  0.098082  0.150133  -5e-06  0.989846  0.0
H  H62  1  0.21959257  0.23534402  0.94518525  1  0.050964  6e-06  0.098057  0.150133  4e-06  0.989842  0.0
H  H63  1  0.78041092  0.73534477  0.55481883  1  0.05094  -1.1e-05  0.098051  0.150082  -8e-06  0.989868  0.0
H  H64  1  0.72527903  0.64596208  0.06620177  1  0.111086  -2.2e-05  0.113329  0.181495  -2e-05  0.968842  0.0
H  H65  1  0.27471597  0.14596618  0.43379688  1  0.111136  2.1e-05  0.113323  0.181493  1.9e-05  0.968954  0.0
H  H66  1  0.27471432  0.35403306  0.93379841  1  0.111178  -1.8e-05  0.113277  0.18139  -2e-05  0.969042  0.0
H  H67  1  0.72528590  0.85403400  0.56620520  1  0.11118  -2.1e-05  0.113294  0.181419  -2e-05  0.969015  0.0
C  C68  1  0.47126347  0.94539361  0.24755876  1  0.464664  -8.3e-05  0.053756  0.104404  -0.000821  3.907882  0.0
C  C69  1  0.52872997  0.44539464  0.25243199  1  0.464832  8.5e-05  0.053796  0.104559  0.000608  3.90782  0.0
C  C70  1  0.52873839  0.05460154  0.75244434  1  0.464399  0.000897  0.053782  0.104477  0.001038  3.907804  0.0
C  C71  1  0.47127096  0.55460195  0.74756489  1  0.465018  0.000897  0.053814  0.104577  0.001039  3.907735  0.0
C  C72  1  0.53584739  0.85858484  0.24932349  1  0.016166  -0.002423  -0.075741  -0.131241  -0.001878  3.913528  -0.003
C  C73  1  0.46414992  0.35858482  0.25066099  1  0.01628  0.002423  -0.075708  -0.131299  0.001737  3.913718  0.003
C  C74  1  0.46415069  0.14140886  0.75067616  1  0.016328  0.006757  -0.075668  -0.131194  0.004703  3.913256  0.005
C  C75  1  0.53585386  0.64141033  0.74933720  1  0.016278  0.006757  -0.07569  -0.131261  0.004702  3.913694  0.005
C  C76  1  0.48100437  0.78145242  0.20889211  1  -0.024473  0.009577  0.016282  0.014414  0.006724  3.877941  0.007
C  C77  1  0.51899195  0.28145165  0.29108912  1  -0.025039  -0.009573  0.016293  0.014527  -0.007071  3.878262  -0.007
C  C78  1  0.51898994  0.21854992  0.79110104  1  -0.02461  0.006707  0.016295  0.014442  0.004759  3.877845  0.005
C  C79  1  0.48101370  0.71855213  0.70891691  1  -0.025375  0.00671  0.016367  0.014601  0.00476  3.878067  0.005
C  C80  1  0.36280306  0.79613864  0.16597605  1  0.009076  -0.002234  0.004876  -0.053613  -0.001783  3.91257  -0.002
C  C81  1  0.63718835  0.29613315  0.33400867  1  0.009204  0.002233  0.004875  -0.053733  0.001619  3.913073  0.002
C  C82  1  0.63719694  0.20386370  0.83401920  1  0.008794  0.008455  0.004953  -0.053678  0.005667  3.912657  0.006
C  C83  1  0.36281542  0.70386775  0.66599360  1  0.00944  0.008453  0.004883  -0.054061  0.005667  3.912926  0.006
C  C84  1  0.30443079  0.88545159  0.16634202  1  0.469362  -0.000543  0.049749  0.060603  -0.001361  3.911473  -0.001
C  C85  1  0.69555673  0.38544794  0.33364794  1  0.469224  0.000545  0.049551  0.06025  0.001148  3.911956  0.001
C  C86  1  0.69556730  0.11454787  0.83365967  1  0.469983  0.000319  0.049699  0.060661  0.001016  3.911309  0.0
C  C87  1  0.30444895  0.61454865  0.66634790  1  0.469099  0.000323  0.049622  0.060547  0.001017  3.911426  0.0
C  C88  1  0.54959195  0.68650423  0.20932760  1  1.607295  0.000892  0.212846  0.577258  0.00197  4.205753  -0.001
C  C89  1  0.45040545  0.18650313  0.29065935  1  1.608903  -0.000892  0.213171  0.57778  -0.002245  4.205476  0.001
C  C90  1  0.45040424  0.31349883  0.79067135  1  1.607382  0.001263  0.212931  0.577363  0.002267  4.205446  0.0
C  C91  1  0.54959832  0.81350137  0.70934190  1  1.609368  0.001262  0.213248  0.577843  0.002267  4.205176  0.0
C  C92  1  0.29218944  0.71568242  0.12534301  1  1.541906  -0.000878  0.183935  0.57098  -0.000644  4.275225  -0.001
C  C93  1  0.70780763  0.21567394  0.37464528  1  1.542935  0.000878  0.183705  0.570732  0.00061  4.275572  0.001
C  C94  1  0.70781056  0.28432064  0.87465275  1  1.542174  0.001188  0.183959  0.571134  0.000796  4.275091  0.001
C  C95  1  0.29219235  0.78432624  0.62535661  1  1.543004  0.001187  0.18379  0.570951  0.000796  4.275133  0.001
C  C96  1  0.03525650  0.17659046  0.26382967  1  0.480662  0.000795  0.063582  0.124634  -0.000234  3.874385  0.0
C  C97  1  0.96473344  0.67659399  0.23615708  1  0.481003  -0.000795  0.063578  0.124634  3.4e-05  3.874409  0.0
C  C98  1  0.96473403  0.82340108  0.73615798  1  0.480452  -0.000369  0.063592  0.124809  0.00028  3.87474  0.0
C  C99  1  0.03527693  0.32340115  0.76385454  1  0.481036  -0.000369  0.063635  0.124909  0.000281  3.874535  0.0
C  C100  1  0.95288775  0.25378330  0.26241150  1  -0.037671  -0.002712  -0.071187  -0.135049  -0.00206  3.894253  -0.003
C  C101  1  0.04710035  0.75378403  0.23757719  1  -0.037621  0.002712  -0.071303  -0.1353  0.001898  3.894528  0.003
C  C102  1  0.04709617  0.74621184  0.73757242  1  -0.036949  0.008929  -0.071261  -0.135284  0.005995  3.894806  0.006
C  C103  1  0.95291759  0.24621183  0.76244081  1  -0.037467  0.00893  -0.071235  -0.135221  0.005995  3.8948  0.006
C  C104  1  0.97194267  0.33814177  0.22680450  1  0.006879  0.012841  0.025422  0.038058  0.008986  3.866282  0.01
C  C105  1  0.02804539  0.83814366  0.27318526  1  0.006641  -0.012836  0.025397  0.037938  -0.009451  3.866642  -0.01
C  C106  1  0.02805920  0.66186705  0.77319758  1  0.006581  0.005919  0.025274  0.038057  0.004277  3.866416  0.005
C  C107  1  0.97195364  0.16186660  0.72681397  1  0.007264  0.005918  0.025442  0.038086  0.004275  3.866634  0.005
C  C108  1  0.07797588  0.34204613  0.19410961  1  -0.015178  -0.003807  -0.008671  -0.102038  -0.002846  3.92196  -0.004
C  C109  1  0.92201687  0.84204123  0.30588469  1  -0.015316  0.003808  -0.008435  -0.101573  0.00267  3.921658  0.004
C  C110  1  0.92201276  0.65794326  0.80588041  1  -0.015355  0.008221  -0.008574  -0.102008  0.005565  3.921924  0.006
C  C111  1  0.07799824  0.15794600  0.69412843  1  -0.015333  0.008222  -0.008529  -0.101866  0.005566  3.921949  0.006
C  C112  1  0.15366493  0.26016517  0.19613599  1  0.502529  0.000683  0.053717  0.081259  -0.000451  3.913373  0.0
C  C113  1  0.84632876  0.76015928  0.30385834  1  0.503323  -0.000685  0.053695  0.08115  0.000239  3.91326  0.0
C  C114  1  0.84633034  0.73982565  0.80385623  1  0.502886  -0.000561  0.05357  0.081121  0.000308  3.913666  0.0
C  C115  1  0.15367971  0.23982867  0.69615257  1  0.502942  -0.000563  0.053589  0.081025  0.000308  3.913784  0.0
C  C116  1  0.87366861  0.41656869  0.22409085  1  1.619157  -0.000858  0.206097  0.567572  0.000427  4.246978  -0.003
C  C117  1  0.12631664  0.91656785  0.27590126  1  1.618539  0.000857  0.206052  0.567435  -0.000716  4.247443  0.003
C  C118  1  0.12633230  0.58343796  0.77591572  1  1.618427  -0.000339  0.206087  0.567633  0.000864  4.247186  -0.002
C  C119  1  0.87368146  0.08344025  0.72409177  1  1.619073  -0.000339  0.20597  0.56756  0.000866  4.247831  -0.002
C  C120  1  0.11314684  0.42689102  0.15501366  1  1.556876  -0.000649  0.20713  0.593212  -0.000489  4.195578  0.0
C  C121  1  0.88684870  0.92688302  0.34498659  1  1.556686  0.000651  0.207093  0.593076  0.000459  4.195584  0.0
C  C122  1  0.88685882  0.57310845  0.84498932  1  1.556531  0.000962  0.207162  0.593158  0.000656  4.195701  0.001
C  C123  1  0.11314749  0.07311285  0.65501338  1  1.556031  0.000963  0.20712  0.593176  0.000657  4.195748  0.001
C  C124  1  0.90594230  0.65122923  0.03609323  1  1.533473  -1.3e-05  0.215773  0.732761  -1.1e-05  4.100587  0.0
C  C125  1  0.09405455  0.15122682  0.46390304  1  1.533516  1.2e-05  0.215687  0.732592  1e-05  4.10056  0.0
C  C126  1  0.09405106  0.34877167  0.96390543  1  1.533421  1.4e-05  0.215624  0.732445  1.2e-05  4.100639  0.0
C  C127  1  0.90595016  0.84877408  0.53609933  1  1.532761  1.1e-05  0.215642  0.732419  1e-05  4.100666  0.0
C  C128  1  0.77541422  0.69133955  0.03400442  1  -0.100644  -2.4e-05  -0.234661  -0.521515  -2.6e-05  3.870414  0.0
C  C129  1  0.22457931  0.19134071  0.46599434  1  -0.100291  1.9e-05  -0.234635  -0.521358  1.9e-05  3.87045  0.0
C  C130  1  0.22457818  0.30865775  0.96599617  1  -0.100388  -7e-06  -0.234621  -0.52135  -1.4e-05  3.870382  0.0
C  C131  1  0.77542445  0.80866019  0.53400844  1  -0.100464  -1.7e-05  -0.234555  -0.52119  -2.2e-05  3.870427  0.0
N  N132  1  0.35640086  0.95795625  0.20749792  1  -1.230825  -0.08278  -0.350623  -0.225015  -0.059204  3.642903  -0.071
N  N133  1  0.64358486  0.45795693  0.29249503  1  -1.231212  0.082786  -0.350489  -0.224873  0.056189  3.64284  0.071
N  N134  1  0.64360956  0.04204609  0.79249484  1  -1.23098  0.087508  -0.350523  -0.22503  0.059279  3.642647  0.074
N  N135  1  0.35640658  0.54204469  0.70751158  1  -1.231019  0.087513  -0.350406  -0.22482  0.059278  3.642468  0.074
N  N136  1  0.13381626  0.17949829  0.23017872  1  -1.22611  -0.081604  -0.352119  -0.233754  -0.058526  3.610932  -0.071
N  N137  1  0.86617649  0.67949697  0.26981085  1  -1.226197  0.081609  -0.352231  -0.233882  0.055545  3.610887  0.071
N  N138  1  0.86625370  0.82052420  0.76987165  1  -1.226331  0.086807  -0.352284  -0.233992  0.058948  3.611407  0.075
N  N139  1  0.13375541  0.32052481  0.73013866  1  -1.226395  0.08682  -0.35239  -0.234129  0.058954  3.611463  0.075
O  O140  1  0.26488208  0.71933267  0.05970961  1  -1.111392  -3.8e-05  -0.378182  -0.595101  -1e-06  2.13614  0.0
O  O141  1  0.73511305  0.21933053  0.44027795  1  -1.112131  3.9e-05  -0.378049  -0.594968  -4e-06  2.136459  0.0
O  O142  1  0.73511223  0.28066751  0.94028608  1  -1.111332  0.001077  -0.378111  -0.595157  0.000654  2.136188  0.001
O  O143  1  0.26489071  0.78066893  0.55972381  1  -1.112006  0.001076  -0.378039  -0.594986  0.000656  2.136118  0.001
O  O144  1  0.25796844  0.64565489  0.16025978  1  -1.167759  -0.001122  -0.395371  -0.637388  -0.000755  2.180119  -0.001
O  O145  1  0.74201997  0.14564300  0.33972851  1  -1.167995  0.001123  -0.39528  -0.637227  0.000716  2.180088  0.001
O  O146  1  0.74202208  0.35435464  0.83973654  1  -1.168041  0.001353  -0.395406  -0.63742  0.000838  2.179984  0.001
O  O147  1  0.25798569  0.85436078  0.66027345  1  -1.168037  0.001354  -0.395289  -0.637279  0.000839  2.179891  0.001
O  O148  1  0.61094233  0.66193433  0.26966165  1  -1.112147  0.098854  -0.323785  -0.542244  0.064701  2.337372  0.089
O  O149  1  0.38904874  0.16193638  0.23032121  1  -1.112587  -0.098877  -0.323971  -0.542608  -0.068236  2.3371  -0.089
O  O150  1  0.38905007  0.33807952  0.73033741  1  -1.112028  0.098847  -0.323846  -0.542248  0.064677  2.337507  0.089
O  O151  1  0.61095882  0.83807891  0.76967941  1  -1.112629  0.09887  -0.323939  -0.542427  0.064691  2.337036  0.089
O  O152  1  0.54609798  0.64088531  0.15377720  1  -1.181387  0.001632  -0.310985  -0.569554  0.000578  2.168904  0.001
O  O153  1  0.45389143  0.14088216  0.34620663  1  -1.182641  -0.001628  -0.311135  -0.569763  -0.000703  2.169266  -0.001
O  O154  1  0.45389726  0.35910983  0.84622318  1  -1.181312  0.001954  -0.310932  -0.569452  0.000768  2.168924  0.002
O  O155  1  0.54611139  0.85911443  0.65379452  1  -1.182662  0.001952  -0.311109  -0.569695  0.000768  2.169309  0.002
O  O156  1  0.17969292  0.08698173  0.09030093  1  -1.199349  0.000433  -0.566135  -0.761715  0.000208  1.962494  0.0
O  O157  1  0.82031415  0.58696549  0.40969469  1  -1.199388  -0.000437  -0.56614  -0.76169  -0.000239  1.96247  0.0
O  O158  1  0.82030801  0.91302925  0.90970003  1  -1.199274  -0.000419  -0.566162  -0.761711  -0.000231  1.962414  0.0
O  O159  1  0.17969247  0.41303613  0.59030328  1  -1.199366  -0.000422  -0.566149  -0.761729  -0.000235  1.962341  0.0
O  O160  1  0.77586690  0.41195368  0.17849320  1  -1.168108  0.003182  -0.309305  -0.543922  0.001678  2.134736  0.003
O  O161  1  0.22411367  0.91195683  0.32149641  1  -1.168074  -0.003175  -0.309235  -0.543788  -0.001846  2.135281  -0.003
O  O162  1  0.22414255  0.58803211  0.82150761  1  -1.167952  0.002866  -0.309377  -0.544124  0.001439  2.134813  0.003
O  O163  1  0.77587778  0.08803040  0.67850256  1  -1.168264  0.002866  -0.309395  -0.544118  0.001439  2.135183  0.003
O  O164  1  0.89669453  0.47854272  0.27379846  1  -1.103536  0.103353  -0.324227  -0.543029  0.067889  2.302418  0.093
O  O165  1  0.10329191  0.97854829  0.22618936  1  -1.103219  -0.103364  -0.324225  -0.542952  -0.071578  2.302121  -0.093
O  O166  1  0.10331395  0.52147185  0.72620838  1  -1.103117  0.10353  -0.324306  -0.54317  0.067972  2.302508  0.093
O  O167  1  0.89670335  0.02146916  0.77380388  1  -1.103347  0.10355  -0.324246  -0.543137  0.067984  2.302533  0.093
O  O168  1  0.03106424  0.49425337  0.13712813  1  -1.189089  -0.000576  -0.360496  -0.622747  -0.000375  2.274061  0.0
O  O169  1  0.96893431  0.99424471  0.36287104  1  -1.188827  0.000578  -0.360397  -0.622597  0.000351  2.273776  0.0
O  O170  1  0.96893573  0.50574610  0.86287732  1  -1.189007  0.001152  -0.360469  -0.622586  0.000731  2.274332  0.001
O  O171  1  0.03106568  0.00575475  0.63712626  1  -1.188857  0.001154  -0.360414  -0.622595  0.000733  2.274165  0.001
O  O172  1  0.22068486  0.43045069  0.13740592  1  -1.176335  -8e-06  -0.353468  -0.612785  8e-06  2.217581  0.0
O  O173  1  0.77931157  0.93044238  0.36259491  1  -1.176472  1e-05  -0.35355  -0.612861  -1.2e-05  2.217667  0.0
O  O174  1  0.77931701  0.56955022  0.86259513  1  -1.176313  0.000356  -0.353588  -0.612925  0.000188  2.217517  0.0
O  O175  1  0.22068841  0.06955565  0.63740494  1  -1.176162  0.000357  -0.35361  -0.612951  0.000189  2.217608  0.0
O  O176  1  0.91992940  0.57367634  0.00197781  1  -1.229653  3e-06  -0.436627  -0.762708  -3e-06  2.36706  0.0
O  O177  1  0.08006739  0.07367436  0.49802090  1  -1.229635  4.8e-05  -0.436611  -0.762617  2.4e-05  2.367074  0.0
O  O178  1  0.08006490  0.42632385  0.99802195  1  -1.229679  -3e-06  -0.436559  -0.762608  -3e-06  2.367115  0.0
O  O179  1  0.91993449  0.92632655  0.50198016  1  -1.229641  4e-05  -0.436599  -0.762584  2.6e-05  2.36709  0.0
O  O180  1  0.00261086  0.69046359  0.07211829  1  -1.172525  -6e-05  -0.375456  -0.634301  -3.9e-05  2.154192  0.0
O  O181  1  0.99738458  0.19045868  0.42787608  1  -1.172718  7.2e-05  -0.375338  -0.634168  4.4e-05  2.154061  0.0
O  O182  1  0.99738155  0.30954019  0.92787975  1  -1.172508  5.2e-05  -0.375307  -0.634059  3.7e-05  2.154194  0.0
O  O183  1  0.00262202  0.80954294  0.57212597  1  -1.171935  6.1e-05  -0.375296  -0.634089  4.2e-05  2.154172  0.0
O  O184  1  0.15347865  0.60154003  0.94435875  1  -1.278325  -1.1e-05  -0.665747  -0.86751  -1e-06  2.093461  0.0
O  O185  1  0.84651788  0.10153996  0.55563718  1  -1.278526  1.2e-05  -0.665683  -0.867434  1.3e-05  2.093462  0.0
O  O186  1  0.84651944  0.39846087  0.05563835  1  -1.278367  2.3e-05  -0.665699  -0.867404  2.1e-05  2.093578  0.0
O  O187  1  0.15348304  0.89846094  0.44436480  1  -1.27833  4.2e-05  -0.665753  -0.867529  1.4e-05  2.093535  0.0
O  O188  1  0.37739857  0.53356472  0.05914690  1  -1.245578  0.000345  -0.617235  -0.82762  0.000223  1.984067  0.0
O  O189  1  0.62259301  0.03356608  0.44084844  1  -1.245685  -0.000331  -0.61732  -0.827747  -0.000223  1.98396  0.0
O  O190  1  0.62259383  0.46643834  0.94085267  1  -1.245709  0.000344  -0.617201  -0.827596  0.000213  1.984001  0.0
O  O191  1  0.37740792  0.96643626  0.55915201  1  -1.245677  0.000329  -0.61731  -0.827687  0.000202  1.984009  0.0
