# generated using pymatgen
data_AgH22C23N6ClO5
_symmetry_space_group_name_H-M   'P 1'
_cell_length_a   8.91955120
_cell_length_b   15.29561491
_cell_length_c   19.28094245
_cell_angle_alpha   92.39565637
_cell_angle_beta   90.00034688
_cell_angle_gamma   90.00007291
_symmetry_Int_Tables_number   1
_chemical_formula_structural   AgH22C23N6ClO5
_chemical_formula_sum   'Ag4 H88 C92 N24 Cl4 O20'
_cell_volume   2628.20031843
_cell_formula_units_Z   4
loop_
 _symmetry_equiv_pos_site_id
 _symmetry_equiv_pos_as_xyz
  1  'x, y, z'
loop_
 _atom_site_type_symbol
 _atom_site_label
 _atom_site_symmetry_multiplicity
 _atom_site_fract_x
 _atom_site_fract_y
 _atom_site_fract_z
 _atom_site_occupancy
 _atom_site_pbe_bader_charge
 _atom_site_pbe_bader_spin_density
 _atom_site_pbe_cm5_charge
 _atom_site_pbe_ddec_charge
 _atom_site_pbe_ddec_spin_density
 _atom_site_pbe_ddec_sum_bond_order
 _atom_site_pbe_magmom
Ag  Ag0  1  0.69852678  0.23497836  0.39473463  1  0.627226  0  0.517751  0.406463  0  1.924683  0
Ag  Ag1  1  0.19853003  0.26502159  0.10526282  1  0.627269  0  0.517756  0.406477  0  1.924687  0
Ag  Ag2  1  0.30147289  0.76502053  0.60526327  1  0.627187  0  0.517762  0.406456  0  1.924652  0
Ag  Ag3  1  0.80147413  0.73497861  0.89473460  1  0.627254  0  0.517738  0.406473  0  1.924628  0
H  H4  1  0.02653771  0.29475833  0.36885969  1  0.072623  0  0.101175  0.105849  0  1.038107  0
H  H5  1  0.52653879  0.20524146  0.13114038  1  0.072667  0  0.101166  0.105781  0  1.038116  0
H  H6  1  0.97346532  0.70523990  0.63113715  1  0.072648  0  0.101172  0.105818  0  1.038126  0
H  H7  1  0.47346200  0.79475939  0.86886173  1  0.072602  0  0.101202  0.105879  0  1.038087  0
H  H8  1  0.35572982  0.60860653  0.41668801  1  0.115969  0  0.104166  0.121574  0  1.052218  0
H  H9  1  0.85573404  0.89139308  0.08331320  1  0.116006  0  0.104135  0.121518  0  1.052294  0
H  H10  1  0.64426761  0.39139171  0.58331349  1  0.116001  0  0.104155  0.121534  0  1.052253  0
H  H11  1  0.14426787  0.10860908  0.91668844  1  0.115868  0  0.104135  0.12155  0  1.052236  0
H  H12  1  0.16745026  0.49343862  0.45085790  1  0.136621  0  0.12064  0.128458  0  0.991518  0
H  H13  1  0.66745319  0.00655934  0.04914458  1  0.136999  0  0.120649  0.128435  0  0.991541  0
H  H14  1  0.83254604  0.50655765  0.54914251  1  0.136923  0  0.120628  0.128486  0  0.991445  0
H  H15  1  0.33255208  0.99344217  0.95085859  1  0.136923  0  0.120654  0.128491  0  0.991425  0
H  H16  1  0.14262495  0.37928382  0.45919949  1  0.106418  0  0.118753  0.116643  0  1.000482  0
H  H17  1  0.64262578  0.12071346  0.04080134  1  0.106333  0  0.118742  0.116626  0  1.000527  0
H  H18  1  0.85737472  0.62071180  0.54079830  1  0.106591  0  0.11877  0.116658  0  1.000483  0
H  H19  1  0.35737725  0.87928739  0.95920181  1  0.106679  0  0.118743  0.11659  0  1.000525  0
H  H20  1  0.83579962  0.43268504  0.39870671  1  0.1262  0  0.101517  0.112829  0  1.045711  0
H  H21  1  0.33580463  0.06731568  0.10129477  1  0.126148  0  0.10154  0.11285  0  1.045679  0
H  H22  1  0.16420005  0.56731385  0.60129274  1  0.126213  0  0.101518  0.112832  0  1.045707  0
H  H23  1  0.66420289  0.93268452  0.89870680  1  0.12615  0  0.101496  0.112789  0  1.045763  0
H  H24  1  0.83652176  0.59612218  0.39130041  1  0.136003  0  0.099323  0.108053  0  1.036485  0
H  H25  1  0.33652760  0.90387872  0.10869975  1  0.135947  0  0.099289  0.108014  0  1.036542  0
H  H26  1  0.16347678  0.40387736  0.60869958  1  0.136005  0  0.099317  0.108051  0  1.036522  0
H  H27  1  0.66347655  0.09612017  0.89130023  1  0.136013  0  0.099297  0.108022  0  1.036548  0
H  H28  1  0.82777106  0.03986154  0.44392737  1  0.117198  0  0.107485  0.121309  0  1.016956  0
H  H29  1  0.32777633  0.46013918  0.05607357  1  0.116863  0  0.107434  0.121254  0  1.016892  0
H  H30  1  0.17222973  0.96013866  0.55607160  1  0.116798  0  0.107462  0.12129  0  1.016844  0
H  H31  1  0.67222894  0.53986233  0.94392649  1  0.117235  0  0.107461  0.121275  0  1.016828  0
H  H32  1  0.60220744  0.68038771  0.40068596  1  0.07732  0  0.10484  0.105592  0  0.999972  0
H  H33  1  0.10221297  0.81961298  0.09931250  1  0.077317  0  0.104831  0.105584  0  1.00004  0
H  H34  1  0.39778887  0.31961053  0.59931503  1  0.077282  0  0.104823  0.105556  0  0.999998  0
H  H35  1  0.89778782  0.18038918  0.90068706  1  0.077329  0  0.104852  0.105586  0  0.999977  0
H  H36  1  0.94669492  0.40397942  0.16919021  1  0.113723  0  0.097902  0.099572  0  1.053605  0
H  H37  1  0.44669179  0.09601944  0.33080945  1  0.113699  0  0.097884  0.099516  0  1.053666  0
H  H38  1  0.05330923  0.59602208  0.83080881  1  0.113736  0  0.097877  0.099521  0  1.053607  0
H  H39  1  0.55329891  0.90397945  0.66919104  1  0.113807  0  0.097914  0.099545  0  1.053589  0
H  H40  1  0.75803341  0.27787171  0.25854821  1  0.129992  0  0.110345  0.090549  0  1.051939  0
H  H41  1  0.25803050  0.22212829  0.24144889  1  0.129913  0  0.110363  0.090576  0  1.051892  0
H  H42  1  0.24197074  0.72212914  0.74144923  1  0.1299  0  0.110385  0.090617  0  1.051914  0
H  H43  1  0.74196580  0.77787191  0.75854957  1  0.129968  0  0.110355  0.090575  0  1.051886  0
H  H44  1  0.88031373  0.25300999  0.18729762  1  0.105511  0  0.119298  0.107551  0  1.018185  0
H  H45  1  0.38031069  0.24698815  0.31270131  1  0.105552  0  0.119282  0.107519  0  1.01827  0
H  H46  1  0.11968818  0.74698889  0.81269872  1  0.105594  0  0.119312  0.107575  0  1.01825  0
H  H47  1  0.61968561  0.75301270  0.68729872  1  0.105554  0  0.119274  0.107495  0  1.018288  0
H  H48  1  0.99234754  0.90597635  0.44221130  1  0.091743  0  0.097285  0.098413  0  1.051599  0
H  H49  1  0.49235764  0.59402207  0.05778973  1  0.092096  0  0.097248  0.098371  0  1.051677  0
H  H50  1  0.00765101  0.09402385  0.55778664  1  0.092031  0  0.097263  0.098407  0  1.051546  0
H  H51  1  0.50764764  0.40597747  0.94221078  1  0.092116  0  0.097264  0.098404  0  1.051604  0
H  H52  1  0.20274385  0.97664184  0.25024767  1  0.10796  0  0.106238  0.119738  0  1.012084  0
H  H53  1  0.70275057  0.52335567  0.24975356  1  0.107858  0  0.106186  0.119686  0  1.012074  0
H  H54  1  0.79725470  0.02335705  0.74975074  1  0.107973  0  0.106226  0.119719  0  1.01205  0
H  H55  1  0.29725358  0.47664191  0.75024533  1  0.107907  0  0.106216  0.119725  0  1.011996  0
H  H56  1  0.19546885  0.55053254  0.32567231  1  0.093665  0  0.105346  0.111792  0  1.010908  0
H  H57  1  0.69547215  0.94946561  0.17433048  1  0.093656  0  0.105348  0.111799  0  1.010834  0
H  H58  1  0.80453418  0.44946438  0.67432812  1  0.093848  0  0.105366  0.111857  0  1.010811  0
H  H59  1  0.30453200  0.05053459  0.82567420  1  0.093818  0  0.105374  0.111844  0  1.010844  0
H  H60  1  0.17009588  0.87441770  0.34774564  1  0.104058  0  0.101757  0.110805  0  1.017087  0
H  H61  1  0.67010490  0.62557912  0.15225600  1  0.1038  0  0.101807  0.11082  0  1.017085  0
H  H62  1  0.82990492  0.12558119  0.65225278  1  0.104054  0  0.101774  0.110838  0  1.017066  0
H  H63  1  0.32990037  0.37441977  0.84774501  1  0.103829  0  0.101802  0.110822  0  1.017117  0
H  H64  1  0.08694690  0.53715157  0.20723406  1  0.084728  0  0.105557  0.103774  0  0.99674  0
H  H65  1  0.58694394  0.96284649  0.29276738  1  0.084674  0  0.105564  0.103789  0  0.996769  0
H  H66  1  0.91305837  0.46284732  0.79276643  1  0.084716  0  0.105587  0.103802  0  0.996765  0
H  H67  1  0.41305012  0.03715371  0.70723523  1  0.084714  0  0.105557  0.103763  0  0.996699  0
H  H68  1  0.27586317  0.15167747  0.41366686  1  0.057651  0  0.094669  0.14562  0  1.016417  0
H  H69  1  0.77585949  0.34832386  0.08633292  1  0.057682  0  0.094654  0.14564  0  1.016398  0
H  H70  1  0.72412865  0.84832535  0.58633635  1  0.057557  0  0.094687  0.14567  0  1.016383  0
H  H71  1  0.22412448  0.65167830  0.91366197  1  0.057747  0  0.094679  0.145612  0  1.016379  0
H  H72  1  0.21444925  0.17202698  0.50163566  1  0.101954  0  0.09699  0.158938  0  1.024429  0
H  H73  1  0.71444756  0.32797387  0.99836388  1  0.10185  0  0.09697  0.158919  0  1.024473  0
H  H74  1  0.78554818  0.82797256  0.49837004  1  0.101971  0  0.097009  0.158971  0  1.024475  0
H  H75  1  0.28554538  0.67202894  0.00162896  1  0.101937  0  0.096962  0.158964  0  1.024589  0
H  H76  1  0.22973106  0.06337674  0.46653688  1  0.083143  0  0.10378  0.161426  0  0.994728  0
H  H77  1  0.72972351  0.43662389  0.03346120  1  0.082595  0  0.103743  0.161402  0  0.994694  0
H  H78  1  0.77026749  0.93662411  0.53346679  1  0.083156  0  0.103834  0.161497  0  0.994664  0
H  H79  1  0.27026495  0.56337893  0.96653113  1  0.083227  0  0.103832  0.161504  0  0.994673  0
H  H80  1  0.44973056  0.05638271  0.58476268  1  0.076155  0  0.105464  0.164029  0  1.000665  0
H  H81  1  0.94972580  0.44361966  0.91523705  1  0.076084  0  0.105463  0.164047  0  1.000628  0
H  H82  1  0.55027247  0.94361683  0.41523783  1  0.076179  0  0.105488  0.164084  0  1.000594  0
H  H83  1  0.05027387  0.55638185  0.08475938  1  0.076152  0  0.105469  0.164039  0  1.000631  0
H  H84  1  0.39598478  0.16736607  0.59601653  1  0.046584  0  0.102355  0.156843  0  0.989271  0
H  H85  1  0.89598075  0.33263626  0.90398409  1  0.046365  0  0.102409  0.156949  0  0.98918  0
H  H86  1  0.60402050  0.83263283  0.40398656  1  0.04703  0  0.102387  0.156882  0  0.989197  0
H  H87  1  0.10401892  0.66736590  0.09601236  1  0.047101  0  0.102356  0.156798  0  0.989231  0
H  H88  1  0.58929256  0.13958562  0.57742740  1  0.081118  0  0.101265  0.163595  0  1.006276  0
H  H89  1  0.08928896  0.36041839  0.92257396  1  0.08102  0  0.101274  0.163592  0  1.006246  0
H  H90  1  0.41070823  0.86041392  0.42257311  1  0.080962  0  0.10127  0.163576  0  1.006299  0
H  H91  1  0.91070846  0.63958377  0.07742456  1  0.080973  0  0.101273  0.163557  0  1.006291  0
C  C92  1  0.03980501  0.34730777  0.33267496  1  -0.063628  0  -0.097901  -0.205524  0  3.955599  0
C  C93  1  0.53980421  0.15268942  0.16732662  1  -0.064023  0  -0.097856  -0.205391  0  3.955721  0
C  C94  1  0.96019466  0.65269046  0.66732395  1  -0.063658  0  -0.097856  -0.205469  0  3.955705  0
C  C95  1  0.46019546  0.84730948  0.83267802  1  -0.063625  0  -0.097879  -0.205439  0  3.955547  0
C  C96  1  0.45822257  0.57013953  0.41228839  1  0.020659  0  -0.091981  -0.159596  0  3.974351  0
C  C97  1  0.95822469  0.92986082  0.08771261  1  0.020699  0  -0.091988  -0.159559  0  3.974105  0
C  C98  1  0.54177710  0.42985936  0.58771262  1  0.020623  0  -0.091979  -0.159564  0  3.974284  0
C  C99  1  0.04177610  0.07014134  0.91228902  1  0.020662  0  -0.091964  -0.159612  0  3.974159  0
C  C100  1  0.46005554  0.47870446  0.41566214  1  0.385774  0  0.106366  0.066068  0  4.021071  0
C  C101  1  0.96005897  0.02129573  0.08433967  1  0.385743  0  0.106453  0.066214  0  4.021159  0
C  C102  1  0.53994300  0.52129247  0.58433881  1  0.385653  0  0.106381  0.066118  0  4.021304  0
C  C103  1  0.03994518  0.97870644  0.91566300  1  0.385674  0  0.106427  0.066129  0  4.021005  0
C  C104  1  0.03195203  0.06534404  0.29331303  1  0.428981  0  0.09946  0.119929  0  4.067151  0
C  C105  1  0.53195573  0.43465445  0.20668909  1  0.429206  0  0.099432  0.119829  0  4.067174  0
C  C106  1  0.96804652  0.93465485  0.70668487  1  0.428813  0  0.099466  0.119961  0  4.067113  0
C  C107  1  0.46804058  0.56534313  0.79331187  1  0.429173  0  0.099544  0.119987  0  4.066968  0
C  C108  1  0.97407019  0.34099633  0.26674127  1  -0.01742  0  -0.015693  0.097089  0  3.989576  0
C  C109  1  0.47406816  0.15900386  0.23325747  1  -0.017094  0  -0.01573  0.097017  0  3.989621  0
C  C110  1  0.02593172  0.65900452  0.73325617  1  -0.017408  0  -0.015663  0.097137  0  3.989515  0
C  C111  1  0.52592815  0.84099765  0.76674259  1  -0.017417  0  -0.015664  0.097079  0  3.989554  0
C  C112  1  0.92538189  0.08185191  0.34750711  1  0.356907  0  0.103307  0.131099  0  4.056114  0
C  C113  1  0.42538497  0.41814824  0.15249408  1  0.357031  0  0.103252  0.131084  0  4.055922  0
C  C114  1  0.07462002  0.91814763  0.65249029  1  0.357275  0  0.103316  0.131187  0  4.055754  0
C  C115  1  0.57461694  0.58185327  0.84750753  1  0.357008  0  0.103286  0.13112  0  4.055901  0
C  C116  1  0.59403081  0.42986283  0.41120431  1  0.323381  0  0.091066  0.100668  0  4.105834  0
C  C117  1  0.09403342  0.07013703  0.08879699  1  0.323363  0  0.091074  0.100594  0  4.105886  0
C  C118  1  0.40596774  0.57013476  0.58879562  1  0.323356  0  0.091019  0.100564  0  4.105908  0
C  C119  1  0.90597298  0.92986317  0.91120406  1  0.323418  0  0.091016  0.100576  0  4.105889  0
C  C120  1  0.12001555  0.42231958  0.35412764  1  -0.019423  0  -0.011684  0.105572  0  3.967949  0
C  C121  1  0.62001766  0.07767899  0.14587421  1  -0.019386  0  -0.01172  0.105534  0  3.967947  0
C  C122  1  0.87998524  0.57767865  0.64587180  1  -0.019384  0  -0.011676  0.105606  0  3.967945  0
C  C123  1  0.37998537  0.92232187  0.85412894  1  -0.01942  0  -0.011731  0.105489  0  3.96802  0
C  C124  1  0.18839279  0.42885865  0.42579711  1  0.29082  0  -0.044807  -0.149679  0  3.872847  0
C  C125  1  0.68839394  0.07113933  0.07420492  1  0.290585  0  -0.044783  -0.149546  0  3.872763  0
C  C126  1  0.81160801  0.57113697  0.57420224  1  0.290272  0  -0.044833  -0.149693  0  3.872715  0
C  C127  1  0.31160909  0.92886153  0.92579875  1  0.29066  0  -0.044758  -0.149631  0  3.872683  0
C  C128  1  0.73291783  0.47065035  0.40214073  1  0.037646  0  -0.086015  -0.133532  0  3.95236  0
C  C129  1  0.23292046  0.02934963  0.09785992  1  0.037546  0  -0.086043  -0.133537  0  3.952396  0
C  C130  1  0.26708296  0.52934854  0.59785924  1  0.037648  0  -0.085988  -0.133478  0  3.952331  0
C  C131  1  0.76708257  0.97065122  0.90214011  1  0.037617  0  -0.085983  -0.13345  0  3.952325  0
C  C132  1  0.73181022  0.56082082  0.39790544  1  -0.113089  0  -0.090713  -0.083044  0  3.980301  0
C  C133  1  0.23181493  0.93917933  0.10209440  1  -0.112981  0  -0.090674  -0.083006  0  3.980404  0
C  C134  1  0.26818833  0.43917741  0.60209451  1  -0.113288  0  -0.090719  -0.083094  0  3.980327  0
C  C135  1  0.76818698  0.06082087  0.89790613  1  -0.113148  0  -0.090729  -0.083087  0  3.980237  0
C  C136  1  0.90826473  0.02520876  0.40259477  1  -0.002959  0  -0.087678  -0.149407  0  3.957917  0
C  C137  1  0.40827282  0.47479269  0.09740590  1  -0.002775  0  -0.087559  -0.149283  0  3.957865  0
C  C138  1  0.09173157  0.97479340  0.59740375  1  -0.00241  0  -0.08762  -0.149353  0  3.957824  0
C  C139  1  0.59172685  0.52520686  0.90259254  1  -0.002852  0  -0.087648  -0.149382  0  3.958012  0
C  C140  1  0.59664768  0.60945025  0.40332358  1  -0.044772  0  -0.083276  -0.05965  0  3.97153  0
C  C141  1  0.09665445  0.89054913  0.09667638  1  -0.044789  0  -0.083278  -0.059693  0  3.97136  0
C  C142  1  0.40334975  0.39054864  0.59667692  1  -0.044561  0  -0.083221  -0.059565  0  3.971398  0
C  C143  1  0.90335082  0.10945369  0.90332476  1  -0.044536  0  -0.08327  -0.059616  0  3.971209  0
C  C144  1  0.99274131  0.40936482  0.22154727  1  -0.081694  0  -0.095228  -0.149272  0  3.99635  0
C  C145  1  0.49273860  0.09063343  0.27845354  1  -0.08159  0  -0.09518  -0.149131  0  3.99618  0
C  C146  1  0.00725836  0.59063538  0.77845223  1  -0.081644  0  -0.095238  -0.149212  0  3.996139  0
C  C147  1  0.50725322  0.90936546  0.72154903  1  -0.081699  0  -0.095317  -0.149319  0  3.996366  0
C  C148  1  0.87552015  0.26468427  0.24378015  1  0.263345  0  -0.044467  -0.170188  0  3.895907  0
C  C149  1  0.37551859  0.23531453  0.25621827  1  0.263432  0  -0.044488  -0.170222  0  3.896118  0
C  C150  1  0.12448176  0.73531528  0.75621777  1  0.263437  0  -0.044511  -0.170298  0  3.896185  0
C  C151  1  0.62447660  0.76468502  0.74378173  1  0.263471  0  -0.04443  -0.170141  0  3.895977  0
C  C152  1  0.99956181  0.95215655  0.40085952  1  -0.031386  0  -0.087127  -0.071857  0  3.981052  0
C  C153  1  0.49957011  0.54784056  0.09914045  1  -0.031803  0  -0.087092  -0.071826  0  3.981236  0
C  C154  1  0.00043786  0.04784233  0.59913889  1  -0.03176  0  -0.087137  -0.071923  0  3.981068  0
C  C155  1  0.50043629  0.45215898  0.90086006  1  -0.031567  0  -0.087052  -0.071783  0  3.981182  0
C  C156  1  0.12308991  0.98996920  0.29216895  1  -0.040009  0  -0.086467  -0.142852  0  3.960959  0
C  C157  1  0.62309605  0.51002889  0.20783311  1  -0.039959  0  -0.086397  -0.142878  0  3.960948  0
C  C158  1  0.87690864  0.01002838  0.70782942  1  -0.039965  0  -0.086491  -0.14295  0  3.960899  0
C  C159  1  0.37690810  0.48997131  0.79216846  1  -0.039981  0  -0.086496  -0.142925  0  3.960961  0
C  C160  1  0.13529412  0.49126719  0.30899363  1  -0.052756  0  -0.088702  -0.13106  0  3.945697  0
C  C161  1  0.63529332  0.00873205  0.19100932  1  -0.052774  0  -0.088658  -0.130998  0  3.945627  0
C  C162  1  0.86471115  0.50873105  0.69100684  1  -0.052933  0  -0.088706  -0.131116  0  3.945615  0
C  C163  1  0.36470523  0.99126815  0.80899536  1  -0.05302  0  -0.088726  -0.131131  0  3.945632  0
C  C164  1  0.10442783  0.93441113  0.34626016  1  -0.022413  0  -0.08739  -0.077662  0  3.976896  0
C  C165  1  0.60443563  0.56558892  0.15374192  1  -0.022003  0  -0.087462  -0.07761  0  3.976896  0
C  C166  1  0.89557072  0.06558973  0.65373780  1  -0.022541  0  -0.08737  -0.077586  0  3.976703  0
C  C167  1  0.39556517  0.43441128  0.84625862  1  -0.022436  0  -0.087442  -0.07764  0  3.976901  0
C  C168  1  0.44089437  0.12154754  0.49025674  1  0.911491  0  0.174834  0.595389  0  3.862812  0
C  C169  1  0.94088862  0.37845590  0.00974150  1  0.911181  0  0.17491  0.595426  0  3.86284  0
C  C170  1  0.55910306  0.87845528  0.50974285  1  0.911442  0  0.174868  0.595448  0  3.862907  0
C  C171  1  0.05909871  0.62154561  0.99025493  1  0.911591  0  0.174877  0.595535  0  3.862863  0
C  C172  1  0.07292171  0.48413526  0.24273595  1  -0.070647  0  -0.086009  -0.057586  0  4.011116  0
C  C173  1  0.57291842  0.01586262  0.25726418  1  -0.070702  0  -0.086035  -0.057695  0  4.011314  0
C  C174  1  0.92708244  0.51586429  0.75726404  1  -0.070684  0  -0.086048  -0.057667  0  4.011215  0
C  C175  1  0.42707564  0.98413627  0.74273683  1  -0.070593  0  -0.085977  -0.057523  0  4.01095  0
C  C176  1  0.28100052  0.12898789  0.46670393  1  -0.114113  0  -0.246007  -0.520854  0  3.8801  0
C  C177  1  0.78099395  0.37101278  0.03329584  1  -0.113279  0  -0.245948  -0.520819  0  3.880026  0
C  C178  1  0.71899578  0.87101427  0.53329978  1  -0.114026  0  -0.246089  -0.521031  0  3.880046  0
C  C179  1  0.21899675  0.62899134  0.96670119  1  -0.114313  0  -0.246039  -0.52099  0  3.880069  0
C  C180  1  0.47179889  0.12276067  0.56696718  1  -0.097471  0  -0.241513  -0.51839  0  3.862842  0
C  C181  1  0.97179309  0.37724237  0.93303315  1  -0.097074  0  -0.241602  -0.518529  0  3.862908  0
C  C182  1  0.52820526  0.87723953  0.43303440  1  -0.097745  0  -0.241585  -0.518482  0  3.862861  0
C  C183  1  0.02820321  0.62275783  0.06696323  1  -0.097752  0  -0.241569  -0.518372  0  3.862892  0
N  N184  1  0.55587636  0.34325363  0.41618205  1  -0.623677  0  -0.244186  -0.185522  0  3.663254  0
N  N185  1  0.05587797  0.15674619  0.08381914  1  -0.623721  0  -0.244135  -0.185372  0  3.662939  0
N  N186  1  0.44412555  0.65674526  0.58381844  1  -0.623609  0  -0.24417  -0.185389  0  3.663092  0
N  N187  1  0.94412618  0.84325466  0.91618142  1  -0.623666  0  -0.244159  -0.185452  0  3.663174  0
N  N188  1  0.85368321  0.15752410  0.33374907  1  -0.635417  0  -0.244861  -0.229981  0  3.421411  0
N  N189  1  0.35368518  0.34247533  0.16625035  1  -0.635492  0  -0.244845  -0.22997  0  3.421344  0
N  N190  1  0.14631759  0.84247545  0.66624833  1  -0.635892  0  -0.2449  -0.230052  0  3.421276  0
N  N191  1  0.64631449  0.65752356  0.83374963  1  -0.635661  0  -0.24485  -0.230043  0  3.421402  0
N  N192  1  0.40961792  0.33604064  0.42284698  1  -0.06842  0  -0.077078  -0.08943  0  3.141576  0
N  N193  1  0.90961820  0.16395819  0.07715465  1  -0.068356  0  -0.0772  -0.089656  0  3.141543  0
N  N194  1  0.59038287  0.66395694  0.57715398  1  -0.068289  0  -0.077099  -0.089495  0  3.141777  0
N  N195  1  0.09038595  0.83604267  0.92284695  1  -0.068533  0  -0.077099  -0.089568  0  3.141696  0
N  N196  1  0.02372270  0.13163313  0.24837377  1  -0.590237  0  -0.190475  -0.257896  0  3.084314  0
N  N197  1  0.52372571  0.36836666  0.25162681  1  -0.590364  0  -0.190374  -0.257663  0  3.084266  0
N  N198  1  0.97627697  0.86836641  0.75162311  1  -0.589957  0  -0.190411  -0.25782  0  3.084349  0
N  N199  1  0.47627396  0.63163419  0.74837374  1  -0.590624  0  -0.190483  -0.257879  0  3.084343  0
N  N200  1  0.35078770  0.41692292  0.42323459  1  -0.765135  0  -0.117531  0.140234  0  3.701675  0
N  N201  1  0.85079116  0.08307585  0.07676792  1  -0.765121  0  -0.117555  0.140175  0  3.701909  0
N  N202  1  0.64921197  0.58307466  0.57676638  1  -0.765116  0  -0.117536  0.140151  0  3.702098  0
N  N203  1  0.14921524  0.91692500  0.92323575  1  -0.765478  0  -0.117582  0.140319  0  3.701678  0
N  N204  1  0.91673759  0.18291457  0.27468756  1  -0.305307  0  -0.009938  0.306966  0  3.812787  0
N  N205  1  0.41674028  0.31708295  0.22531301  1  -0.305384  0  -0.010008  0.306821  0  3.812663  0
N  N206  1  0.08326320  0.81708431  0.72530982  1  -0.305366  0  -0.010021  0.306851  0  3.812745  0
N  N207  1  0.58326051  0.68291725  0.77468597  1  -0.305093  0  -0.009988  0.306943  0  3.812823  0
Cl  Cl208  1  0.91569236  0.27911444  0.54934582  1  3.011343  0  0.718698  1.282208  0  6.796183  0
Cl  Cl209  1  0.41569443  0.22088528  0.95065269  1  3.010927  0  0.71873  1.282181  0  6.796218  0
Cl  Cl210  1  0.08430731  0.72088510  0.45065365  1  3.010932  0  0.718754  1.282253  0  6.796197  0
Cl  Cl211  1  0.58430860  0.77911492  0.04934733  1  3.010931  0  0.718725  1.282302  0  6.796198  0
O  O212  1  0.54438919  0.11101007  0.44783384  1  -1.138718  0  -0.282414  -0.471563  0  2.191809  0
O  O213  1  0.04438753  0.38899367  0.05216745  1  -1.138643  0  -0.282447  -0.471599  0  2.191737  0
O  O214  1  0.45560711  0.88899340  0.55216629  1  -1.138734  0  -0.282438  -0.471572  0  2.191827  0
O  O215  1  0.95560541  0.61100588  0.94783254  1  -1.138852  0  -0.282409  -0.47161  0  2.191892  0
O  O216  1  0.90913477  0.36706026  0.52204736  1  -1.006654  0  -0.318206  -0.519631  0  2.108399  0
O  O217  1  0.40913589  0.13294076  0.97795221  1  -1.006623  0  -0.318175  -0.519573  0  2.108467  0
O  O218  1  0.09086490  0.63294125  0.47795270  1  -1.006644  0  -0.318172  -0.519595  0  2.108481  0
O  O219  1  0.59086602  0.86705878  0.02204882  1  -1.006614  0  -0.318145  -0.519564  0  2.108451  0
O  O220  1  0.05983896  0.26587968  0.58303306  1  -0.981091  0  -0.314415  -0.496881  0  2.061981  0
O  O221  1  0.55984049  0.23412038  0.91696705  1  -0.980747  0  -0.314451  -0.496911  0  2.061996  0
O  O222  1  0.94015958  0.73412052  0.41696747  1  -0.980714  0  -0.314439  -0.496913  0  2.061955  0
O  O223  1  0.44016142  0.76587851  0.08303292  1  -0.980701  0  -0.314426  -0.496898  0  2.061959  0
O  O224  1  0.79335804  0.26847077  0.59857128  1  -0.965456  0  -0.315719  -0.500372  0  2.055425  0
O  O225  1  0.29335949  0.23153015  0.90142848  1  -0.965456  0  -0.315692  -0.500341  0  2.055433  0
O  O226  1  0.20664051  0.73152943  0.40142822  1  -0.965455  0  -0.315724  -0.500377  0  2.055421  0
O  O227  1  0.70664242  0.76846939  0.09857307  1  -0.965531  0  -0.315764  -0.500469  0  2.055417  0
O  O228  1  0.90043441  0.21393037  0.49112930  1  -0.972016  0  -0.330159  -0.533215  0  2.177945  0
O  O229  1  0.40043980  0.28607041  0.00887030  1  -0.972008  0  -0.33022  -0.533247  0  2.177853  0
O  O230  1  0.09956414  0.78607048  0.50887022  1  -0.972018  0  -0.330226  -0.533264  0  2.177919  0
O  O231  1  0.59956547  0.71393044  0.99113026  1  -0.971971  0  -0.330194  -0.533248  0  2.177893  0
