# generated using pymatgen
data_Ag2H11C12S2(NO2)3
_symmetry_space_group_name_H-M   'P 1'
_cell_length_a   8.21482559
_cell_length_b   10.29186028
_cell_length_c   11.03435040
_cell_angle_alpha   89.21586629
_cell_angle_beta   73.33054659
_cell_angle_gamma   67.44053098
_symmetry_Int_Tables_number   1
_chemical_formula_structural   Ag2H11C12S2(NO2)3
_chemical_formula_sum   'Ag4 H22 C24 S4 N6 O12'
_cell_volume   820.40828652
_cell_formula_units_Z   2
loop_
 _symmetry_equiv_pos_site_id
 _symmetry_equiv_pos_as_xyz
  1  'x, y, z'
loop_
 _atom_site_type_symbol
 _atom_site_label
 _atom_site_symmetry_multiplicity
 _atom_site_fract_x
 _atom_site_fract_y
 _atom_site_fract_z
 _atom_site_occupancy
 _atom_site_hle17_bader_spin_density
 _atom_site_hle17_ddec_charge
 _atom_site_hle17_ddec_spin_density
 _atom_site_hle17_ddec_sum_bond_order
 _atom_site_hle17_magmom
 _atom_site_hse06_10hf_bader_spin_density
 _atom_site_hse06_10hf_ddec_charge
 _atom_site_hse06_10hf_ddec_spin_density
 _atom_site_hse06_10hf_ddec_sum_bond_order
 _atom_site_hse06_10hf_magmom
 _atom_site_hse06_bader_spin_density
 _atom_site_hse06_ddec_charge
 _atom_site_hse06_ddec_spin_density
 _atom_site_hse06_ddec_sum_bond_order
 _atom_site_hse06_magmom
 _atom_site_pbe_bader_spin_density
 _atom_site_pbe_cm5_charge
 _atom_site_pbe_ddec_charge
 _atom_site_pbe_ddec_spin_density
 _atom_site_pbe_ddec_sum_bond_order
 _atom_site_pbe_magmom
Ag  Ag0  1  0.39612552  0.44726638  0.34924772  1  0  0.52399  0  1.369903  0  0  0.368391  0  1.786887  0  0  0.397318  0  1.748107  0  0  0.471186  0.348389  0  1.813709  0
Ag  Ag1  1  0.60387359  0.55272865  0.65075040  1  0  0.523962  0  1.369895  0  0  0.368386  0  1.786854  0  0  0.397311  0  1.748079  0  0  0.471168  0.348385  0  1.813676  0
Ag  Ag2  1  0.49472828  0.80675493  0.09505323  1  0  0.711705  0  1.342575  0  0  0.601455  0  1.789895  0  0  0.626222  0  1.738004  0  0  0.501085  0.583874  0  1.826019  0
Ag  Ag3  1  0.50528266  0.19324646  0.90494788  1  0  0.711762  0  1.342666  0  0  0.601538  0  1.789983  0  0  0.626302  0  1.738092  0  0  0.501125  0.583959  0  1.826103  0
H  H4  1  0.23000087  0.74531791  0.48294449  1  0  0.09359  0  0.958951  0  0  0.100721  0  1.024084  0  0  0.103532  0  1.021427  0  0  0.116187  0.098684  0  1.025952  0
H  H5  1  0.77000191  0.25468241  0.51705013  1  0  0.093645  0  0.958903  0  0  0.100777  0  1.024041  0  0  0.10359  0  1.021381  0  0  0.116194  0.098736  0  1.025916  0
H  H6  1  0.91847156  0.94645253  0.56310325  1  0  0.110436  0  0.954139  0  0  0.121509  0  1.011058  0  0  0.124019  0  1.011436  0  0  0.111393  0.11973  0  1.010919  0
H  H7  1  0.08152836  0.05354568  0.43689831  1  0  0.110415  0  0.954147  0  0  0.121479  0  1.01107  0  0  0.12399  0  1.011446  0  0  0.111399  0.1197  0  1.010939  0
H  H8  1  0.65174690  0.93352832  0.50803064  1  0  0.122204  0  0.950877  0  0  0.13081  0  1.013432  0  0  0.134034  0  1.010786  0  0  0.114817  0.128333  0  1.015542  0
H  H9  1  0.34825204  0.06646672  0.49197477  1  0  0.122284  0  0.950693  0  0  0.13082  0  1.013338  0  0  0.134043  0  1.010694  0  0  0.11483  0.128344  0  1.015446  0
H  H10  1  0.01275698  0.51017332  0.32516574  1  0  0.10369  0  0.95821  0  0  0.112535  0  1.023289  0  0  0.115216  0  1.020797  0  0  0.119367  0.110574  0  1.025061  0
H  H11  1  0.98723707  0.48982385  0.67483973  1  0  0.103647  0  0.95828  0  0  0.112543  0  1.023295  0  0  0.115224  0  1.020801  0  0  0.119389  0.110581  0  1.025068  0
H  H12  1  0.49468977  0.13535096  0.27202523  1  0  0.091881  0  0.961251  0  0  0.099229  0  1.027921  0  0  0.102045  0  1.024969  0  0  0.117226  0.097019  0  1.030422  0
H  H13  1  0.50530857  0.86464302  0.72797487  1  0  0.091886  0  0.961323  0  0  0.099281  0  1.027931  0  0  0.102097  0  1.024978  0  0  0.11725  0.097066  0  1.03044  0
H  H14  1  0.77520291  0.91436963  0.18679458  1  0  0.127791  0  0.954882  0  0  0.136947  0  1.011227  0  0  0.140517  0  1.010117  0  0  0.110819  0.134453  0  1.012047  0
H  H15  1  0.22480145  0.08562752  0.81320246  1  0  0.12778  0  0.954909  0  0  0.136959  0  1.011232  0  0  0.140531  0  1.010119  0  0  0.110842  0.13446  0  1.012062  0
H  H16  1  0.08942521  0.92476585  0.13506620  1  0  0.09419  0  0.973032  0  0  0.104174  0  1.039364  0  0  0.106885  0  1.037038  0  0  0.105634  0.10221  0  1.041043  0
H  H17  1  0.91057715  0.07523765  0.86493029  1  0  0.094192  0  0.973169  0  0  0.104195  0  1.039484  0  0  0.106905  0  1.037159  0  0  0.105651  0.102231  0  1.04116  0
H  H18  1  0.80981220  0.37011276  0.27027640  1  0  0.101343  0  0.968012  0  0  0.107435  0  1.035317  0  0  0.110362  0  1.03284  0  0  0.117798  0.105375  0  1.036908  0
H  H19  1  0.19018004  0.62989074  0.72972033  1  0  0.101371  0  0.968033  0  0  0.107452  0  1.035349  0  0  0.110381  0  1.03286  0  0  0.117825  0.105392  0  1.036939  0
H  H20  1  0.00044427  0.62850612  0.06080065  1  0  0.181124  0  0.922356  0  0  0.197104  0  0.976972  0  0  0.199774  0  0.97618  0  0  0.118777  0.195048  0  0.977757  0
H  H21  1  0.99956432  0.37149739  0.93920001  1  0  0.181157  0  0.92227  0  0  0.197137  0  0.976893  0  0  0.199809  0  0.9761  0  0  0.118773  0.195078  0  0.977677  0
H  H22  1  0.16693566  0.46747899  0.08970743  1  0  0.167929  0  0.952914  0  0  0.180629  0  1.019503  0  0  0.183744  0  1.017129  0  0  0.114269  0.17832  0  1.02129  0
H  H23  1  0.83306880  0.53252769  0.91029132  1  0  0.167991  0  0.952853  0  0  0.180686  0  1.01943  0  0  0.1838  0  1.017059  0  0  0.114287  0.178377  0  1.021216  0
H  H24  1  0.18984934  0.51257643  0.93046191  1  0  0.164109  0  0.93517  0  0  0.178875  0  0.997109  0  0  0.18131  0  0.995809  0  0  0.115875  0.177101  0  0.998026  0
H  H25  1  0.81015783  0.48742496  0.06953816  1  0  0.164131  0  0.935139  0  0  0.178929  0  0.997044  0  0  0.181364  0  0.995744  0  0  0.115892  0.177155  0  0.997966  0
C  C26  1  0.10798493  0.74063678  0.46604404  1  0  0.120403  0  3.66234  0  0  0.087173  0  3.905544  0  0  0.095259  0  3.923356  0  0  0.046077  0.081882  0  3.893396  0
C  C27  1  0.89201360  0.25936672  0.53395413  1  0  0.120346  0  3.662337  0  0  0.087102  0  3.905538  0  0  0.095185  0  3.923345  0  0  0.046072  0.081814  0  3.893389  0
C  C28  1  0.93636708  0.85298503  0.50743623  1  0  -0.093736  0  3.707931  0  0  -0.104246  0  3.956706  0  0  -0.111663  0  3.977839  0  0  -0.077477  -0.099778  0  3.942756  0
C  C29  1  0.06363073  0.14701742  0.49256210  1  0  -0.093748  0  3.707897  0  0  -0.10422  0  3.956626  0  0  -0.111636  0  3.977753  0  0  -0.077492  -0.09976  0  3.94268  0
C  C30  1  0.78590434  0.84480360  0.47863759  1  0  0.001509  0  3.68242  0  0  -0.029441  0  3.92877  0  0  -0.023665  0  3.94592  0  0  -0.056207  -0.032695  0  3.917136  0
C  C31  1  0.21409230  0.15519356  0.52136555  1  0  0.001457  0  3.682205  0  0  -0.029447  0  3.928553  0  0  -0.023668  0  3.94571  0  0  -0.056206  -0.03271  0  3.916937  0
C  C32  1  0.81327650  0.72108532  0.41097719  1  0  -0.171491  0  3.744504  0  0  -0.138412  0  3.989785  0  0  -0.150561  0  4.012487  0  0  -0.017185  -0.130838  0  3.974692  0
C  C33  1  0.18672213  0.27891290  0.58902554  1  0  -0.17149  0  3.744484  0  0  -0.138416  0  3.989761  0  0  -0.15058  0  4.012492  0  0  -0.017169  -0.130842  0  3.974666  0
C  C34  1  0.98764729  0.60973991  0.37553253  1  0  0.107799  0  3.676469  0  0  0.068108  0  3.914478  0  0  0.07683  0  3.933084  0  0  0.045166  0.062437  0  3.90208  0
C  C35  1  0.01234960  0.39025936  0.62446692  1  0  0.10781  0  3.676425  0  0  0.068086  0  3.914451  0  0  0.076819  0  3.933037  0  0  0.045138  0.06242  0  3.902046  0
C  C36  1  0.63196261  0.13634398  0.25143871  1  0  0.132291  0  3.652402  0  0  0.096846  0  3.900187  0  0  0.105463  0  3.917083  0  0  0.051726  0.091096  0  3.889089  0
C  C37  1  0.36803627  0.86365635  0.74856033  1  0  0.132275  0  3.652416  0  0  0.096806  0  3.900184  0  0  0.105425  0  3.917085  0  0  0.051731  0.091056  0  3.889085  0
C  C38  1  0.78980525  0.01272654  0.20323099  1  0  -0.092483  0  3.680182  0  0  -0.101259  0  3.924818  0  0  -0.108996  0  3.945879  0  0  -0.075145  -0.096493  0  3.910914  0
C  C39  1  0.21019343  0.98727167  0.79676900  1  0  -0.092471  0  3.680317  0  0  -0.101284  0  3.924991  0  0  -0.109023  0  3.946053  0  0  -0.075185  -0.096518  0  3.911079  0
C  C40  1  0.96282984  0.01872732  0.17427199  1  0  -0.002503  0  3.692017  0  0  -0.028389  0  3.927831  0  0  -0.023604  0  3.946885  0  0  -0.062043  -0.031213  0  3.91488  0
C  C41  1  0.03716631  0.98127830  0.82572756  1  0  -0.002489  0  3.692117  0  0  -0.028449  0  3.927887  0  0  -0.023667  0  3.946945  0  0  -0.062069  -0.031269  0  3.914938  0
C  C42  1  0.97155678  0.14879693  0.19686049  1  0  -0.159235  0  3.732045  0  0  -0.125462  0  3.969314  0  0  -0.1375  0  3.993851  0  0  -0.014952  -0.117798  0  3.952958  0
C  C43  1  0.02843884  0.85120234  0.80313921  1  0  -0.159336  0  3.731994  0  0  -0.125385  0  3.969049  0  0  -0.137427  0  3.993587  0  0  -0.014954  -0.117723  0  3.952695  0
C  C44  1  0.80870548  0.26783079  0.24759965  1  0  0.098086  0  3.692325  0  0  0.059874  0  3.929319  0  0  0.067503  0  3.948899  0  0  0.042734  0.054992  0  3.916062  0
C  C45  1  0.19129454  0.73216742  0.75239735  1  0  0.09801  0  3.692345  0  0  0.059718  0  3.929369  0  0  0.067372  0  3.948919  0  0  0.04267  0.054839  0  3.916109  0
C  C46  1  0.25757564  0.63104998  0.04503947  1  0  0.452974  0  3.693096  0  0  0.437762  0  3.970828  0  0  0.4528  0  3.986398  0  0  0.221128  0.427161  0  3.960372  0
C  C47  1  0.74244127  0.36895672  0.95496854  1  0  0.453005  0  3.692857  0  0  0.437786  0  3.970592  0  0  0.452833  0  3.986157  0  0  0.221052  0.42718  0  3.960138  0
C  C48  1  0.14750139  0.55593581  0.03035020  1  0  -0.403504  0  3.708762  0  0  -0.463733  0  3.924697  0  0  -0.4689  0  3.928927  0  0  -0.212015  -0.459836  0  3.922  0
C  C49  1  0.85250270  0.44406664  0.96964957  1  0  -0.403674  0  3.708967  0  0  -0.463913  0  3.924921  0  0  -0.469082  0  3.929148  0  0  -0.212058  -0.460011  0  3.922224  0
S  S50  1  0.63306455  0.70538694  0.35978541  1  0  1.271327  0  5.725795  0  0  1.174487  0  6.24169  0  0  1.223342  0  6.219115  0  0  0.494056  1.140911  0  6.255804  0
S  S51  1  0.36693138  0.29460916  0.64021698  1  0  1.271301  0  5.725838  0  0  1.174465  0  6.241757  0  0  1.223323  0  6.219187  0  0  0.494018  1.140888  0  6.25587  0
S  S52  1  0.19016351  0.16297100  0.15678145  1  0  1.273907  0  5.714514  0  0  1.177317  0  6.227136  0  0  1.225914  0  6.206123  0  0  0.501256  1.143842  0  6.240316  0
S  S53  1  0.80983484  0.83703038  0.84321678  1  0  1.274165  0  5.714361  0  0  1.177547  0  6.226945  0  0  1.226144  0  6.205931  0  0  0.501384  1.14407  0  6.240131  0
N  N54  1  0.13300169  0.62023514  0.40141060  1  0  -0.289644  0  3.362462  0  0  -0.193281  0  3.638903  0  0  -0.214282  0  3.657043  0  0  -0.350165  -0.179161  0  3.626266  0
N  N55  1  0.86699696  0.37976307  0.59859122  1  0  -0.2896  0  3.362462  0  0  -0.193269  0  3.638945  0  0  -0.214259  0  3.657077  0  0  -0.350174  -0.179147  0  3.626306  0
N  N56  1  0.64122779  0.26160257  0.27312901  1  0  -0.288482  0  3.366592  0  0  -0.193764  0  3.644381  0  0  -0.214346  0  3.662273  0  0  -0.348123  -0.179754  0  3.631822  0
N  N57  1  0.35876787  0.73839669  0.72686887  1  0  -0.288408  0  3.366488  0  0  -0.193679  0  3.644277  0  0  -0.214277  0  3.662189  0  0  -0.348096  -0.179669  0  3.631718  0
N  N58  1  0.34443183  0.69339607  0.05789511  1  0  -0.517429  0  3.02465  0  0  -0.476123  0  3.356352  0  0  -0.492349  0  3.355531  0  0  -0.366663  -0.465175  0  3.357209  0
N  N59  1  0.65556606  0.30660637  0.94209958  1  0  -0.517467  0  3.024138  0  0  -0.476167  0  3.355867  0  0  -0.492394  0  3.355041  0  0  -0.366597  -0.465217  0  3.356726  0
O  O60  1  0.70307574  0.70035850  0.21934519  1  0  -0.695292  0  2.048734  0  0  -0.630831  0  2.326862  0  0  -0.655572  0  2.310762  0  0  -0.351757  -0.613108  0  2.337242  0
O  O61  1  0.29692493  0.29963336  0.78065627  1  0  -0.695226  0  2.048647  0  0  -0.630772  0  2.326775  0  0  -0.655524  0  2.3107  0  0  -0.351753  -0.613048  0  2.337149  0
O  O62  1  0.62383941  0.57022776  0.39860374  1  0  -0.680618  0  2.032809  0  0  -0.618263  0  2.31545  0  0  -0.6412  0  2.297029  0  0  -0.345236  -0.602209  0  2.32768  0
O  O63  1  0.37615712  0.42976941  0.60140395  1  0  -0.680556  0  2.032792  0  0  -0.618213  0  2.31545  0  0  -0.64114  0  2.297002  0  0  -0.345173  -0.602159  0  2.327678  0
O  O64  1  0.46553331  0.83010679  0.41989419  1  0  -0.638738  0  1.949938  0  0  -0.591154  0  2.196119  0  0  -0.612201  0  2.183556  0  0  -0.333877  -0.576205  0  2.204236  0
O  O65  1  0.53446522  0.16988930  0.58010495  1  0  -0.638806  0  1.949957  0  0  -0.591218  0  2.196137  0  0  -0.612267  0  2.183582  0  0  -0.333912  -0.576269  0  2.20425  0
O  O66  1  0.15726763  0.30119376  0.21486629  1  0  -0.667313  0  1.982915  0  0  -0.619998  0  2.245185  0  0  -0.641737  0  2.230942  0  0  -0.33789  -0.604671  0  2.254393  0
O  O67  1  0.84272635  0.69880869  0.78513372  1  0  -0.66734  0  1.982902  0  0  -0.620049  0  2.245198  0  0  -0.641792  0  2.23096  0  0  -0.337933  -0.604721  0  2.254404  0
O  O68  1  0.31052729  0.04333993  0.20732069  1  0  -0.668609  0  2.050039  0  0  -0.607147  0  2.329496  0  0  -0.630934  0  2.312629  0  0  -0.338829  -0.590185  0  2.340588  0
O  O69  1  0.68947322  0.95666463  0.79267798  1  0  -0.668648  0  2.050051  0  0  -0.607227  0  2.329587  0  0  -0.63101  0  2.312715  0  0  -0.338832  -0.590263  0  2.340681  0
O  O70  1  0.24803369  0.14922201  0.01587029  1  0  -0.683212  0  2.07959  0  0  -0.619874  0  2.365706  0  0  -0.64458  0  2.34977  0  0  -0.349021  -0.602301  0  2.376066  0
O  O71  1  0.75196718  0.85077937  0.98412833  1  0  -0.683321  0  2.079467  0  0  -0.61999  0  2.365608  0  0  -0.6447  0  2.349672  0  0  -0.349083  -0.602418  0  2.375971  0
