# generated using pymatgen
data_CuH8C4S2I
_symmetry_space_group_name_H-M   'P 1'
_cell_length_a   7.69447561
_cell_length_b   12.79424833
_cell_length_c   15.45363034
_cell_angle_alpha   90.00022084
_cell_angle_beta   89.99960538
_cell_angle_gamma   90.00001661
_symmetry_Int_Tables_number   1
_chemical_formula_structural   CuH8C4S2I
_chemical_formula_sum   'Cu8 H64 C32 S16 I8'
_cell_volume   1521.33312785
_cell_formula_units_Z   8
loop_
 _symmetry_equiv_pos_site_id
 _symmetry_equiv_pos_as_xyz
  1  'x, y, z'
loop_
 _atom_site_type_symbol
 _atom_site_label
 _atom_site_symmetry_multiplicity
 _atom_site_fract_x
 _atom_site_fract_y
 _atom_site_fract_z
 _atom_site_occupancy
 _atom_site_hle17_bader_spin_density
 _atom_site_hle17_ddec_charge
 _atom_site_hle17_ddec_spin_density
 _atom_site_hle17_ddec_sum_bond_order
 _atom_site_hle17_magmom
 _atom_site_hse06_10hf_bader_spin_density
 _atom_site_hse06_10hf_ddec_charge
 _atom_site_hse06_10hf_ddec_spin_density
 _atom_site_hse06_10hf_ddec_sum_bond_order
 _atom_site_hse06_10hf_magmom
 _atom_site_hse06_bader_spin_density
 _atom_site_hse06_ddec_charge
 _atom_site_hse06_ddec_spin_density
 _atom_site_hse06_ddec_sum_bond_order
 _atom_site_hse06_magmom
 _atom_site_pbe_bader_spin_density
 _atom_site_pbe_cm5_charge
 _atom_site_pbe_ddec_charge
 _atom_site_pbe_ddec_spin_density
 _atom_site_pbe_ddec_sum_bond_order
 _atom_site_pbe_magmom
Cu  Cu0  1  0.83807955  0.49675734  0.53729122  1  0  0.121639  0  2.340137  0  0  0.051842  0  2.832284  0  0  0.059795  0  2.783984  0  0  0.225697  0.048215  0  2.863685  0
Cu  Cu1  1  0.66192153  0.50324111  0.03729058  1  0  0.121637  0  2.340091  0  0  0.051835  0  2.832252  0  0  0.059783  0  2.783979  0  0  0.225696  0.048209  0  2.863665  0
Cu  Cu2  1  0.16192495  0.99675992  0.46271331  1  0  0.121661  0  2.340057  0  0  0.051851  0  2.832206  0  0  0.059812  0  2.783902  0  0  0.225723  0.048262  0  2.863596  0
Cu  Cu3  1  0.33807751  0.00324199  0.96270913  1  0  0.121658  0  2.340101  0  0  0.051863  0  2.832275  0  0  0.059804  0  2.783974  0  0  0.225697  0.048235  0  2.863668  0
Cu  Cu4  1  0.16192092  0.50324284  0.46270863  1  0  0.12167  0  2.340194  0  0  0.051864  0  2.832379  0  0  0.059806  0  2.784071  0  0  0.225718  0.048247  0  2.86376  0
Cu  Cu5  1  0.33807894  0.49675594  0.96270863  1  0  0.121608  0  2.340188  0  0  0.051808  0  2.832381  0  0  0.059729  0  2.784078  0  0  0.225689  0.048195  0  2.863776  0
Cu  Cu6  1  0.83807942  0.00324418  0.53728849  1  0  0.121613  0  2.340226  0  0  0.051788  0  2.832422  0  0  0.05974  0  2.784127  0  0  0.225703  0.048199  0  2.863816  0
Cu  Cu7  1  0.66192035  0.99675506  0.03729072  1  0  0.121622  0  2.340154  0  0  0.051818  0  2.832352  0  0  0.059748  0  2.784041  0  0  0.225688  0.048195  0  2.863736  0
H  H8  1  0.97919267  0.35715905  0.69358607  1  0  0.080089  0  0.977113  0  0  0.094309  0  1.043885  0  0  0.095486  0  1.044206  0  0  0.081225  0.093395  0  1.043781  0
H  H9  1  0.52080496  0.64283935  0.19359154  1  0  0.080115  0  0.977082  0  0  0.094343  0  1.043871  0  0  0.095521  0  1.044188  0  0  0.08121  0.093427  0  1.043764  0
H  H10  1  0.02080266  0.85716244  0.30641284  1  0  0.080088  0  0.977106  0  0  0.094331  0  1.043873  0  0  0.095508  0  1.044193  0  0  0.081203  0.093416  0  1.043769  0
H  H11  1  0.47919285  0.14283875  0.80640862  1  0  0.080076  0  0.977143  0  0  0.094328  0  1.043885  0  0  0.095505  0  1.044203  0  0  0.081217  0.093414  0  1.04378  0
H  H12  1  0.02080390  0.64284426  0.30641379  1  0  0.080088  0  0.977137  0  0  0.094313  0  1.043901  0  0  0.09549  0  1.04422  0  0  0.081217  0.093396  0  1.043796  0
H  H13  1  0.47919161  0.35715771  0.80640832  1  0  0.080092  0  0.977155  0  0  0.094334  0  1.043918  0  0  0.095511  0  1.044236  0  0  0.081203  0.09342  0  1.043814  0
H  H14  1  0.97919131  0.14284321  0.69358702  1  0  0.080078  0  0.977173  0  0  0.094326  0  1.043907  0  0  0.095503  0  1.044227  0  0  0.081231  0.09341  0  1.043803  0
H  H15  1  0.52080631  0.85715753  0.19359317  1  0  0.080116  0  0.977102  0  0  0.094318  0  1.04391  0  0  0.095494  0  1.044229  0  0  0.081198  0.093403  0  1.043806  0
H  H16  1  0.81509661  0.41917220  0.75501862  1  0  0.095524  0  0.956913  0  0  0.108116  0  1.025956  0  0  0.110051  0  1.02535  0  0  0.085252  0.106622  0  1.026574  0
H  H17  1  0.68489758  0.58082805  0.25502397  1  0  0.095558  0  0.956887  0  0  0.108142  0  1.025946  0  0  0.110078  0  1.025336  0  0  0.085254  0.106647  0  1.026561  0
H  H18  1  0.18490005  0.91917299  0.24498048  1  0  0.095511  0  0.956919  0  0  0.108101  0  1.025975  0  0  0.110036  0  1.025367  0  0  0.085249  0.106607  0  1.026592  0
H  H19  1  0.31509890  0.08082635  0.74497729  1  0  0.095609  0  0.956868  0  0  0.10816  0  1.025942  0  0  0.110095  0  1.025333  0  0  0.085256  0.106669  0  1.026556  0
H  H20  1  0.18489736  0.58082876  0.24497800  1  0  0.095558  0  0.956891  0  0  0.10814  0  1.025953  0  0  0.110076  0  1.025346  0  0  0.085249  0.106643  0  1.026569  0
H  H21  1  0.31509899  0.41917135  0.74497589  1  0  0.095548  0  0.956922  0  0  0.108134  0  1.025982  0  0  0.110069  0  1.025373  0  0  0.085256  0.106643  0  1.026599  0
H  H22  1  0.81509782  0.08082798  0.75502066  1  0  0.095585  0  0.956819  0  0  0.108158  0  1.025888  0  0  0.110094  0  1.02528  0  0  0.085269  0.106664  0  1.026505  0
H  H23  1  0.68489896  0.91917227  0.25502516  1  0  0.095515  0  0.95692  0  0  0.1081  0  1.025978  0  0  0.110036  0  1.025367  0  0  0.085242  0.106608  0  1.026594  0
H  H24  1  0.67421474  0.25000015  0.78831238  1  0  0.064292  0  0.969032  0  0  0.086109  0  1.027821  0  0  0.086611  0  1.028449  0  0  0.085491  0.085577  0  1.027613  0
H  H25  1  0.82577899  0.74999946  0.28831649  1  0  0.064327  0  0.96908  0  0  0.086073  0  1.027933  0  0  0.086576  0  1.028562  0  0  0.085483  0.085554  0  1.02771  0
H  H26  1  0.32577923  0.75000159  0.21168617  1  0  0.064373  0  0.969042  0  0  0.086125  0  1.027882  0  0  0.086628  0  1.02851  0  0  0.085494  0.085601  0  1.027667  0
H  H27  1  0.17421758  0.24999837  0.71168465  1  0  0.064288  0  0.969059  0  0  0.086051  0  1.027923  0  0  0.086552  0  1.028553  0  0  0.085453  0.085527  0  1.027706  0
H  H28  1  0.89460511  0.25000181  0.82084222  1  0  0.073188  0  0.960657  0  0  0.08401  0  1.037158  0  0  0.084344  0  1.03871  0  0  0.085003  0.083676  0  1.036109  0
H  H29  1  0.60539078  0.75000030  0.32084774  1  0  0.073148  0  0.961008  0  0  0.083994  0  1.037446  0  0  0.084321  0  1.039008  0  0  0.085026  0.083662  0  1.036393  0
H  H30  1  0.10538886  0.75000072  0.17915698  1  0  0.073111  0  0.960803  0  0  0.083963  0  1.037257  0  0  0.084293  0  1.038817  0  0  0.084986  0.083627  0  1.036211  0
H  H31  1  0.39460709  0.24999832  0.67915405  1  0  0.073118  0  0.960837  0  0  0.083967  0  1.037323  0  0  0.084294  0  1.038884  0  0  0.084983  0.083635  0  1.036268  0
H  H32  1  0.90161592  0.24999961  0.54513030  1  0  0.104548  0  0.966303  0  0  0.116786  0  1.033917  0  0  0.118281  0  1.033263  0  0  0.092564  0.115568  0  1.034632  0
H  H33  1  0.59838374  0.74999732  0.04513519  1  0  0.104555  0  0.966346  0  0  0.116783  0  1.033959  0  0  0.118279  0  1.033306  0  0  0.092555  0.115561  0  1.03468  0
H  H34  1  0.09837935  0.75000214  0.45486891  1  0  0.104553  0  0.966224  0  0  0.116783  0  1.033856  0  0  0.118276  0  1.033205  0  0  0.092564  0.115557  0  1.034585  0
H  H35  1  0.40161672  0.24999974  0.95486595  1  0  0.104573  0  0.966291  0  0  0.116799  0  1.033913  0  0  0.118296  0  1.033257  0  0  0.092569  0.115575  0  1.034642  0
H  H36  1  0.68777319  0.24999871  0.50145032  1  0  0.114073  0  0.985341  0  0  0.119921  0  1.059338  0  0  0.121546  0  1.059847  0  0  0.090825  0.11862  0  1.059196  0
H  H37  1  0.81222707  0.74999724  0.00145383  1  0  0.114121  0  0.985211  0  0  0.119957  0  1.059175  0  0  0.12159  0  1.059681  0  0  0.090821  0.118655  0  1.059037  0
H  H38  1  0.31222338  0.75000225  0.49854954  1  0  0.114084  0  0.985167  0  0  0.119939  0  1.059148  0  0  0.121565  0  1.059659  0  0  0.090823  0.118641  0  1.059001  0
H  H39  1  0.18777469  0.24999982  0.99854797  1  0  0.114092  0  0.985207  0  0  0.119935  0  1.059187  0  0  0.121562  0  1.059698  0  0  0.090825  0.118638  0  1.059044  0
H  H40  1  0.53186804  0.58112757  0.67275132  1  0  0.094548  0  0.947671  0  0  0.109858  0  1.011259  0  0  0.110963  0  1.01157  0  0  0.086336  0.108959  0  1.011241  0
H  H41  1  0.96813118  0.41887464  0.17275129  1  0  0.094571  0  0.947647  0  0  0.109881  0  1.011247  0  0  0.110989  0  1.011558  0  0  0.08634  0.108985  0  1.011228  0
H  H42  1  0.46814404  0.08112162  0.32725511  1  0  0.0946  0  0.947645  0  0  0.109889  0  1.011279  0  0  0.110993  0  1.011583  0  0  0.086325  0.108989  0  1.011266  0
H  H43  1  0.03186288  0.91887575  0.82725623  1  0  0.094565  0  0.947627  0  0  0.109861  0  1.011234  0  0  0.110968  0  1.011544  0  0  0.086325  0.108962  0  1.011217  0
H  H44  1  0.46813893  0.41887574  0.32725306  1  0  0.09452  0  0.947655  0  0  0.10981  0  1.01128  0  0  0.110914  0  1.011589  0  0  0.0863  0.108912  0  1.011262  0
H  H45  1  0.03186409  0.58112242  0.82725310  1  0  0.094572  0  0.947619  0  0  0.109868  0  1.011231  0  0  0.110972  0  1.01154  0  0  0.086313  0.108969  0  1.011217  0
H  H46  1  0.53185903  0.91888481  0.67273827  1  0  0.094639  0  0.947558  0  0  0.109917  0  1.011204  0  0  0.111022  0  1.011512  0  0  0.08631  0.109013  0  1.011194  0
H  H47  1  0.96813109  0.08111818  0.17274557  1  0  0.094608  0  0.947649  0  0  0.109904  0  1.011259  0  0  0.111007  0  1.011567  0  0  0.086321  0.109005  0  1.011247  0
H  H48  1  0.73428853  0.64655155  0.68457289  1  0  0.087551  0  0.949159  0  0  0.102674  0  1.013773  0  0  0.104035  0  1.013838  0  0  0.083607  0.101609  0  1.013876  0
H  H49  1  0.76571183  0.35345541  0.18457270  1  0  0.087554  0  0.949187  0  0  0.102696  0  1.013781  0  0  0.104058  0  1.013847  0  0  0.083607  0.101633  0  1.013881  0
H  H50  1  0.26572358  0.14654004  0.31542987  1  0  0.087535  0  0.949336  0  0  0.102686  0  1.013891  0  0  0.104042  0  1.013953  0  0  0.083646  0.101624  0  1.013987  0
H  H51  1  0.23428220  0.85345728  0.81542878  1  0  0.087581  0  0.94918  0  0  0.10272  0  1.01377  0  0  0.104083  0  1.013829  0  0  0.083649  0.101656  0  1.013871  0
H  H52  1  0.26572234  0.35345802  0.31542567  1  0  0.087534  0  0.949243  0  0  0.102682  0  1.013811  0  0  0.104044  0  1.01387  0  0  0.083642  0.101616  0  1.013915  0
H  H53  1  0.23428344  0.64653774  0.81542456  1  0  0.087576  0  0.949168  0  0  0.102686  0  1.013773  0  0  0.104043  0  1.013837  0  0  0.083629  0.101625  0  1.013869  0
H  H54  1  0.73428338  0.85346953  0.68457128  1  0  0.087518  0  0.949272  0  0  0.102686  0  1.013815  0  0  0.104046  0  1.013885  0  0  0.083585  0.101622  0  1.013908  0
H  H55  1  0.76571567  0.14653665  0.18456978  1  0  0.087618  0  0.949253  0  0  0.102752  0  1.013827  0  0  0.104108  0  1.01389  0  0  0.083648  0.101691  0  1.013923  0
H  H56  1  0.48999467  0.75001066  0.74669675  1  0  0.080407  0  0.940119  0  0  0.096791  0  1.007068  0  0  0.097921  0  1.007057  0  0  0.082776  0.095846  0  1.007263  0
H  H57  1  0.01000425  0.24999494  0.24669776  1  0  0.08037  0  0.940125  0  0  0.096774  0  1.007094  0  0  0.097891  0  1.007096  0  0  0.082754  0.095831  0  1.007291  0
H  H58  1  0.51001489  0.24999812  0.25330246  1  0  0.080321  0  0.940101  0  0  0.096742  0  1.007074  0  0  0.097866  0  1.007074  0  0  0.082774  0.095787  0  1.007282  0
H  H59  1  0.98999102  0.74999899  0.75330339  1  0  0.080327  0  0.940163  0  0  0.096778  0  1.007093  0  0  0.09791  0  1.007085  0  0  0.082764  0.095828  0  1.007297  0
H  H60  1  0.37962657  0.75000495  0.64607398  1  0  0.069758  0  0.973412  0  0  0.084926  0  1.042025  0  0  0.085999  0  1.042705  0  0  0.072274  0.084017  0  1.041734  0
H  H61  1  0.12037374  0.24999628  0.14607202  1  0  0.069732  0  0.973389  0  0  0.084896  0  1.042031  0  0  0.085969  0  1.042708  0  0  0.072263  0.083992  0  1.041735  0
H  H62  1  0.62038169  0.25000227  0.35392782  1  0  0.069651  0  0.973408  0  0  0.084824  0  1.042063  0  0  0.085896  0  1.042744  0  0  0.072229  0.083931  0  1.041758  0
H  H63  1  0.87962153  0.74999687  0.85392848  1  0  0.069664  0  0.973454  0  0  0.084828  0  1.04212  0  0  0.085901  0  1.042799  0  0  0.07225  0.083936  0  1.041812  0
H  H64  1  0.80127069  0.74999749  0.44871639  1  0  0.118371  0  0.931827  0  0  0.139299  0  0.983753  0  0  0.140343  0  0.983637  0  0  0.104824  0.138413  0  0.984125  0
H  H65  1  0.69873903  0.25000053  0.94871672  1  0  0.118317  0  0.931876  0  0  0.139268  0  0.983785  0  0  0.140305  0  0.983662  0  0  0.104789  0.138385  0  0.984157  0
H  H66  1  0.19873627  0.25000426  0.55128152  1  0  0.118371  0  0.931845  0  0  0.139296  0  0.983763  0  0  0.140354  0  0.983615  0  0  0.104819  0.138409  0  0.984138  0
H  H67  1  0.30126664  0.74999497  0.05128184  1  0  0.118353  0  0.931828  0  0  0.139294  0  0.983755  0  0  0.140347  0  0.98362  0  0  0.104818  0.13841  0  0.984128  0
H  H68  1  0.88406961  0.75000087  0.55749845  1  0  0.104308  0  0.984978  0  0  0.112922  0  1.058076  0  0  0.114946  0  1.057591  0  0  0.084474  0.111328  0  1.058701  0
H  H69  1  0.61593378  0.24999846  0.05750039  1  0  0.104409  0  0.984935  0  0  0.11291  0  1.058106  0  0  0.114928  0  1.057617  0  0  0.08447  0.111324  0  1.058729  0
H  H70  1  0.11593865  0.24999853  0.44249946  1  0  0.104447  0  0.984918  0  0  0.112892  0  1.058139  0  0  0.114908  0  1.057654  0  0  0.084451  0.111294  0  1.058766  0
H  H71  1  0.38406538  0.74999704  0.94249752  1  0  0.1044  0  0.984971  0  0  0.112879  0  1.058182  0  0  0.114894  0  1.057705  0  0  0.084457  0.111303  0  1.058796  0
C  C72  1  0.84310268  0.35065616  0.71433870  1  0  -0.1549  0  3.645115  0  0  -0.187889  0  3.900503  0  0  -0.189346  0  3.913295  0  0  -0.163023  -0.186811  0  3.891794  0
C  C73  1  0.65689337  0.64934468  0.21434307  1  0  -0.154933  0  3.645094  0  0  -0.187938  0  3.900471  0  0  -0.189394  0  3.913258  0  0  -0.16299  -0.186852  0  3.891749  0
C  C74  1  0.15689394  0.85065635  0.28566083  1  0  -0.154906  0  3.645179  0  0  -0.187916  0  3.900522  0  0  -0.189374  0  3.913316  0  0  -0.163006  -0.186837  0  3.891815  0
C  C75  1  0.34310445  0.14934317  0.78565840  1  0  -0.154999  0  3.645202  0  0  -0.18793  0  3.900505  0  0  -0.189384  0  3.91329  0  0  -0.163011  -0.186851  0  3.891789  0
C  C76  1  0.15689259  0.64934480  0.28566051  1  0  -0.155015  0  3.645248  0  0  -0.187979  0  3.900552  0  0  -0.189437  0  3.913342  0  0  -0.163029  -0.186892  0  3.891831  0
C  C77  1  0.34310320  0.35065551  0.78565808  1  0  -0.154992  0  3.645268  0  0  -0.187949  0  3.900572  0  0  -0.189402  0  3.913356  0  0  -0.163036  -0.186874  0  3.891865  0
C  C78  1  0.84310393  0.14934539  0.71433967  1  0  -0.154996  0  3.645199  0  0  -0.187971  0  3.900528  0  0  -0.189427  0  3.913317  0  0  -0.16304  -0.186892  0  3.891817  0
C  C79  1  0.65689602  0.85065623  0.21434339  1  0  -0.154956  0  3.645126  0  0  -0.187919  0  3.900461  0  0  -0.189373  0  3.913245  0  0  -0.163023  -0.186842  0  3.891752  0
C  C80  1  0.80818505  0.25000089  0.76390947  1  0  -0.095258  0  3.71012  0  0  -0.136453  0  3.965597  0  0  -0.137711  0  3.981309  0  0  -0.174171  -0.135264  0  3.954652  0
C  C81  1  0.69181161  0.74999940  0.26391340  1  0  -0.095267  0  3.710476  0  0  -0.136405  0  3.965931  0  0  -0.137664  0  3.981657  0  0  -0.174193  -0.135223  0  3.954972  0
C  C82  1  0.19181022  0.75000086  0.23608973  1  0  -0.095283  0  3.710256  0  0  -0.136423  0  3.965694  0  0  -0.137683  0  3.981413  0  0  -0.174153  -0.135244  0  3.954751  0
C  C83  1  0.30818496  0.24999844  0.73608775  1  0  -0.095114  0  3.710184  0  0  -0.136346  0  3.965764  0  0  -0.137605  0  3.981481  0  0  -0.174086  -0.135154  0  3.954806  0
C  C84  1  0.76311904  0.24999807  0.56162828  1  0  -0.21064  0  3.644957  0  0  -0.238569  0  3.906105  0  0  -0.238727  0  3.91487  0  0  -0.156097  -0.23851  0  3.900445  0
C  C85  1  0.73688040  0.74999737  0.06163205  1  0  -0.210669  0  3.644977  0  0  -0.238538  0  3.906069  0  0  -0.238715  0  3.914856  0  0  -0.156052  -0.238476  0  3.900404  0
C  C86  1  0.23687623  0.75000211  0.43837093  1  0  -0.210642  0  3.644823  0  0  -0.238545  0  3.905918  0  0  -0.238713  0  3.914697  0  0  -0.156082  -0.238485  0  3.900254  0
C  C87  1  0.26311877  0.24999969  0.93836975  1  0  -0.210678  0  3.644996  0  0  -0.238537  0  3.906025  0  0  -0.238712  0  3.914812  0  0  -0.156077  -0.238481  0  3.900364  0
C  C88  1  0.60635280  0.65027892  0.65289513  1  0  -0.145433  0  3.63641  0  0  -0.178309  0  3.889706  0  0  -0.178983  0  3.902364  0  0  -0.162608  -0.177761  0  3.881074  0
C  C89  1  0.89364669  0.34972398  0.15289448  1  0  -0.145446  0  3.636309  0  0  -0.178356  0  3.889693  0  0  -0.179035  0  3.902353  0  0  -0.162576  -0.177807  0  3.881055  0
C  C90  1  0.39365671  0.15027305  0.34710764  1  0  -0.145519  0  3.636441  0  0  -0.178351  0  3.889708  0  0  -0.178998  0  3.902327  0  0  -0.16258  -0.177798  0  3.881074  0
C  C91  1  0.10634863  0.84972442  0.84710828  1  0  -0.145435  0  3.636405  0  0  -0.178293  0  3.889742  0  0  -0.178967  0  3.902402  0  0  -0.162563  -0.177743  0  3.881102  0
C  C92  1  0.39365157  0.34972595  0.34710473  1  0  -0.14531  0  3.636215  0  0  -0.178144  0  3.889508  0  0  -0.178806  0  3.902149  0  0  -0.162509  -0.177597  0  3.880875  0
C  C93  1  0.10635118  0.65027073  0.84710602  1  0  -0.145446  0  3.636232  0  0  -0.178272  0  3.889557  0  0  -0.17893  0  3.902192  0  0  -0.162535  -0.177722  0  3.880923  0
C  C94  1  0.60635285  0.84973417  0.65289156  1  0  -0.145442  0  3.636223  0  0  -0.178323  0  3.889521  0  0  -0.179  0  3.902181  0  0  -0.162474  -0.177766  0  3.880879  0
C  C95  1  0.89364533  0.15026951  0.15289157  1  0  -0.145636  0  3.636496  0  0  -0.178475  0  3.889778  0  0  -0.179126  0  3.902398  0  0  -0.162601  -0.177923  0  3.881139  0
C  C96  1  0.50937140  0.75000737  0.67592046  1  0  -0.103073  0  3.715591  0  0  -0.140702  0  3.962675  0  0  -0.142804  0  3.978593  0  0  -0.179589  -0.139004  0  3.951657  0
C  C97  1  0.99062777  0.24999564  0.17592111  1  0  -0.102882  0  3.715502  0  0  -0.140558  0  3.962642  0  0  -0.142652  0  3.97856  0  0  -0.179511  -0.138859  0  3.951617  0
C  C98  1  0.49063816  0.24999985  0.32407939  1  0  -0.102797  0  3.715325  0  0  -0.140554  0  3.962589  0  0  -0.14266  0  3.978505  0  0  -0.179579  -0.138864  0  3.951568  0
C  C99  1  0.00936620  0.74999829  0.82408069  1  0  -0.102824  0  3.715518  0  0  -0.140561  0  3.962697  0  0  -0.14267  0  3.978621  0  0  -0.179554  -0.138869  0  3.951671  0
C  C100  1  0.76563037  0.75000077  0.51739416  1  0  -0.203431  0  3.604664  0  0  -0.234603  0  3.867778  0  0  -0.234528  0  3.875975  0  0  -0.149573  -0.23472  0  3.862391  0
C  C101  1  0.73437618  0.24999837  0.01739504  1  0  -0.203423  0  3.604789  0  0  -0.234495  0  3.867822  0  0  -0.23445  0  3.876165  0  0  -0.14949  -0.234617  0  3.86243  0
C  C102  1  0.23437920  0.25000176  0.48260375  1  0  -0.203495  0  3.604775  0  0  -0.234478  0  3.867783  0  0  -0.234463  0  3.876163  0  0  -0.149504  -0.234585  0  3.862391  0
C  C103  1  0.26562689  0.74999634  0.98260416  1  0  -0.203401  0  3.604681  0  0  -0.234509  0  3.867883  0  0  -0.234465  0  3.876175  0  0  -0.149526  -0.234645  0  3.862483  0
S  S104  1  0.70738908  0.36841235  0.61911668  1  0  0.075172  0  2.764896  0  0  0.094918  0  3.180449  0  0  0.095412  0  3.169784  0  0  -0.031817  0.094041  0  3.187841  0
S  S105  1  0.79261087  0.63158571  0.11912181  1  0  0.075174  0  2.764761  0  0  0.094919  0  3.180305  0  0  0.095415  0  3.169653  0  0  -0.031816  0.094038  0  3.1877  0
S  S106  1  0.29261014  0.86841300  0.38088097  1  0  0.075194  0  2.764857  0  0  0.094934  0  3.180405  0  0  0.095428  0  3.169747  0  0  -0.031817  0.094042  0  3.187812  0
S  S107  1  0.20738954  0.13158540  0.88088089  1  0  0.075154  0  2.764878  0  0  0.094875  0  3.180403  0  0  0.095376  0  3.169738  0  0  -0.031837  0.094001  0  3.187797  0
S  S108  1  0.29260488  0.63158627  0.38088253  1  0  0.075219  0  2.764838  0  0  0.094957  0  3.180385  0  0  0.095458  0  3.169716  0  0  -0.031814  0.094072  0  3.187777  0
S  S109  1  0.20739090  0.36841370  0.88088127  1  0  0.075201  0  2.764936  0  0  0.094928  0  3.180482  0  0  0.095436  0  3.169806  0  0  -0.031815  0.09405  0  3.187884  0
S  S110  1  0.70739162  0.13158405  0.61911824  1  0  0.075216  0  2.764864  0  0  0.094978  0  3.180396  0  0  0.095471  0  3.169732  0  0  -0.031831  0.094087  0  3.187803  0
S  S111  1  0.79260703  0.86841478  0.11912025  1  0  0.075196  0  2.764808  0  0  0.094941  0  3.180335  0  0  0.095447  0  3.169664  0  0  -0.031814  0.094062  0  3.187729  0
S  S112  1  0.64139951  0.63218693  0.53738949  1  0  0.071884  0  2.752796  0  0  0.089944  0  3.172359  0  0  0.08988  0  3.160834  0  0  -0.033577  0.089431  0  3.180447  0
S  S113  1  0.85860676  0.36781231  0.03739032  1  0  0.071836  0  2.75299  0  0  0.089907  0  3.172523  0  0  0.089847  0  3.161009  0  0  -0.03361  0.089394  0  3.180623  0
S  S114  1  0.35860999  0.13218784  0.46261451  1  0  0.071832  0  2.752968  0  0  0.08989  0  3.172465  0  0  0.089821  0  3.160948  0  0  -0.033615  0.089361  0  3.18057  0
S  S115  1  0.14139637  0.86781094  0.96261315  1  0  0.071793  0  2.752976  0  0  0.089867  0  3.172514  0  0  0.089808  0  3.160996  0  0  -0.033604  0.089355  0  3.180611  0
S  S116  1  0.35860226  0.36781716  0.46261101  1  0  0.071773  0  2.752994  0  0  0.089811  0  3.172515  0  0  0.089757  0  3.160983  0  0  -0.033655  0.089293  0  3.180607  0
S  S117  1  0.14139761  0.63218240  0.96261212  1  0  0.071778  0  2.752967  0  0  0.089855  0  3.172503  0  0  0.0898  0  3.160963  0  0  -0.03365  0.089338  0  3.180606  0
S  S118  1  0.64140217  0.86781703  0.53738404  1  0  0.071869  0  2.752852  0  0  0.089926  0  3.172445  0  0  0.089866  0  3.160919  0  0  -0.033606  0.089402  0  3.180548  0
S  S119  1  0.85860020  0.13218377  0.03738606  1  0  0.071865  0  2.75309  0  0  0.089907  0  3.172631  0  0  0.089852  0  3.161085  0  0  -0.033612  0.089394  0  3.180722  0
I  I120  1  0.88365618  0.43593355  0.37840928  1  0  -0.38438  0  1.504475  0  0  -0.330709  0  1.916298  0  0  -0.345417  0  1.882494  0  0  -0.190534  -0.320514  0  1.938936  0
I  I121  1  0.61634801  0.56406570  0.87841026  1  0  -0.384368  0  1.504464  0  0  -0.33071  0  1.916298  0  0  -0.34541  0  1.882497  0  0  -0.190526  -0.320506  0  1.938943  0
I  I122  1  0.11634439  0.93593138  0.62159117  1  0  -0.384383  0  1.504516  0  0  -0.330732  0  1.916402  0  0  -0.345445  0  1.882604  0  0  -0.190546  -0.320553  0  1.939049  0
I  I123  1  0.38365236  0.06406582  0.12159093  1  0  -0.384349  0  1.504448  0  0  -0.330698  0  1.916307  0  0  -0.345398  0  1.882498  0  0  -0.190517  -0.320491  0  1.93894  0
I  I124  1  0.11634949  0.56406350  0.62158992  1  0  -0.384351  0  1.504422  0  0  -0.330712  0  1.916323  0  0  -0.345423  0  1.882524  0  0  -0.190532  -0.320513  0  1.93896  0
I  I125  1  0.38364985  0.43593448  0.12159088  1  0  -0.384373  0  1.504449  0  0  -0.330716  0  1.916306  0  0  -0.345414  0  1.882503  0  0  -0.190529  -0.320515  0  1.938949  0
I  I126  1  0.88365998  0.06407349  0.37840934  1  0  -0.384345  0  1.504455  0  0  -0.330692  0  1.916327  0  0  -0.345402  0  1.882525  0  0  -0.190537  -0.320516  0  1.938981  0
I  I127  1  0.61634811  0.93593515  0.87840827  1  0  -0.384363  0  1.504455  0  0  -0.330704  0  1.916294  0  0  -0.345406  0  1.882487  0  0  -0.190528  -0.320503  0  1.938933  0
