# generated using pymatgen
data_Ag2H14C17N3O5
_symmetry_space_group_name_H-M   'P 1'
_cell_length_a   12.28492438
_cell_length_b   17.45778679
_cell_length_c   18.06041573
_cell_angle_alpha   90.00080353
_cell_angle_beta   90.00019930
_cell_angle_gamma   95.70728504
_symmetry_Int_Tables_number   1
_chemical_formula_structural   Ag2H14C17N3O5
_chemical_formula_sum   'Ag16 H112 C136 N24 O40'
_cell_volume   3854.17327331
_cell_formula_units_Z   8
loop_
 _symmetry_equiv_pos_site_id
 _symmetry_equiv_pos_as_xyz
  1  'x, y, z'
loop_
 _atom_site_type_symbol
 _atom_site_label
 _atom_site_symmetry_multiplicity
 _atom_site_fract_x
 _atom_site_fract_y
 _atom_site_fract_z
 _atom_site_occupancy
 _atom_site_pbe_bader_charge
 _atom_site_pbe_bader_spin_density
 _atom_site_pbe_cm5_charge
 _atom_site_pbe_ddec_charge
 _atom_site_pbe_ddec_spin_density
 _atom_site_pbe_ddec_sum_bond_order
 _atom_site_pbe_magmom
Ag  Ag0  1  0.20563582  0.01355729  0.29835392  1  0.555737  0  0.45519  0.290229  0  2.036124  0
Ag  Ag1  1  0.29436392  0.48645019  0.79834017  1  0.555895  0  0.455283  0.290283  0  2.03614  0
Ag  Ag2  1  0.79436494  0.98644292  0.70164811  1  0.555691  0  0.455271  0.29037  0  2.036119  0
Ag  Ag3  1  0.70563618  0.51355116  0.20165854  1  0.555854  0  0.455304  0.290344  0  2.036187  0
Ag  Ag4  1  0.25497220  0.00361149  0.45676887  1  0.482978  0  0.473313  0.322139  0  2.113454  0
Ag  Ag5  1  0.24501920  0.49639435  0.95676234  1  0.483027  0  0.473361  0.322233  0  2.113358  0
Ag  Ag6  1  0.74501675  0.99639159  0.54323206  1  0.4828  0  0.473299  0.322146  0  2.113304  0
Ag  Ag7  1  0.75497976  0.50361046  0.04324081  1  0.482875  0  0.473311  0.322157  0  2.113379  0
Ag  Ag8  1  0.49999273  0.49999204  0.50000019  1  0.585122  0  0.379716  0.426722  0  1.76815  0
Ag  Ag9  1  0.99999867  0.99999841  0.00000235  1  0.585191  0  0.379685  0.426713  0  1.768254  0
Ag  Ag10  1  0.99999804  0.50000748  0.50000353  1  0.564282  0  0.402517  0.456532  0  1.580856  0
Ag  Ag11  1  0.50001628  0.99998822  0.99999814  1  0.564287  0  0.402519  0.456512  0  1.580911  0
Ag  Ag12  1  0.74024682  0.51127034  0.48336581  1  0.476959  0  0.474025  0.278059  0  2.261679  0
Ag  Ag13  1  0.75975851  0.98872569  0.98336253  1  0.476936  0  0.474033  0.278111  0  2.261642  0
Ag  Ag14  1  0.25974417  0.48872987  0.51663290  1  0.477082  0  0.474026  0.278081  0  2.261682  0
Ag  Ag15  1  0.24024038  0.01127278  0.01662677  1  0.477003  0  0.474013  0.278027  0  2.261606  0
H  H16  1  0.43851201  0.98875179  0.26135830  1  0.145497  0  0.122426  0.103776  0  0.982587  0
H  H17  1  0.06147785  0.51123936  0.76135698  1  0.145297  0  0.122354  0.103682  0  0.982789  0
H  H18  1  0.56149460  0.01124957  0.73864318  1  0.145594  0  0.122421  0.103767  0  0.982603  0
H  H19  1  0.93849857  0.48875565  0.23864616  1  0.145534  0  0.122402  0.10374  0  0.982567  0
H  H20  1  0.55113438  0.88023075  0.23734053  1  0.133425  0  0.112762  0.12942  0  1.012791  0
H  H21  1  0.94886001  0.61976041  0.73734377  1  0.133501  0  0.112738  0.129339  0  1.012806  0
H  H22  1  0.44887208  0.11976946  0.76266649  1  0.133547  0  0.112751  0.129365  0  1.012778  0
H  H23  1  0.05112398  0.38023633  0.26266324  1  0.133597  0  0.112793  0.129397  0  1.012802  0
H  H24  1  0.27413576  0.72531551  0.31006396  1  0.113132  0  0.109375  0.122301  0  1.02001  0
H  H25  1  0.22585454  0.77468847  0.81006657  1  0.113436  0  0.109366  0.122268  0  1.019931  0
H  H26  1  0.72585654  0.27468239  0.68993198  1  0.113573  0  0.109343  0.122235  0  1.019966  0
H  H27  1  0.77414394  0.22531289  0.18992660  1  0.113665  0  0.109384  0.122326  0  1.01995  0
H  H28  1  0.17095563  0.83994209  0.32432785  1  0.105374  0  0.118194  0.093308  0  0.994711  0
H  H29  1  0.32904357  0.66006095  0.82433303  1  0.105365  0  0.118185  0.093288  0  0.994641  0
H  H30  1  0.82904529  0.16005927  0.67566477  1  0.10529  0  0.118179  0.093256  0  0.994646  0
H  H31  1  0.67095678  0.33993638  0.17566347  1  0.10533  0  0.118162  0.093234  0  0.994692  0
H  H32  1  0.64059310  0.10604856  0.48870448  1  0.074397  0  0.093497  0.083639  0  1.037884  0
H  H33  1  0.85940910  0.39394778  0.98870181  1  0.074446  0  0.093504  0.083665  0  1.037896  0
H  H34  1  0.35941335  0.89395165  0.51129977  1  0.0744  0  0.093468  0.083614  0  1.037959  0
H  H35  1  0.14058889  0.60605012  0.01129690  1  0.074425  0  0.093466  0.083598  0  1.037996  0
H  H36  1  0.60918959  0.20972748  0.57950206  1  0.073474  0  0.09726  0.076793  0  1.015409  0
H  H37  1  0.89081657  0.29027764  0.07950391  1  0.073346  0  0.09726  0.076878  0  1.015374  0
H  H38  1  0.39080994  0.79027560  0.42049499  1  0.073836  0  0.097254  0.076821  0  1.015434  0
H  H39  1  0.10918574  0.70972199  0.92049258  1  0.073752  0  0.097262  0.076832  0  1.015574  0
H  H40  1  0.76536217  0.22289728  0.48871926  1  0.097557  0  0.109083  0.110717  0  0.994219  0
H  H41  1  0.73463954  0.27710711  0.98871915  1  0.097544  0  0.109058  0.110693  0  0.994208  0
H  H42  1  0.23463728  0.77710523  0.51128499  1  0.097485  0  0.109088  0.110696  0  0.994195  0
H  H43  1  0.26535918  0.72289597  0.01127956  1  0.097632  0  0.109057  0.110644  0  0.994205  0
H  H44  1  0.73075746  0.25472205  0.36266973  1  0.075952  0  0.111986  0.11386  0  0.958162  0
H  H45  1  0.76924739  0.24526893  0.86267204  1  0.076119  0  0.112039  0.113933  0  0.958299  0
H  H46  1  0.26924216  0.74527585  0.63733120  1  0.075942  0  0.111976  0.113843  0  0.958229  0
H  H47  1  0.23075890  0.75473012  0.13732722  1  0.076104  0  0.111999  0.11387  0  0.958172  0
H  H48  1  0.53469935  0.25192179  0.32365156  1  0.055681  0  0.103784  0.086506  0  0.958725  0
H  H49  1  0.96529837  0.24807206  0.82365270  1  0.055906  0  0.103762  0.086497  0  0.958738  0
H  H50  1  0.46529734  0.74807842  0.67634771  1  0.055689  0  0.103796  0.086556  0  0.958703  0
H  H51  1  0.03471264  0.75192585  0.17635155  1  0.055671  0  0.10377  0.086483  0  0.958687  0
H  H52  1  0.61009252  0.12843146  0.36193011  1  0.093615  0  0.114048  0.118171  0  0.939924  0
H  H53  1  0.88990109  0.37156066  0.86192942  1  0.093424  0  0.114079  0.118142  0  0.939928  0
H  H54  1  0.38990864  0.87156587  0.63806916  1  0.093465  0  0.114034  0.118161  0  0.939986  0
H  H55  1  0.11010008  0.62843667  0.13806708  1  0.093394  0  0.114093  0.118158  0  0.940129  0
H  H56  1  0.45490465  0.28842544  0.55265253  1  0.11561  0  0.10101  0.115235  0  1.028613  0
H  H57  1  0.04510011  0.21158064  0.05265254  1  0.115586  0  0.101007  0.115251  0  1.0286  0
H  H58  1  0.54510083  0.71157938  0.44734562  1  0.115564  0  0.101005  0.11524  0  1.028586  0
H  H59  1  0.95489349  0.78841495  0.94734673  1  0.115578  0  0.100992  0.115267  0  1.028501  0
H  H60  1  0.41220042  0.30874148  0.41515745  1  0.056639  0  0.093314  0.098662  0  1.022453  0
H  H61  1  0.08779865  0.19125683  0.91515917  1  0.05664  0  0.093337  0.098697  0  1.02244  0
H  H62  1  0.58779830  0.69125584  0.58484292  1  0.056651  0  0.093317  0.098651  0  1.022448  0
H  H63  1  0.91220480  0.80873935  0.08484674  1  0.05671  0  0.093292  0.098609  0  1.022465  0
H  H64  1  0.43811515  0.53579726  0.63707029  1  0.65567  0  0.289538  0.382556  0  0.963681  0
H  H65  1  0.06188769  0.96421562  0.13707651  1  0.655863  0  0.289511  0.382602  0  0.963614  0
H  H66  1  0.56188267  0.46420525  0.36292731  1  0.655697  0  0.289502  0.382549  0  0.963668  0
H  H67  1  0.93811631  0.03579610  0.86292885  1  0.655689  0  0.289543  0.382614  0  0.963601  0
H  H68  1  0.56592084  0.52721437  0.64152764  1  0.625168  0  0.329062  0.404775  0  0.861525  0
H  H69  1  0.93408145  0.97279031  0.14152098  1  0.62525  0  0.32904  0.404754  0  0.861537  0
H  H70  1  0.43407365  0.47278756  0.35847439  1  0.625143  0  0.329042  0.404741  0  0.861544  0
H  H71  1  0.06592280  0.02721162  0.85847164  1  0.625142  0  0.329066  0.404775  0  0.861529  0
H  H72  1  0.85450337  0.43859342  0.59656661  1  0.636856  0  0.281126  0.370624  0  0.970474  0
H  H73  1  0.64550454  0.06140621  0.09656703  1  0.636771  0  0.281095  0.3706  0  0.970532  0
H  H74  1  0.14550487  0.56140794  0.40343431  1  0.636779  0  0.28108  0.370601  0  0.970527  0
H  H75  1  0.35450037  0.93858882  0.90343389  1  0.63683  0  0.281069  0.370598  0  0.970538  0
H  H76  1  0.87690046  0.53104154  0.61336256  1  0.657769  0  0.27925  0.369225  0  0.976235  0
H  H77  1  0.62310822  0.96896330  0.11335735  1  0.65738  0  0.279191  0.369179  0  0.976315  0
H  H78  1  0.12309558  0.46895982  0.38664723  1  0.658343  0  0.279216  0.369264  0  0.976225  0
H  H79  1  0.37690507  0.03103922  0.88664579  1  0.658037  0  0.27922  0.369284  0  0.976201  0
H  H80  1  0.74929887  0.68038651  0.24538186  1  0.146007  0  0.121822  0.10034  0  0.98664  0
H  H81  1  0.75068898  0.81960995  0.74538292  1  0.145795  0  0.121791  0.100308  0  0.986626  0
H  H82  1  0.25069945  0.31960794  0.75462239  1  0.145967  0  0.121839  0.100326  0  0.986618  0
H  H83  1  0.24930274  0.18039543  0.25461580  1  0.145881  0  0.121781  0.100295  0  0.986625  0
H  H84  1  0.64609391  0.79230656  0.27485468  1  0.094182  0  0.116503  0.125041  0  0.986393  0
H  H85  1  0.85389514  0.70768574  0.77486388  1  0.094452  0  0.116531  0.125159  0  0.98648  0
H  H86  1  0.35390954  0.20768961  0.72514292  1  0.094767  0  0.116477  0.125023  0  0.986382  0
H  H87  1  0.14609625  0.29231734  0.22514147  1  0.094819  0  0.116501  0.125098  0  0.986311  0
H  H88  1  0.34821570  0.64260076  0.23876391  1  0.10341  0  0.113032  0.122966  0  0.994589  0
H  H89  1  0.15178385  0.85739639  0.73876581  1  0.103522  0  0.113069  0.123083  0  0.994505  0
H  H90  1  0.65178409  0.35739829  0.76123757  1  0.103445  0  0.113019  0.122982  0  0.994615  0
H  H91  1  0.84820942  0.14260267  0.26123069  1  0.103332  0  0.113024  0.123018  0  0.994485  0
H  H92  1  0.46421604  0.53735510  0.21217867  1  0.143537  0  0.119919  0.103129  0  0.999699  0
H  H93  1  0.03578242  0.96263532  0.71217840  1  0.143474  0  0.119929  0.103087  0  0.999743  0
H  H94  1  0.53577977  0.46263302  0.78782115  1  0.143047  0  0.119957  0.103082  0  0.999836  0
H  H95  1  0.96421395  0.03736259  0.28781809  1  0.143428  0  0.119969  0.103058  0  0.999825  0
H  H96  1  0.86016803  0.90868026  0.46747476  1  0.041559  0  0.092533  0.080333  0  1.02964  0
H  H97  1  0.63983816  0.59131668  0.96749131  1  0.041234  0  0.092503  0.080317  0  1.029566  0
H  H98  1  0.13983461  0.09131591  0.53252119  1  0.041451  0  0.092493  0.080302  0  1.029642  0
H  H99  1  0.36016195  0.40867892  0.03252623  1  0.041369  0  0.092513  0.080307  0  1.029545  0
H  H100  1  0.86058523  0.80247495  0.37406645  1  0.058496  0  0.106622  0.089623  0  0.950478  0
H  H101  1  0.63941311  0.69751021  0.87407557  1  0.058692  0  0.1066  0.089536  0  0.950646  0
H  H102  1  0.13941847  0.19751719  0.62592784  1  0.058442  0  0.106635  0.089614  0  0.950573  0
H  H103  1  0.36058407  0.30247618  0.12592813  1  0.058506  0  0.106588  0.089609  0  0.950507  0
H  H104  1  0.72866624  0.79857458  0.48032241  1  0.078826  0  0.109225  0.108851  0  0.980263  0
H  H105  1  0.77133263  0.70142197  0.98032801  1  0.07876  0  0.109194  0.108796  0  0.980297  0
H  H106  1  0.27133761  0.20141872  0.51967409  1  0.078647  0  0.109228  0.108922  0  0.980491  0
H  H107  1  0.22866347  0.29859147  0.01967181  1  0.078462  0  0.109261  0.108981  0  0.980124  0
H  H108  1  0.79323575  0.77570794  0.60272925  1  0.074092  0  0.108008  0.105887  0  0.975765  0
H  H109  1  0.70676731  0.72429788  0.10273312  1  0.073737  0  0.10804  0.10601  0  0.975726  0
H  H110  1  0.20677168  0.22429341  0.39726558  1  0.073723  0  0.108008  0.105924  0  0.975715  0
H  H111  1  0.29323662  0.27570175  0.89726725  1  0.073961  0  0.108042  0.106011  0  0.975784  0
H  H112  1  0.99361294  0.76210335  0.61854298  1  0.053397  0  0.097322  0.075336  0  1.010935  0
H  H113  1  0.50639162  0.73790674  0.11854436  1  0.053406  0  0.097351  0.075282  0  1.011044  0
H  H114  1  0.00638660  0.23789397  0.38145407  1  0.053421  0  0.097327  0.075357  0  1.010857  0
H  H115  1  0.49361898  0.26210556  0.88145214  1  0.053518  0  0.09732  0.075307  0  1.010945  0
H  H116  1  0.93261175  0.89122848  0.58682469  1  0.076215  0  0.101356  0.087631  0  1.025006  0
H  H117  1  0.56737662  0.60877767  0.08683609  1  0.076058  0  0.101399  0.087608  0  1.024892  0
H  H118  1  0.06739307  0.10877172  0.41317126  1  0.076052  0  0.101421  0.087733  0  1.025149  0
H  H119  1  0.43261624  0.39123001  0.91317757  1  0.076108  0  0.101342  0.087608  0  1.025095  0
H  H120  1  0.01044844  0.71464654  0.38553970  1  0.092276  0  0.105479  0.117337  0  0.988148  0
H  H121  1  0.48956018  0.78534591  0.88554860  1  0.092461  0  0.10545  0.11736  0  0.988197  0
H  H122  1  0.98956201  0.28535309  0.61445292  1  0.092554  0  0.10549  0.117336  0  0.988206  0
H  H123  1  0.51044254  0.21464508  0.11444513  1  0.092415  0  0.105489  0.117271  0  0.988211  0
H  H124  1  0.07696001  0.69130978  0.51673206  1  0.066182  0  0.092777  0.092328  0  1.052749  0
H  H125  1  0.42304243  0.80869322  0.01673479  1  0.066017  0  0.09282  0.092468  0  1.052653  0
H  H126  1  0.92304579  0.30869733  0.48326278  1  0.066015  0  0.092769  0.092339  0  1.052706  0
H  H127  1  0.57695996  0.19130122  0.98325617  1  0.066086  0  0.092824  0.092439  0  1.052686  0
C  C128  1  0.40541029  0.92915049  0.26994182  1  0.468625  0  0.053502  0.103136  0  3.910507  0
C  C129  1  0.09459527  0.57084195  0.76994028  1  0.468549  0  0.053529  0.10315  0  3.910867  0
C  C130  1  0.59460284  0.07085088  0.73005855  1  0.468665  0  0.053431  0.103052  0  3.910803  0
C  C131  1  0.90539394  0.42915134  0.23006176  1  0.468675  0  0.053452  0.103148  0  3.910638  0
C  C132  1  0.46802956  0.86844102  0.25806136  1  -0.048745  0  -0.072895  -0.149913  0  3.90852  0
C  C133  1  0.03196761  0.63155008  0.75806271  1  -0.048775  0  -0.07288  -0.149777  0  3.90836  0
C  C134  1  0.53197641  0.13155573  0.74193790  1  -0.048348  0  -0.072862  -0.149815  0  3.908446  0
C  C135  1  0.96801874  0.36844609  0.24194099  1  -0.048387  0  -0.07294  -0.149928  0  3.908578  0
C  C136  1  0.42238910  0.79284710  0.27126315  1  0.002899  0  0.012522  0.098912  0  3.983143  0
C  C137  1  0.07760190  0.70714593  0.77126839  1  0.003001  0  0.012573  0.098842  0  3.982928  0
C  C138  1  0.57761280  0.20714966  0.72873944  1  0.002793  0  0.012511  0.098915  0  3.983062  0
C  C139  1  0.92238934  0.29285024  0.22873309  1  0.002628  0  0.012574  0.098914  0  3.98305  0
C  C140  1  0.31323968  0.78211322  0.29556915  1  -0.095459  0  -0.081605  -0.177247  0  3.953557  0
C  C141  1  0.18675801  0.71788594  0.79557423  1  -0.095611  0  -0.081588  -0.177195  0  3.953277  0
C  C142  1  0.68676109  0.21788123  0.70442735  1  -0.095723  0  -0.081558  -0.177215  0  3.953588  0
C  C143  1  0.81323632  0.28211484  0.20442393  1  -0.096031  0  -0.081636  -0.17736  0  3.953555  0
C  C144  1  0.25559771  0.84573769  0.30536663  1  0.501943  0  0.046375  0.089426  0  3.94326  0
C  C145  1  0.24440355  0.65426333  0.80536434  1  0.501899  0  0.046366  0.089445  0  3.943089  0
C  C146  1  0.74440712  0.15426251  0.69463153  1  0.501709  0  0.046403  0.089636  0  3.94332  0
C  C147  1  0.75559786  0.34573572  0.19462994  1  0.501826  0  0.046425  0.089599  0  3.943314  0
C  C148  1  0.46672486  0.09388169  0.50634887  1  1.354936  0  0.221823  0.505592  0  4.090159  0
C  C149  1  0.03326409  0.40611793  0.00634427  1  1.354334  0  0.221887  0.505549  0  4.090157  0
C  C150  1  0.53327028  0.90611909  0.49365870  1  1.354232  0  0.221832  0.505581  0  4.090214  0
C  C151  1  0.96673772  0.59388976  0.99365500  1  1.354405  0  0.221801  0.505598  0  4.090263  0
C  C152  1  0.57134715  0.14068732  0.47993463  1  -0.026878  0  -0.081443  -0.14553  0  3.814312  0
C  C153  1  0.92864962  0.35931119  0.97993220  1  -0.026706  0  -0.081409  -0.145532  0  3.814085  0
C  C154  1  0.42865572  0.85931634  0.52006796  1  -0.026579  0  -0.08133  -0.145371  0  3.814099  0
C  C155  1  0.07135293  0.64069017  0.02006762  1  -0.027143  0  -0.08132  -0.145455  0  3.814212  0
C  C156  1  0.59432640  0.21884969  0.52065684  1  0.018027  0  -0.076115  0.016293  0  3.810823  0
C  C157  1  0.90567688  0.28114879  0.02065860  1  0.018124  0  -0.076153  0.016205  0  3.810715  0
C  C158  1  0.40567452  0.78115166  0.47934021  1  0.017735  0  -0.076142  0.016146  0  3.81067  0
C  C159  1  0.09432803  0.71885199  0.97933845  1  0.0178  0  -0.076148  0.016177  0  3.810838  0
C  C160  1  0.69841930  0.25964484  0.48265534  1  -0.038036  0  -0.078243  -0.157401  0  3.802757  0
C  C161  1  0.80157985  0.24035313  0.98265821  1  -0.038015  0  -0.078208  -0.157392  0  3.802991  0
C  C162  1  0.30157690  0.74035766  0.51734227  1  -0.03816  0  -0.078296  -0.157362  0  3.802631  0
C  C163  1  0.19842546  0.75965053  0.01734050  1  -0.038228  0  -0.078257  -0.157366  0  3.802943  0
C  C164  1  0.73353595  0.33914284  0.51411809  1  1.338106  0  0.234716  0.509626  0  4.067029  0
C  C165  1  0.76646346  0.16085727  0.01412013  1  1.338116  0  0.234618  0.509362  0  4.067273  0
C  C166  1  0.26646277  0.66086024  0.48587785  1  1.338153  0  0.234705  0.509468  0  4.067147  0
C  C167  1  0.23354145  0.83914351  0.98587637  1  1.338265  0  0.234714  0.509568  0  4.067186  0
C  C168  1  0.67662608  0.36302129  0.39800846  1  1.340077  0  0.237284  0.517276  0  4.068895  0
C  C169  1  0.82337114  0.13697195  0.89800832  1  1.339441  0  0.237042  0.517092  0  4.068883  0
C  C170  1  0.32336499  0.63697948  0.60199192  1  1.340328  0  0.237109  0.516935  0  4.068936  0
C  C171  1  0.17663499  0.86303171  0.10199094  1  1.339456  0  0.237106  0.517139  0  4.06907  0
C  C172  1  0.67122694  0.27602478  0.40115176  1  0.028984  0  -0.078051  -0.151207  0  3.82695  0
C  C173  1  0.82877519  0.22396850  0.90115447  1  0.029314  0  -0.078052  -0.15137  0  3.827248  0
C  C174  1  0.32877235  0.72397657  0.59884696  1  0.028942  0  -0.07805  -0.15112  0  3.826903  0
C  C175  1  0.17122752  0.77603400  0.09884480  1  0.029407  0  -0.078002  -0.151198  0  3.827059  0
C  C176  1  0.55364466  0.24114317  0.38177919  1  0.029657  0  -0.076203  0.004398  0  3.850825  0
C  C177  1  0.94635569  0.25885558  0.88178153  1  0.02927  0  -0.076199  0.004412  0  3.851149  0
C  C178  1  0.44635692  0.75885703  0.61822008  1  0.029728  0  -0.076246  0.004262  0  3.851156  0
C  C179  1  0.05364987  0.74114405  0.11821995  1  0.029487  0  -0.076256  0.004242  0  3.850959  0
C  C180  1  0.55048571  0.15386893  0.39745930  1  -0.030784  0  -0.079235  -0.148821  0  3.829904  0
C  C181  1  0.94951142  0.34612372  0.89745618  1  -0.030684  0  -0.079234  -0.148693  0  3.83006  0
C  C182  1  0.44951456  0.84612782  0.60254329  1  -0.030859  0  -0.079174  -0.148756  0  3.830054  0
C  C183  1  0.05049560  0.65387476  0.10254419  1  -0.030162  0  -0.079218  -0.148503  0  3.829846  0
C  C184  1  0.43702086  0.11252844  0.38372720  1  1.387469  0  0.227119  0.510546  0  4.099626  0
C  C185  1  0.06297252  0.38747112  0.88372431  1  1.387278  0  0.227153  0.510505  0  4.099971  0
C  C186  1  0.56297925  0.88746716  0.61627927  1  1.387483  0  0.227196  0.510685  0  4.099865  0
C  C187  1  0.93702913  0.61252967  0.11627606  1  1.387029  0  0.227134  0.510455  0  4.100044  0
C  C188  1  0.49994562  0.26576656  0.50690487  1  -0.161773  0  -0.102211  -0.12985  0  3.89522  0
C  C189  1  0.00005668  0.23423537  0.00690618  1  -0.161766  0  -0.102222  -0.129879  0  3.89521  0
C  C190  1  0.50005384  0.73423595  0.49309107  1  -0.161649  0  -0.102102  -0.129656  0  3.894707  0
C  C191  1  0.99994757  0.76576656  0.99309364  1  -0.161644  0  -0.102207  -0.129909  0  3.895008  0
C  C192  1  0.47768476  0.27620314  0.43494478  1  -0.066633  0  -0.106684  -0.135252  0  3.920443  0
C  C193  1  0.02232081  0.22380008  0.93494624  1  -0.066688  0  -0.106695  -0.13527  0  3.920423  0
C  C194  1  0.52231730  0.72380052  0.56505338  1  -0.066626  0  -0.106724  -0.135322  0  3.920156  0
C  C195  1  0.97768817  0.77620071  0.06505469  1  -0.066671  0  -0.106643  -0.13514  0  3.920237  0
C  C196  1  0.66021577  0.67510786  0.24521893  1  0.515105  0  0.052254  0.105444  0  3.936557  0
C  C197  1  0.83977192  0.82488745  0.74522193  1  0.515643  0  0.052221  0.105433  0  3.936787  0
C  C198  1  0.33978067  0.32489062  0.75477978  1  0.515076  0  0.052234  0.105472  0  3.936228  0
C  C199  1  0.16022241  0.17511333  0.25477789  1  0.515571  0  0.05223  0.105473  0  3.93655  0
C  C200  1  0.60181857  0.73704896  0.26117850  1  -0.065246  0  -0.072122  -0.151816  0  3.925574  0
C  C201  1  0.89816581  0.76294544  0.76118134  1  -0.06656  0  -0.072176  -0.151972  0  3.925899  0
C  C202  1  0.39818528  0.26295010  0.73881911  1  -0.065814  0  -0.072174  -0.151914  0  3.925532  0
C  C203  1  0.10182453  0.23705592  0.23882291  1  -0.066428  0  -0.07214  -0.151855  0  3.925295  0
C  C204  1  0.48718673  0.72731630  0.25981620  1  0.014934  0  0.01123  0.093801  0  3.981944  0
C  C205  1  0.01280166  0.77267598  0.75982605  1  0.017225  0  0.01128  0.094017  0  3.981893  0
C  C206  1  0.51281493  0.27267872  0.74018251  1  0.01652  0  0.011304  0.093926  0  3.982038  0
C  C207  1  0.98718535  0.22731904  0.24017764  1  0.016577  0  0.01124  0.093806  0  3.981926  0
C  C208  1  0.43655200  0.65356704  0.24379166  1  0.015191  0  -0.075841  -0.155037  0  3.937407  0
C  C209  1  0.06344002  0.84642269  0.74379320  1  0.014036  0  -0.075962  -0.15539  0  3.937314  0
C  C210  1  0.56344543  0.34642683  0.75621093  1  0.013821  0  -0.075891  -0.155215  0  3.937475  0
C  C211  1  0.93654886  0.15357406  0.25620606  1  0.01456  0  -0.07585  -0.155123  0  3.937266  0
C  C212  1  0.50030497  0.59440756  0.22843731  1  0.443828  0  0.043237  0.087778  0  3.935023  0
C  C213  1  0.99968382  0.90558461  0.72843733  1  0.443476  0  0.04341  0.088028  0  3.935159  0
C  C214  1  0.49969116  0.40558285  0.77156473  1  0.443946  0  0.043319  0.087955  0  3.935141  0
C  C215  1  0.00030701  0.09441444  0.27156083  1  0.44336  0  0.043251  0.087937  0  3.935043  0
C  C216  1  0.02414758  0.91815895  0.42706671  1  1.361622  0  0.226108  0.509036  0  4.093805  0
C  C217  1  0.47585459  0.58183241  0.92707449  1  1.361619  0  0.226001  0.508859  0  4.09386  0
C  C218  1  0.97585766  0.08183838  0.57292757  1  1.361782  0  0.226028  0.508831  0  4.094062  0
C  C219  1  0.52414455  0.41816204  0.07293363  1  1.361595  0  0.226041  0.508952  0  4.094014  0
C  C220  1  0.92916712  0.87270300  0.46677527  1  -0.006743  0  -0.084104  -0.147182  0  3.838688  0
C  C221  1  0.57083279  0.62729566  0.96678551  1  -0.006795  0  -0.084059  -0.147153  0  3.838502  0
C  C222  1  0.07084137  0.12730009  0.53322012  1  -0.00719  0  -0.084028  -0.147059  0  3.838693  0
C  C223  1  0.42916634  0.37269879  0.03322372  1  -0.006533  0  -0.08412  -0.147096  0  3.838507  0
C  C224  1  0.88983210  0.79450615  0.43061662  1  0.01636  0  -0.072321  0.015625  0  3.820745  0
C  C225  1  0.61016690  0.70548735  0.93062246  1  0.016392  0  -0.072165  0.015955  0  3.820629  0
C  C226  1  0.11018168  0.20549406  0.56937656  1  0.016627  0  -0.072243  0.015729  0  3.820698  0
C  C227  1  0.38982434  0.29450306  0.06937680  1  0.0166  0  -0.07217  0.015637  0  3.820777  0
C  C228  1  0.79423383  0.76009902  0.48113007  1  -0.009904  0  -0.08104  -0.160912  0  3.820855  0
C  C229  1  0.70576196  0.73989870  0.98113548  1  -0.009453  0  -0.081033  -0.160899  0  3.82101  0
C  C230  1  0.20578109  0.23989774  0.51886699  1  -0.009159  0  -0.081054  -0.161063  0  3.821377  0
C  C231  1  0.29422040  0.26010380  0.01886600  1  -0.009086  0  -0.081077  -0.161054  0  3.820938  0
C  C232  1  0.75001566  0.68051901  0.45474581  1  1.342585  0  0.228515  0.507668  0  4.09846  0
C  C233  1  0.74997814  0.81947716  0.95475019  1  1.34248  0  0.228523  0.507598  0  4.098401  0
C  C234  1  0.24998828  0.31947486  0.54525401  1  1.34146  0  0.228513  0.507646  0  4.098413  0
C  C235  1  0.25000951  0.18052247  0.04525351  1  1.342317  0  0.228511  0.50757  0  4.098652  0
C  C236  1  0.81583505  0.65896348  0.56950888  1  1.356756  0  0.228829  0.499447  0  4.103447  0
C  C237  1  0.68417225  0.84103897  0.06951482  1  1.357213  0  0.228895  0.499406  0  4.10325  0
C  C238  1  0.18416693  0.34103961  0.43049039  1  1.358045  0  0.228809  0.499349  0  4.103461  0
C  C239  1  0.31582696  0.15896181  0.93049053  1  1.356973  0  0.228885  0.499309  0  4.103363  0
C  C240  1  0.83665556  0.74603556  0.55977439  1  -0.011257  0  -0.078919  -0.152291  0  3.819905  0
C  C241  1  0.66334344  0.75396616  0.05978409  1  -0.011273  0  -0.078913  -0.152388  0  3.820124  0
C  C242  1  0.16334959  0.25396695  0.44022211  1  -0.011384  0  -0.078875  -0.152216  0  3.819996  0
C  C243  1  0.33665341  0.24603519  0.94021794  1  -0.01135  0  -0.078909  -0.152362  0  3.819976  0
C  C244  1  0.96110387  0.77234364  0.56350718  1  0.01292  0  -0.080402  0.00763  0  3.840531  0
C  C245  1  0.53889915  0.72766332  0.06351015  1  0.013199  0  -0.080572  0.007495  0  3.841018  0
C  C246  1  0.03890104  0.22765715  0.43649153  1  0.012918  0  -0.080483  0.007395  0  3.840799  0
C  C247  1  0.46110226  0.27234149  0.93648801  1  0.012647  0  -0.080456  0.007602  0  3.840372  0
C  C248  1  0.97382201  0.85916299  0.54449604  1  -0.040085  0  -0.085464  -0.155424  0  3.828133  0
C  C249  1  0.52617597  0.64084368  0.04450169  1  -0.04024  0  -0.085476  -0.155391  0  3.828316  0
C  C250  1  0.02618664  0.14083549  0.45549769  1  -0.039806  0  -0.085501  -0.155529  0  3.82868  0
C  C251  1  0.47382185  0.35916458  0.95550423  1  -0.040019  0  -0.085416  -0.155386  0  3.828419  0
C  C252  1  0.09321554  0.89314669  0.54014265  1  1.336097  0  0.223844  0.502945  0  4.088594  0
C  C253  1  0.40678610  0.60686127  0.04014206  1  1.336295  0  0.22383  0.502889  0  4.088665  0
C  C254  1  0.90679816  0.10685294  0.45985108  1  1.336178  0  0.223755  0.502998  0  4.088863  0
C  C255  1  0.59321001  0.39314642  0.95986274  1  1.336769  0  0.223651  0.502723  0  4.088947  0
C  C256  1  0.97993650  0.74191368  0.43465780  1  -0.099648  0  -0.098712  -0.125329  0  3.899863  0
C  C257  1  0.52006684  0.75808162  0.93466360  1  -0.100231  0  -0.098741  -0.125421  0  3.900046  0
C  C258  1  0.02006719  0.25808423  0.56533759  1  -0.099928  0  -0.098734  -0.125389  0  3.899797  0
C  C259  1  0.47993205  0.24191110  0.06533069  1  -0.100029  0  -0.098852  -0.125266  0  3.899962  0
C  C260  1  0.01557170  0.72998358  0.50356644  1  -0.09721  0  -0.106687  -0.135651  0  3.938354  0
C  C261  1  0.48443724  0.77002556  0.00357045  1  -0.096778  0  -0.106659  -0.13572  0  3.938372  0
C  C262  1  0.98443183  0.27001893  0.49642950  1  -0.096815  0  -0.106686  -0.135553  0  3.938267  0
C  C263  1  0.51557369  0.22997753  0.99642383  1  -0.096714  0  -0.106674  -0.13574  0  3.938215  0
N  N264  1  0.30070270  0.91811997  0.29279437  1  -1.171602  0  -0.35228  -0.180807  0  3.653508  0
N  N265  1  0.19929871  0.58187684  0.79279266  1  -1.171702  0  -0.352287  -0.180772  0  3.653755  0
N  N266  1  0.69930538  0.08188024  0.70720213  1  -1.171832  0  -0.352292  -0.18096  0  3.653879  0
N  N267  1  0.80069122  0.41812163  0.20720162  1  -1.17185  0  -0.352311  -0.180835  0  3.653787  0
N  N268  1  0.39555113  0.07879542  0.44742092  1  -1.199903  0  -0.414649  -0.477723  0  3.542423  0
N  N269  1  0.10443938  0.42121028  0.94741360  1  -1.199258  0  -0.414815  -0.477745  0  3.542466  0
N  N270  1  0.60444637  0.92120479  0.55259108  1  -1.199131  0  -0.414818  -0.477877  0  3.542539  0
N  N271  1  0.89556113  0.57879395  0.05258788  1  -1.198958  0  -0.414758  -0.477749  0  3.54256  0
N  N272  1  0.71731135  0.39515014  0.46276581  1  -1.21705  0  -0.421477  -0.492052  0  3.617208  0
N  N273  1  0.78268920  0.10484695  0.96276848  1  -1.216427  0  -0.421389  -0.491814  0  3.61706  0
N  N274  1  0.28269015  0.60484949  0.53723235  1  -1.216453  0  -0.421408  -0.49186  0  3.617037  0
N  N275  1  0.21731335  0.89515440  0.03723134  1  -1.216387  0  -0.421412  -0.491897  0  3.617243  0
N  N276  1  0.61056656  0.60502689  0.22853496  1  -1.229561  0  -0.353126  -0.178533  0  3.624034  0
N  N277  1  0.88943004  0.89496874  0.72853901  1  -1.229465  0  -0.353197  -0.17863  0  3.624519  0
N  N278  1  0.38943477  0.39497159  0.77146763  1  -1.229555  0  -0.353152  -0.178524  0  3.6239  0
N  N279  1  0.11056412  0.10503088  0.27146136  1  -1.229499  0  -0.353054  -0.178552  0  3.624109  0
N  N280  1  0.11268797  0.93076100  0.47337425  1  -1.162836  0  -0.415397  -0.48269  0  3.531855  0
N  N281  1  0.38730941  0.56924084  0.97337612  1  -1.162429  0  -0.415457  -0.482752  0  3.532032  0
N  N282  1  0.88731760  0.06923864  0.52662059  1  -1.162592  0  -0.415415  -0.482656  0  3.531771  0
N  N283  1  0.61268630  0.43076397  0.02663422  1  -1.163253  0  -0.415324  -0.482635  0  3.531775  0
N  N284  1  0.76629776  0.62603776  0.50840868  1  -1.203864  0  -0.423999  -0.490746  0  3.62531  0
N  N285  1  0.73370030  0.87395916  0.00841186  1  -1.203944  0  -0.424117  -0.490818  0  3.625432  0
N  N286  1  0.23369657  0.37396302  0.49159003  1  -1.204075  0  -0.423992  -0.490641  0  3.625231  0
N  N287  1  0.26628784  0.12604392  0.99158962  1  -1.203966  0  -0.424047  -0.490548  0  3.625424  0
O  O288  1  0.91284780  0.48264309  0.60271634  1  -1.20964  0  -0.578704  -0.690194  0  2.199659  0
O  O289  1  0.58715657  0.01736009  0.10270939  1  -1.20921  0  -0.578605  -0.690141  0  2.199807  0
O  O290  1  0.08715694  0.51736230  0.39729511  1  -1.210221  0  -0.57858  -0.690193  0  2.199652  0
O  O291  1  0.41284874  0.98263781  0.89729209  1  -1.209976  0  -0.5786  -0.690216  0  2.199628  0
O  O292  1  0.49789388  0.50324053  0.62054671  1  -1.201613  0  -0.564001  -0.692775  0  2.198873  0
O  O293  1  0.00210591  0.99676865  0.12054548  1  -1.201928  0  -0.563984  -0.692813  0  2.198805  0
O  O294  1  0.50209841  0.49675737  0.37946086  1  -1.20166  0  -0.563933  -0.692719  0  2.19897  0
O  O295  1  0.99789777  0.00324077  0.87945600  1  -1.201656  0  -0.564019  -0.692846  0  2.198782  0
O  O296  1  0.64291704  0.40027632  0.34537976  1  -1.174563  0  -0.288475  -0.494563  0  2.2385  0
O  O297  1  0.85706790  0.09971266  0.84537754  1  -1.174666  0  -0.288315  -0.49446  0  2.238333  0
O  O298  1  0.35706360  0.59972560  0.65462615  1  -1.175219  0  -0.288395  -0.494452  0  2.238365  0
O  O299  1  0.14293839  0.90029215  0.15462117  1  -1.17474  0  -0.288329  -0.494502  0  2.238356  0
O  O300  1  0.77215981  0.35308720  0.57702431  1  -1.171961  0  -0.286141  -0.479239  0  2.150324  0
O  O301  1  0.72784185  0.14691501  0.07702552  1  -1.171986  0  -0.286054  -0.47907  0  2.150395  0
O  O302  1  0.22784355  0.64691415  0.42297219  1  -1.172073  0  -0.286097  -0.479112  0  2.150442  0
O  O303  1  0.27216175  0.85308808  0.92297042  1  -1.172214  0  -0.28609  -0.479134  0  2.150459  0
O  O304  1  0.44792294  0.07248555  0.57051998  1  -1.161843  0  -0.313797  -0.489822  0  2.072172  0
O  O305  1  0.05206232  0.42752597  0.07051572  1  -1.161838  0  -0.31383  -0.489835  0  2.072293  0
O  O306  1  0.55207056  0.92753249  0.42948870  1  -1.161714  0  -0.313792  -0.489828  0  2.072306  0
O  O307  1  0.94793020  0.57249093  0.92948300  1  -1.161921  0  -0.313812  -0.489902  0  2.072418  0
O  O308  1  0.38988756  0.11154616  0.32275014  1  -1.167901  0  -0.315249  -0.517737  0  2.186495  0
O  O309  1  0.11010350  0.38845075  0.82274737  1  -1.167938  0  -0.315262  -0.517757  0  2.186512  0
O  O310  1  0.61011980  0.88844311  0.67725245  1  -1.168194  0  -0.31533  -0.517883  0  2.186533  0
O  O311  1  0.88989043  0.61154715  0.17725189  1  -1.167974  0  -0.31532  -0.517829  0  2.186487  0
O  O312  1  0.16323002  0.88760170  0.58842840  1  -1.150217  0  -0.301116  -0.488202  0  2.112832  0
O  O313  1  0.33677499  0.61241102  0.08842994  1  -1.1506  0  -0.301082  -0.488099  0  2.112705  0
O  O314  1  0.83678873  0.11239909  0.41156145  1  -1.150479  0  -0.301042  -0.488196  0  2.112859  0
O  O315  1  0.66322087  0.38760645  0.91157264  1  -1.150616  0  -0.300956  -0.488014  0  2.112981  0
O  O316  1  0.02052576  0.94040953  0.36193602  1  -1.166173  0  -0.307934  -0.500296  0  2.185999  0
O  O317  1  0.47947455  0.55957105  0.86194572  1  -1.166301  0  -0.307869  -0.50018  0  2.186064  0
O  O318  1  0.97947444  0.05958089  0.63805494  1  -1.166319  0  -0.307883  -0.500186  0  2.186173  0
O  O319  1  0.52051596  0.44041418  0.13806462  1  -1.166326  0  -0.307924  -0.500306  0  2.186163  0
O  O320  1  0.70739731  0.66447220  0.39442811  1  -1.150514  0  -0.284656  -0.465942  0  2.157892  0
O  O321  1  0.79259873  0.83552478  0.89443114  1  -1.150719  0  -0.284636  -0.465908  0  2.157677  0
O  O322  1  0.29259954  0.33553491  0.60557227  1  -1.150496  0  -0.284601  -0.465893  0  2.158039  0
O  O323  1  0.20740000  0.16446679  0.10557367  1  -1.150601  0  -0.284608  -0.465887  0  2.158022  0
O  O324  1  0.84358136  0.62223424  0.62477040  1  -1.182935  0  -0.302041  -0.504868  0  2.171566  0
O  O325  1  0.65641747  0.87776962  0.12477512  1  -1.18288  0  -0.302027  -0.50475  0  2.171401  0
O  O326  1  0.15640466  0.37777114  0.37523219  1  -1.183028  0  -0.302108  -0.504892  0  2.171472  0
O  O327  1  0.34358321  0.12222426  0.87523245  1  -1.182921  0  -0.302082  -0.504834  0  2.171357  0
