# generated using pymatgen
data_CdH22C24S2(NO)4
_symmetry_space_group_name_H-M   'P 1'
_cell_length_a   9.23161653
_cell_length_b   11.75494563
_cell_length_c   14.52426557
_cell_angle_alpha   101.05484954
_cell_angle_beta   100.35363783
_cell_angle_gamma   109.03695412
_symmetry_Int_Tables_number   1
_chemical_formula_structural   CdH22C24S2(NO)4
_chemical_formula_sum   'Cd2 H44 C48 S4 N8 O8'
_cell_volume   1411.54798046
_cell_formula_units_Z   2
loop_
 _symmetry_equiv_pos_site_id
 _symmetry_equiv_pos_as_xyz
  1  'x, y, z'
loop_
 _atom_site_type_symbol
 _atom_site_label
 _atom_site_symmetry_multiplicity
 _atom_site_fract_x
 _atom_site_fract_y
 _atom_site_fract_z
 _atom_site_occupancy
 _atom_site_hle17_bader_spin_density
 _atom_site_hle17_ddec_charge
 _atom_site_hle17_ddec_spin_density
 _atom_site_hle17_ddec_sum_bond_order
 _atom_site_hle17_magmom
 _atom_site_hse06_10hf_bader_spin_density
 _atom_site_hse06_10hf_ddec_charge
 _atom_site_hse06_10hf_ddec_spin_density
 _atom_site_hse06_10hf_ddec_sum_bond_order
 _atom_site_hse06_10hf_magmom
 _atom_site_hse06_bader_spin_density
 _atom_site_hse06_ddec_charge
 _atom_site_hse06_ddec_spin_density
 _atom_site_hse06_ddec_sum_bond_order
 _atom_site_hse06_magmom
 _atom_site_pbe_bader_spin_density
 _atom_site_pbe_cm5_charge
 _atom_site_pbe_ddec_charge
 _atom_site_pbe_ddec_spin_density
 _atom_site_pbe_ddec_sum_bond_order
 _atom_site_pbe_magmom
Cd  Cd0  1  0.15125805  0.36905717  0.70439865  1  0  1.088328  0  1.694021  0  0  0.891838  0  2.139087  0  0  0.950843  0  2.08762  0  0  0.772588  0.85011  0  2.174088  0
Cd  Cd1  1  0.84874446  0.63094783  0.29559064  1  0  1.088401  0  1.69394  0  0  0.891889  0  2.139022  0  0  0.950904  0  2.087548  0  0  0.772603  0.850155  0  2.17403  0
H  H2  1  0.52684548  0.98525105  0.89214967  1  0  0.08486  0  0.999886  0  0  0.091861  0  1.067852  0  0  0.094892  0  1.066992  0  0  0.088615  0.089606  0  1.068679  0
H  H3  1  0.47316242  0.01474974  0.10785829  1  0  0.084882  0  0.999911  0  0  0.091886  0  1.067874  0  0  0.094935  0  1.066996  0  0  0.0886  0.089625  0  1.068709  0
H  H4  1  0.75553218  0.32377522  0.35243160  1  0  0.137142  0  0.972606  0  0  0.144085  0  1.034847  0  0  0.147515  0  1.032418  0  0  0.124212  0.141548  0  1.036747  0
H  H5  1  0.24444271  0.67622074  0.64756413  1  0  0.137213  0  0.972533  0  0  0.144102  0  1.034822  0  0  0.147539  0  1.0324  0  0  0.124206  0.141562  0  1.036721  0
H  H6  1  0.15057024  0.14527833  0.49471022  1  0  0.092639  0  0.92874  0  0  0.105871  0  0.986275  0  0  0.108538  0  0.983061  0  0  0.135862  0.103867  0  0.98864  0
H  H7  1  0.84943047  0.85473266  0.50529484  1  0  0.092684  0  0.928715  0  0  0.105891  0  0.986269  0  0  0.108558  0  0.983055  0  0  0.135838  0.103889  0  0.988631  0
H  H8  1  0.81684038  0.40306893  0.65712598  1  0  0.111076  0  0.932005  0  0  0.122105  0  0.988478  0  0  0.125039  0  0.985122  0  0  0.141197  0.119964  0  0.990817  0
H  H9  1  0.18317360  0.59694651  0.34287303  1  0  0.111036  0  0.93199  0  0  0.122064  0  0.988467  0  0  0.125002  0  0.985113  0  0  0.141176  0.119921  0  0.990805  0
H  H10  1  0.05271037  0.32925542  0.44309295  1  0  0.097245  0  0.950312  0  0  0.11018  0  1.006555  0  0  0.112097  0  1.006103  0  0  0.117373  0.108776  0  1.006992  0
H  H11  1  0.94727097  0.67074216  0.55689414  1  0  0.097111  0  0.950298  0  0  0.11011  0  1.006496  0  0  0.11203  0  1.006039  0  0  0.117297  0.108701  0  1.006934  0
H  H12  1  0.83651605  0.96437882  0.93376813  1  0  0.086834  0  1.007064  0  0  0.09512  0  1.07382  0  0  0.097411  0  1.074082  0  0  0.090651  0.093265  0  1.074066  0
H  H13  1  0.16347486  0.03560689  0.06623018  1  0  0.087021  0  1.006911  0  0  0.09524  0  1.073726  0  0  0.097551  0  1.073963  0  0  0.090697  0.093345  0  1.074016  0
H  H14  1  0.23512149  0.97801572  0.42246372  1  0  0.082542  0  0.948647  0  0  0.094043  0  1.01777  0  0  0.095172  0  1.016998  0  0  0.106593  0.093096  0  1.01846  0
H  H15  1  0.76489113  0.02199703  0.57753889  1  0  0.082542  0  0.948687  0  0  0.094027  0  1.017839  0  0  0.095153  0  1.017078  0  0  0.10664  0.093113  0  1.01849  0
H  H16  1  0.18133732  0.86704986  0.48927734  1  0  0.069543  0  0.964141  0  0  0.080027  0  1.035294  0  0  0.079895  0  1.036918  0  0  0.101415  0.079995  0  1.034363  0
H  H17  1  0.81867045  0.13296197  0.51072525  1  0  0.069437  0  0.964073  0  0  0.079904  0  1.035297  0  0  0.079769  0  1.03693  0  0  0.101348  0.079863  0  1.03437  0
H  H18  1  0.60066021  0.53275764  0.96090665  1  0  0.101207  0  0.965662  0  0  0.109634  0  1.032667  0  0  0.1129  0  1.030205  0  0  0.105786  0.106675  0  1.035697  0
H  H19  1  0.39932627  0.46723298  0.03910144  1  0  0.101075  0  0.965936  0  0  0.109581  0  1.03286  0  0  0.112816  0  1.030437  0  0  0.105794  0.106653  0  1.035856  0
H  H20  1  0.41728478  0.02124312  0.69318766  1  0  0.111401  0  0.979356  0  0  0.116996  0  1.048786  0  0  0.119289  0  1.048148  0  0  0.116906  0.115241  0  1.049482  0
H  H21  1  0.58271790  0.97876505  0.30681656  1  0  0.111442  0  0.979497  0  0  0.117092  0  1.04885  0  0  0.119404  0  1.048187  0  0  0.116956  0.115335  0  1.049543  0
H  H22  1  0.83576756  0.68637913  0.08917680  1  0  0.094934  0  0.979416  0  0  0.10454  0  1.041944  0  0  0.107406  0  1.040887  0  0  0.099149  0.102502  0  1.04271  0
H  H23  1  0.16422995  0.31361137  0.91082779  1  0  0.09492  0  0.979523  0  0  0.104565  0  1.04201  0  0  0.107457  0  1.04092  0  0  0.099159  0.102527  0  1.042771  0
H  H24  1  0.83995975  0.42936851  0.92108301  1  0  0.108094  0  0.939451  0  0  0.118459  0  0.997153  0  0  0.122051  0  0.994558  0  0  0.107215  0.115586  0  0.999615  0
H  H25  1  0.16005706  0.57061734  0.07888745  1  0  0.108094  0  0.939341  0  0  0.118378  0  0.997151  0  0  0.121991  0  0.994528  0  0  0.107196  0.115508  0  0.999612  0
H  H26  1  0.51348889  0.31370580  0.41362233  1  0  0.072757  0  0.976771  0  0  0.080989  0  1.053373  0  0  0.082462  0  1.052306  0  0  0.101132  0.079868  0  1.054202  0
H  H27  1  0.48651010  0.68631547  0.58638394  1  0  0.072647  0  0.976819  0  0  0.080875  0  1.053405  0  0  0.082345  0  1.052345  0  0  0.101064  0.079759  0  1.054233  0
H  H28  1  0.52643071  0.32213359  0.53878314  1  0  0.069481  0  0.922063  0  0  0.085883  0  0.982895  0  0  0.086215  0  0.983473  0  0  0.108249  0.085602  0  0.982539  0
H  H29  1  0.47357226  0.67788671  0.46122211  1  0  0.069465  0  0.921933  0  0  0.085813  0  0.982846  0  0  0.086145  0  0.983423  0  0  0.108283  0.085537  0  0.982484  0
H  H30  1  0.37965206  0.23221176  0.79268421  1  0  0.116903  0  0.952029  0  0  0.124816  0  1.0134  0  0  0.126594  0  1.013868  0  0  0.121272  0.123442  0  1.013308  0
H  H31  1  0.62033338  0.76778814  0.20732229  1  0  0.116987  0  0.95199  0  0  0.124898  0  1.01336  0  0  0.126677  0  1.013829  0  0  0.121285  0.123527  0  1.013272  0
H  H32  1  0.95063128  0.90581147  0.07702384  1  0  0.084591  0  0.970564  0  0  0.092303  0  1.036549  0  0  0.095406  0  1.034398  0  0  0.094842  0.090061  0  1.03807  0
H  H33  1  0.04936868  0.09417697  0.92297318  1  0  0.084637  0  0.970505  0  0  0.092347  0  1.036502  0  0  0.095449  0  1.03435  0  0  0.094895  0.09011  0  1.038009  0
H  H34  1  0.49003097  0.15307816  0.00535812  1  0  0.08186  0  0.983438  0  0  0.090906  0  1.047974  0  0  0.092571  0  1.048448  0  0  0.093613  0.089688  0  1.04769  0
H  H35  1  0.50999709  0.84693918  0.99464492  1  0  0.081933  0  0.98326  0  0  0.090929  0  1.047836  0  0  0.092599  0  1.048298  0  0  0.093623  0.08971  0  1.047553  0
H  H36  1  0.65044350  0.37725391  0.02398746  1  0  0.096763  0  0.972081  0  0  0.10627  0  1.034252  0  0  0.108777  0  1.03389  0  0  0.100259  0.104358  0  1.034906  0
H  H37  1  0.34958922  0.62275652  0.97600004  1  0  0.096753  0  0.972113  0  0  0.106216  0  1.034355  0  0  0.108723  0  1.033996  0  0  0.100265  0.10434  0  1.034978  0
H  H38  1  0.46279746  0.90429800  0.55947839  1  0  0.064314  0  0.949721  0  0  0.078473  0  1.021821  0  0  0.079068  0  1.022215  0  0  0.086869  0.077952  0  1.021676  0
H  H39  1  0.53721074  0.09571966  0.44053401  1  0  0.064253  0  0.949776  0  0  0.078376  0  1.021913  0  0  0.078954  0  1.022317  0  0  0.086878  0.077859  0  1.021765  0
H  H40  1  0.41586427  0.86737175  0.43124719  1  0  0.075832  0  0.938426  0  0  0.093674  0  1.000261  0  0  0.094149  0  1.001363  0  0  0.095303  0.093266  0  0.999572  0
H  H41  1  0.58415161  0.13264121  0.56876479  1  0  0.07578  0  0.938343  0  0  0.093619  0  1.000199  0  0  0.094093  0  1.001295  0  0  0.095258  0.093213  0  0.999517  0
H  H42  1  0.63644835  0.54383332  0.45193597  1  0  0.076205  0  0.938587  0  0  0.092162  0  1.004466  0  0  0.093088  0  1.004658  0  0  0.092715  0.091487  0  1.004332  0
H  H43  1  0.36356958  0.45619081  0.54807575  1  0  0.076222  0  0.938597  0  0  0.092189  0  1.004466  0  0  0.093116  0  1.004651  0  0  0.092734  0.091511  0  1.004347  0
H  H44  1  0.65878543  0.55726941  0.57857776  1  0  0.069868  0  0.921187  0  0  0.09131  0  0.974152  0  0  0.091851  0  0.974823  0  0  0.094891  0.090818  0  0.973826  0
H  H45  1  0.34122409  0.44274633  0.42143247  1  0  0.069835  0  0.921063  0  0  0.091302  0  0.974027  0  0  0.091837  0  0.974703  0  0  0.094909  0.090826  0  0.973683  0
C  C46  1  0.90842715  0.27503278  0.79300488  1  0  0.609946  0  3.967913  0  0  0.562216  0  4.25884  0  0  0.596136  0  4.254728  0  0  0.182631  0.53931  0  4.260531  0
C  C47  1  0.09156706  0.72493373  0.20697119  1  0  0.609998  0  3.967845  0  0  0.562224  0  4.25874  0  0  0.596152  0  4.254614  0  0  0.182596  0.539317  0  4.260429  0
C  C48  1  0.43755310  0.56251559  0.80643553  1  0  0.628188  0  3.940812  0  0  0.583284  0  4.221252  0  0  0.618282  0  4.215631  0  0  0.189563  0.559638  0  4.223919  0
C  C49  1  0.56242918  0.43747326  0.19357525  1  0  0.627858  0  3.941358  0  0  0.582889  0  4.221939  0  0  0.617885  0  4.21633  0  0  0.189373  0.559242  0  4.224599  0
C  C50  1  0.79193698  0.23863454  0.85095109  1  0  -0.114198  0  3.759181  0  0  -0.097715  0  3.995772  0  0  -0.107322  0  4.019587  0  0  -0.028349  -0.091758  0  3.979986  0
C  C51  1  0.20805662  0.76134701  0.14903043  1  0  -0.114175  0  3.758912  0  0  -0.097538  0  3.995216  0  0  -0.107149  0  4.019035  0  0  -0.028337  -0.091575  0  3.979423  0
C  C52  1  0.59669917  0.08279440  0.89922616  1  0  -0.139802  0  3.782185  0  0  -0.153662  0  4.022771  0  0  -0.159222  0  4.045455  0  0  -0.105779  -0.149598  0  4.007388  0
C  C53  1  0.40331471  0.91720712  0.10077505  1  0  -0.139755  0  3.782034  0  0  -0.153639  0  4.022571  0  0  -0.159217  0  4.045247  0  0  -0.1057  -0.149569  0  4.007193  0
C  C54  1  0.58662610  0.65888328  0.87473677  1  0  -0.117696  0  3.743149  0  0  -0.099906  0  3.975432  0  0  -0.109438  0  3.997757  0  0  -0.02692  -0.094153  0  3.960737  0
C  C55  1  0.41336412  0.34110828  0.12527190  1  0  -0.117621  0  3.743366  0  0  -0.099901  0  3.975785  0  0  -0.109434  0  3.998102  0  0  -0.026953  -0.094143  0  3.961095  0
C  C56  1  0.65536443  0.78147080  0.86543667  1  0  0.044214  0  3.740593  0  0  0.058224  0  3.995151  0  0  0.061573  0  4.01751  0  0  -0.007739  0.055964  0  3.980119  0
C  C57  1  0.34462313  0.21851511  0.13456884  1  0  0.043959  0  3.740896  0  0  0.058025  0  3.995408  0  0  0.061375  0  4.017769  0  0  -0.007854  0.055758  0  3.980375  0
C  C58  1  0.81305577  0.33799028  0.42795408  1  0  -0.050316  0  3.636027  0  0  -0.090574  0  3.892615  0  0  -0.088499  0  3.910358  0  0  0.00673  -0.091856  0  3.880783  0
C  C59  1  0.18692996  0.66201215  0.57204110  1  0  -0.050302  0  3.636011  0  0  -0.090477  0  3.892593  0  0  -0.088411  0  3.910333  0  0  0.006844  -0.091765  0  3.880775  0
C  C60  1  0.21775235  0.14278880  0.56325214  1  0  0.140553  0  3.706591  0  0  0.079335  0  3.971947  0  0  0.092604  0  3.985719  0  0  0.131676  0.070838  0  3.962274  0
C  C61  1  0.78224748  0.85722025  0.43674979  1  0  0.140321  0  3.7068  0  0  0.079146  0  3.972112  0  0  0.092414  0  3.985885  0  0  0.13166  0.070648  0  3.962438  0
C  C62  1  0.84219712  0.38236756  0.58702347  1  0  0.14855  0  3.669871  0  0  0.087043  0  3.9347  0  0  0.100463  0  3.948512  0  0  0.137897  0.078432  0  3.925007  0
C  C63  1  0.15780802  0.61764327  0.41297591  1  0  0.148595  0  3.669951  0  0  0.0871  0  3.934773  0  0  0.100514  0  3.948592  0  0  0.137917  0.078492  0  3.925071  0
C  C64  1  0.95930162  0.34245877  0.47437609  1  0  -0.010847  0  3.778573  0  0  -0.046003  0  4.050097  0  0  -0.044512  0  4.071237  0  0  -0.009178  -0.047037  0  4.035821  0
C  C65  1  0.04069029  0.65754259  0.52561487  1  0  -0.010756  0  3.778497  0  0  -0.045983  0  4.05003  0  0  -0.044492  0  4.071177  0  0  -0.009165  -0.047013  0  4.03574  0
C  C66  1  0.78642608  0.86901098  0.93908595  1  0  -0.142985  0  3.779182  0  0  -0.160231  0  4.022888  0  0  -0.165549  0  4.045695  0  0  -0.105525  -0.156164  0  4.007253  0
C  C67  1  0.21356303  0.13097102  0.06091300  1  0  -0.143034  0  3.778991  0  0  -0.160196  0  4.022597  0  0  -0.165528  0  4.045389  0  0  -0.105533  -0.156102  0  4.007001  0
C  C68  1  0.70540176  0.11158804  0.84319955  1  0  0.035432  0  3.737204  0  0  0.048791  0  3.990891  0  0  0.051662  0  4.014576  0  0  -0.008916  0.046787  0  3.975109  0
C  C69  1  0.29459644  0.88839654  0.15679190  1  0  0.035341  0  3.737164  0  0  0.048727  0  3.990703  0  0  0.051598  0  4.014395  0  0  -0.008947  0.046723  0  3.974915  0
C  C70  1  0.27308155  0.95484639  0.49015925  1  0  -0.004991  0  3.622901  0  0  -0.066336  0  3.880383  0  0  -0.062179  0  3.89168  0  0  -0.058031  -0.069036  0  3.872775  0
C  C71  1  0.72692531  0.04516367  0.50984711  1  0  -0.004627  0  3.622482  0  0  -0.066015  0  3.880123  0  0  -0.061871  0  3.891426  0  0  -0.057886  -0.068711  0  3.872468  0
C  C72  1  0.65580927  0.62743945  0.95542338  1  0  -0.050416  0  3.729104  0  0  -0.075161  0  3.978512  0  0  -0.073226  0  3.99716  0  0  -0.080281  -0.076488  0  3.966919  0
C  C73  1  0.34417702  0.37255294  0.04458081  1  0  -0.050283  0  3.729258  0  0  -0.075085  0  3.978728  0  0  -0.073126  0  3.997399  0  0  -0.080222  -0.07643  0  3.967107  0
C  C74  1  0.35585843  0.07818127  0.66776387  1  0  -0.066708  0  3.673473  0  0  -0.104351  0  3.925307  0  0  -0.103909  0  3.945648  0  0  -0.000566  -0.104693  0  3.911888  0
C  C75  1  0.64413767  0.92183159  0.33224089  1  0  -0.066698  0  3.67328  0  0  -0.104402  0  3.925125  0  0  -0.103966  0  3.945433  0  0  -0.000582  -0.104748  0  3.911707  0
C  C76  1  0.78693354  0.71396130  0.02721315  1  0  -0.071579  0  3.754173  0  0  -0.086997  0  4.00403  0  0  -0.090145  0  4.02457  0  0  -0.093952  -0.084441  0  3.989768  0
C  C77  1  0.21305693  0.28602823  0.97278907  1  0  -0.071654  0  3.754185  0  0  -0.087118  0  4.004087  0  0  -0.090287  0  4.024607  0  0  -0.094101  -0.084565  0  3.989831  0
C  C78  1  0.77021782  0.33256381  0.91615472  1  0  -0.04898  0  3.726371  0  0  -0.071766  0  3.971295  0  0  -0.0699  0  3.989811  0  0  -0.078422  -0.072856  0  3.959334  0
C  C79  1  0.22979150  0.66742499  0.08382076  1  0  -0.048863  0  3.726145  0  0  -0.071607  0  3.970985  0  0  -0.069755  0  3.989492  0  0  -0.078265  -0.0727  0  3.959037  0
C  C80  1  0.58227988  0.36833807  0.48806976  1  0  0.001008  0  3.632192  0  0  -0.06082  0  3.892003  0  0  -0.056942  0  3.903677  0  0  -0.052916  -0.063345  0  3.884058  0
C  C81  1  0.41771579  0.63167853  0.51193547  1  0  0.001321  0  3.632027  0  0  -0.060449  0  3.891868  0  0  -0.056568  0  3.903536  0  0  -0.052827  -0.062991  0  3.883951  0
C  C82  1  0.33671362  0.18267432  0.71611232  1  0  0.016156  0  3.730709  0  0  -0.016537  0  3.990179  0  0  -0.014431  0  4.011414  0  0  0.001651  -0.017951  0  3.975929  0
C  C83  1  0.66327868  0.81732827  0.28389056  1  0  0.015923  0  3.730421  0  0  -0.016773  0  3.989902  0  0  -0.014671  0  4.011145  0  0  0.001581  -0.018182  0  3.975655  0
C  C84  1  0.85104996  0.83579378  0.01936247  1  0  -0.033572  0  3.746437  0  0  -0.044764  0  3.989496  0  0  -0.043695  0  4.008618  0  0  -0.083505  -0.045269  0  3.975982  0
C  C85  1  0.14894732  0.16419388  0.98064032  1  0  -0.033599  0  3.74629  0  0  -0.0448  0  3.989364  0  0  -0.04373  0  4.008492  0  0  -0.083462  -0.045308  0  3.975822  0
C  C86  1  0.57619155  0.17772599  0.96307811  1  0  -0.036521  0  3.750805  0  0  -0.047554  0  3.992547  0  0  -0.046323  0  4.012737  0  0  -0.085377  -0.048173  0  3.978444  0
C  C87  1  0.42382677  0.82228014  0.03692151  1  0  -0.036594  0  3.750692  0  0  -0.047586  0  3.992426  0  0  -0.046354  0  4.012623  0  0  -0.085382  -0.048202  0  3.978325  0
C  C88  1  0.66420888  0.30319821  0.97277704  1  0  -0.079743  0  3.760898  0  0  -0.094762  0  4.010984  0  0  -0.098025  0  4.031367  0  0  -0.094292  -0.092457  0  3.997416  0
C  C89  1  0.33580948  0.69680294  0.02720950  1  0  -0.079936  0  3.761089  0  0  -0.094933  0  4.011164  0  0  -0.098204  0  4.031557  0  0  -0.094538  -0.092667  0  3.997596  0
C  C90  1  0.43220785  0.93986966  0.49683241  1  0  -0.126498  0  3.686999  0  0  -0.169482  0  3.951394  0  0  -0.170812  0  3.965328  0  0  -0.16695  -0.168376  0  3.941708  0
C  C91  1  0.56780386  0.06014614  0.50318084  1  0  -0.126381  0  3.686756  0  0  -0.169304  0  3.951174  0  0  -0.170598  0  3.965072  0  0  -0.166921  -0.16822  0  3.941504  0
C  C92  1  0.58425285  0.50088183  0.50525353  1  0  -0.120189  0  3.678533  0  0  -0.161666  0  3.940647  0  0  -0.163315  0  3.955182  0  0  -0.160613  -0.160344  0  3.930489  0
C  C93  1  0.41575999  0.49913861  0.49475913  1  0  -0.120209  0  3.678354  0  0  -0.161744  0  3.940517  0  0  -0.163387  0  3.95505  0  0  -0.160662  -0.160434  0  3.930374  0
S  S94  1  0.56993613  0.82466098  0.76386691  1  0  -0.040844  0  2.534685  0  0  -0.048812  0  2.914428  0  0  -0.04681  0  2.907025  0  0  0.009811  -0.05014  0  2.919776  0
S  S95  1  0.43004197  0.17532586  0.23613758  1  0  -0.040677  0  2.5345  0  0  -0.048679  0  2.914252  0  0  -0.046678  0  2.90685  0  0  0.00989  -0.050006  0  2.919602  0
S  S96  1  0.73935970  0.99210338  0.76325836  1  0  -0.00343  0  2.512105  0  0  -0.009398  0  2.886176  0  0  -0.006339  0  2.879437  0  0  0.023266  -0.011227  0  2.891122  0
S  S97  1  0.26062501  0.00787386  0.23673526  1  0  -0.003379  0  2.511854  0  0  -0.009371  0  2.885927  0  0  -0.006317  0  2.879192  0  0  0.023291  -0.011191  0  2.890858  0
N  N98  1  0.97606126  0.37032078  0.57351655  1  0  -0.403681  0  3.308879  0  0  -0.324995  0  3.600194  0  0  -0.347171  0  3.618408  0  0  -0.36609  -0.30985  0  3.587422  0
N  N99  1  0.02393773  0.62968617  0.42647535  1  0  -0.403633  0  3.30893  0  0  -0.324949  0  3.600267  0  0  -0.347129  0  3.618484  0  0  -0.366016  -0.309801  0  3.587486  0
N  N100  1  0.74068779  0.36331067  0.50053073  1  0  -0.056497  0  3.564537  0  0  0.040045  0  3.781906  0  0  0.025291  0  3.808849  0  0  -0.240906  0.049804  0  3.763578  0
N  N101  1  0.25930940  0.63669743  0.49947006  1  0  -0.056664  0  3.564946  0  0  0.039852  0  3.782317  0  0  0.025101  0  3.809264  0  0  -0.241049  0.049605  0  3.764002  0
N  N102  1  0.24998008  0.22190549  0.65001376  1  0  -0.394309  0  3.286609  0  0  -0.31944  0  3.576882  0  0  -0.340508  0  3.592807  0  0  -0.364571  -0.305088  0  3.565572  0
N  N103  1  0.75001730  0.77810086  0.34999163  1  0  -0.394218  0  3.286587  0  0  -0.319342  0  3.576827  0  0  -0.340411  0  3.592758  0  0  -0.364623  -0.304995  0  3.565521  0
N  N104  1  0.28040003  0.05440198  0.57095989  1  0  -0.059588  0  3.581234  0  0  0.037559  0  3.793379  0  0  0.023346  0  3.819795  0  0  -0.243691  0.047006  0  3.775343  0
N  N105  1  0.71960509  0.94560897  0.42904432  1  0  -0.059594  0  3.581036  0  0  0.037576  0  3.793196  0  0  0.023369  0  3.819614  0  0  -0.243694  0.047017  0  3.775158  0
O  O106  1  0.93441656  0.18888147  0.73853450  1  0  -0.615906  0  1.968472  0  0  -0.554  0  2.204096  0  0  -0.58317  0  2.198148  0  0  -0.31994  -0.53343  0  2.20732  0
O  O107  1  0.06558001  0.81108341  0.26145127  1  0  -0.615979  0  1.968468  0  0  -0.554083  0  2.204183  0  0  -0.583262  0  2.198227  0  0  -0.319997  -0.533511  0  2.207405  0
O  O108  1  0.98077963  0.39131929  0.80048093  1  0  -0.640277  0  1.939494  0  0  -0.575782  0  2.170177  0  0  -0.604768  0  2.159486  0  0  -0.341522  -0.555236  0  2.1765  0
O  O109  1  0.01921416  0.60864614  0.19948874  1  0  -0.640349  0  1.939487  0  0  -0.575871  0  2.17017  0  0  -0.604859  0  2.159478  0  0  -0.341463  -0.555328  0  2.176492  0
O  O110  1  0.37538785  0.58231191  0.72818323  1  0  -0.64169  0  1.969791  0  0  -0.578383  0  2.204235  0  0  -0.6068  0  2.195018  0  0  -0.326899  -0.558333  0  2.209717  0
O  O111  1  0.62458207  0.41767423  0.27182913  1  0  -0.641593  0  1.969843  0  0  -0.578207  0  2.204197  0  0  -0.606633  0  2.195019  0  0  -0.326864  -0.558162  0  2.209673  0
O  O112  1  0.37385080  0.46226616  0.83085847  1  0  -0.627252  0  1.982382  0  0  -0.558976  0  2.224559  0  0  -0.58961  0  2.21587  0  0  -0.328982  -0.537273  0  2.229711  0
O  O113  1  0.62613784  0.53771987  0.16915269  1  0  -0.627065  0  1.982668  0  0  -0.558751  0  2.224842  0  0  -0.589383  0  2.216155  0  0  -0.328832  -0.537049  0  2.229991  0
