# generated using pymatgen
data_KH2C2(NO)4
_symmetry_space_group_name_H-M   'P 1'
_cell_length_a   5.96480906
_cell_length_b   6.42987953
_cell_length_c   16.15203898
_cell_angle_alpha   90.00020430
_cell_angle_beta   90.00013558
_cell_angle_gamma   98.63653420
_symmetry_Int_Tables_number   1
_chemical_formula_structural   KH2C2(NO)4
_chemical_formula_sum   'K4 H8 C8 N16 O16'
_cell_volume   612.45483033
_cell_formula_units_Z   4
loop_
 _symmetry_equiv_pos_site_id
 _symmetry_equiv_pos_as_xyz
  1  'x, y, z'
loop_
 _atom_site_type_symbol
 _atom_site_label
 _atom_site_symmetry_multiplicity
 _atom_site_fract_x
 _atom_site_fract_y
 _atom_site_fract_z
 _atom_site_occupancy
 _atom_site_hle17_bader_spin_density
 _atom_site_hle17_ddec_charge
 _atom_site_hle17_ddec_spin_density
 _atom_site_hle17_ddec_sum_bond_order
 _atom_site_hle17_magmom
 _atom_site_hse06_10hf_bader_spin_density
 _atom_site_hse06_10hf_ddec_charge
 _atom_site_hse06_10hf_ddec_spin_density
 _atom_site_hse06_10hf_ddec_sum_bond_order
 _atom_site_hse06_10hf_magmom
 _atom_site_hse06_bader_spin_density
 _atom_site_hse06_ddec_charge
 _atom_site_hse06_ddec_spin_density
 _atom_site_hse06_ddec_sum_bond_order
 _atom_site_hse06_magmom
 _atom_site_pbe_bader_spin_density
 _atom_site_pbe_cm5_charge
 _atom_site_pbe_ddec_charge
 _atom_site_pbe_ddec_spin_density
 _atom_site_pbe_ddec_sum_bond_order
 _atom_site_pbe_magmom
K  K0  1  0.96585411  0.71025247  0.78082867  1  0  0.912262  0  0.46597  0  0  0.852465  0  0.662302  0  0  0.868244  0  0.638088  0  0  0.795697  0.84072  0  0.679626  0
K  K1  1  0.53415995  0.78973508  0.28082726  1  0  0.912245  0  0.465978  0  0  0.852467  0  0.662273  0  0  0.868247  0  0.638059  0  0  0.795699  0.840728  0  0.679595  0
K  K2  1  0.03415812  0.28974068  0.21917379  1  0  0.912238  0  0.466009  0  0  0.85248  0  0.662285  0  0  0.868258  0  0.638072  0  0  0.795708  0.84074  0  0.679609  0
K  K3  1  0.46583138  0.21025346  0.71917148  1  0  0.912218  0  0.466022  0  0  0.852468  0  0.662268  0  0  0.868246  0  0.638054  0  0  0.795679  0.840722  0  0.679591  0
H  H4  1  0.92731455  0.22100384  0.84194690  1  0  0.413143  0  0.887415  0  0  0.385091  0  0.948082  0  0  0.395182  0  0.933253  0  0  0.295037  0.378044  0  0.958419  0
H  H5  1  0.57267788  0.27899426  0.34194613  1  0  0.413227  0  0.887316  0  0  0.385134  0  0.948054  0  0  0.395226  0  0.933223  0  0  0.295053  0.378086  0  0.958395  0
H  H6  1  0.07268004  0.77899413  0.15805308  1  0  0.413203  0  0.887349  0  0  0.385084  0  0.948102  0  0  0.395175  0  0.933274  0  0  0.295042  0.378036  0  0.958443  0
H  H7  1  0.42732421  0.72100839  0.65805323  1  0  0.413204  0  0.887347  0  0  0.385124  0  0.948071  0  0  0.395216  0  0.933238  0  0  0.29506  0.378073  0  0.958415  0
H  H8  1  0.71187910  0.28361992  0.88584781  1  0  0.401677  0  0.904725  0  0  0.364168  0  0.982372  0  0  0.373784  0  0.968046  0  0  0.284621  0.357341  0  0.992533  0
H  H9  1  0.78811730  0.21638018  0.38584652  1  0  0.401673  0  0.904721  0  0  0.364167  0  0.982363  0  0  0.373783  0  0.968036  0  0  0.28463  0.357344  0  0.992519  0
H  H10  1  0.28811770  0.71638119  0.11415217  1  0  0.401673  0  0.904708  0  0  0.364165  0  0.982354  0  0  0.37378  0  0.968028  0  0  0.28463  0.35734  0  0.992512  0
H  H11  1  0.21187897  0.78361778  0.61415346  1  0  0.401646  0  0.904752  0  0  0.364141  0  0.982394  0  0  0.373758  0  0.968066  0  0  0.284616  0.357316  0  0.992553  0
C  C12  1  0.10957453  0.06258759  0.00320155  1  0  0.186907  0  3.715258  0  0  0.159864  0  3.988244  0  0  0.16682  0  4.001713  0  0  0.222799  0.155221  0  3.979375  0
C  C13  1  0.39042909  0.43740903  0.50319887  1  0  0.187197  0  3.715001  0  0  0.159873  0  3.988365  0  0  0.166886  0  4.00176  0  0  0.22287  0.155228  0  3.979495  0
C  C14  1  0.89043293  0.93740716  0.99680153  1  0  0.187213  0  3.714878  0  0  0.159879  0  3.988133  0  0  0.166911  0  4.001523  0  0  0.222929  0.155235  0  3.979264  0
C  C15  1  0.60956797  0.56259364  0.49680111  1  0  0.187203  0  3.714915  0  0  0.15993  0  3.988236  0  0  0.166943  0  4.001625  0  0  0.222884  0.155285  0  3.979369  0
C  C16  1  0.41547560  0.23369260  0.04400284  1  0  0.308675  0  3.825233  0  0  0.252286  0  4.135231  0  0  0.25579  0  4.153189  0  0  0.300095  0.249813  0  4.123195  0
C  C17  1  0.08451883  0.26630762  0.54399780  1  0  0.308618  0  3.825431  0  0  0.252225  0  4.13535  0  0  0.25574  0  4.153299  0  0  0.300016  0.249754  0  4.123314  0
C  C18  1  0.58452173  0.76631165  0.95599652  1  0  0.308731  0  3.825107  0  0  0.252346  0  4.135076  0  0  0.255851  0  4.153036  0  0  0.30013  0.249873  0  4.123042  0
C  C19  1  0.91547320  0.73369508  0.45600218  1  0  0.308608  0  3.82528  0  0  0.252175  0  4.135283  0  0  0.255691  0  4.153231  0  0  0.299961  0.249702  0  4.123247  0
N  N20  1  0.24927550  0.12100121  0.93503694  1  0  0.325427  0  3.725261  0  0  0.363719  0  4.010592  0  0  0.366776  0  4.032999  0  0  -0.005847  0.36098  0  3.995693  0
N  N21  1  0.25072825  0.37899974  0.43503338  1  0  0.325282  0  3.725228  0  0  0.363663  0  4.010571  0  0  0.366706  0  4.032974  0  0  -0.005854  0.360926  0  3.995671  0
N  N22  1  0.75072720  0.87899514  0.06496427  1  0  0.325383  0  3.725141  0  0  0.363735  0  4.010496  0  0  0.36678  0  4.032891  0  0  -0.00589  0.360998  0  3.995595  0
N  N23  1  0.74927164  0.62099977  0.56496536  1  0  0.325277  0  3.725235  0  0  0.36365  0  4.010559  0  0  0.366691  0  4.032965  0  0  -0.005875  0.360912  0  3.995657  0
N  N24  1  0.44795748  0.22722292  0.96149259  1  0  -0.333342  0  2.864153  0  0  -0.32135  0  3.149701  0  0  -0.326529  0  3.161785  0  0  -0.201158  -0.317486  0  3.141897  0
N  N25  1  0.05204533  0.27278145  0.46148870  1  0  -0.333267  0  2.864387  0  0  -0.321273  0  3.149898  0  0  -0.326463  0  3.161999  0  0  -0.201128  -0.317411  0  3.142095  0
N  N26  1  0.55203985  0.77278133  0.03850801  1  0  -0.333303  0  2.864067  0  0  -0.321289  0  3.149556  0  0  -0.326479  0  3.161662  0  0  -0.201127  -0.317428  0  3.141752  0
N  N27  1  0.94795146  0.72721966  0.53851066  1  0  -0.333239  0  2.864272  0  0  -0.321247  0  3.149829  0  0  -0.326431  0  3.161905  0  0  -0.201084  -0.317385  0  3.142026  0
N  N28  1  0.21526380  0.13857314  0.07231862  1  0  -0.445569  0  3.086512  0  0  -0.425183  0  3.373386  0  0  -0.433663  0  3.384223  0  0  -0.387772  -0.419225  0  3.366078  0
N  N29  1  0.28473641  0.36143049  0.57231512  1  0  -0.445716  0  3.086441  0  0  -0.425215  0  3.373322  0  0  -0.433716  0  3.384143  0  0  -0.387763  -0.419253  0  3.366012  0
N  N30  1  0.78474472  0.86142791  0.92768260  1  0  -0.445767  0  3.086323  0  0  -0.425297  0  3.37323  0  0  -0.433795  0  3.38405  0  0  -0.387845  -0.419337  0  3.365923  0
N  N31  1  0.71525835  0.63857849  0.42768485  1  0  -0.445749  0  3.086314  0  0  -0.425243  0  3.37321  0  0  -0.433745  0  3.384031  0  0  -0.387813  -0.419283  0  3.365904  0
N  N32  1  0.58731198  0.33178350  0.09801970  1  0  0.424425  0  3.985167  0  0  0.481028  0  4.249882  0  0  0.50377  0  4.252957  0  0  0.028952  0.465858  0  4.247537  0
N  N33  1  0.91268704  0.16822314  0.59801542  1  0  0.42427  0  3.98509  0  0  0.480977  0  4.249689  0  0  0.503714  0  4.252765  0  0  0.028999  0.465807  0  4.247345  0
N  N34  1  0.41269231  0.66822228  0.90197904  1  0  0.424376  0  3.985321  0  0  0.481006  0  4.249994  0  0  0.503748  0  4.253066  0  0  0.02892  0.465834  0  4.24765  0
N  N35  1  0.08731284  0.83177637  0.40198456  1  0  0.424261  0  3.985274  0  0  0.480935  0  4.249939  0  0  0.503673  0  4.253015  0  0  0.02893  0.465767  0  4.247591  0
O  O36  1  0.80478889  0.30625651  0.83536507  1  0  -0.897034  0  1.844789  0  0  -0.853398  0  2.017268  0  0  -0.870648  0  1.986537  0  0  -0.710802  -0.840994  0  2.038678  0
O  O37  1  0.69520596  0.19374624  0.33536429  1  0  -0.897127  0  1.844665  0  0  -0.853452  0  2.017146  0  0  -0.870708  0  1.986427  0  0  -0.710829  -0.841051  0  2.038551  0
O  O38  1  0.19520818  0.69374617  0.16463491  1  0  -0.897096  0  1.844664  0  0  -0.853388  0  2.01726  0  0  -0.87064  0  1.986539  0  0  -0.710819  -0.840986  0  2.038664  0
O  O39  1  0.30479419  0.80625484  0.66463507  1  0  -0.897077  0  1.844753  0  0  -0.85342  0  2.017212  0  0  -0.870673  0  1.986484  0  0  -0.710832  -0.841018  0  2.038619  0
O  O40  1  0.20227421  0.08916602  0.85789494  1  0  -0.541589  0  1.786824  0  0  -0.521368  0  2.022764  0  0  -0.548088  0  2.025397  0  0  -0.29555  -0.502574  0  2.020691  0
O  O41  1  0.29772583  0.41083574  0.35789084  1  0  -0.541594  0  1.786792  0  0  -0.521372  0  2.02274  0  0  -0.548091  0  2.02538  0  0  -0.295584  -0.502577  0  2.020667  0
O  O42  1  0.79772232  0.91083351  0.14210628  1  0  -0.541638  0  1.786797  0  0  -0.5214  0  2.022724  0  0  -0.548118  0  2.025361  0  0  -0.295558  -0.502607  0  2.020653  0
O  O43  1  0.70227379  0.58916220  0.64210790  1  0  -0.541552  0  1.786752  0  0  -0.521338  0  2.022716  0  0  -0.54806  0  2.025356  0  0  -0.295524  -0.502539  0  2.020638  0
O  O44  1  0.78080520  0.38751590  0.06869473  1  0  -0.358651  0  1.775123  0  0  -0.353742  0  1.982991  0  0  -0.360919  0  1.976973  0  0  -0.157667  -0.348903  0  1.987219  0
O  O45  1  0.71919623  0.11247627  0.56869021  1  0  -0.358541  0  1.775183  0  0  -0.353675  0  1.98299  0  0  -0.360847  0  1.97697  0  0  -0.157673  -0.348837  0  1.987218  0
O  O46  1  0.21920164  0.61248515  0.93130339  1  0  -0.35867  0  1.775343  0  0  -0.353753  0  1.983156  0  0  -0.360929  0  1.977134  0  0  -0.15767  -0.34891  0  1.987383  0
O  O47  1  0.28080181  0.88751224  0.43130977  1  0  -0.358536  0  1.77533  0  0  -0.353628  0  1.983139  0  0  -0.360806  0  1.977126  0  0  -0.157561  -0.348788  0  1.987363  0
O  O48  1  0.53673853  0.35538975  0.17248707  1  0  -0.396329  0  1.765559  0  0  -0.383562  0  1.969322  0  0  -0.390518  0  1.960958  0  0  -0.168416  -0.378781  0  1.975073  0
O  O49  1  0.96325827  0.14462080  0.67248404  1  0  -0.396279  0  1.765236  0  0  -0.383542  0  1.968943  0  0  -0.390501  0  1.96058  0  0  -0.168447  -0.37876  0  1.974691  0
O  O50  1  0.46326162  0.64461134  0.82751167  1  0  -0.396334  0  1.765559  0  0  -0.383575  0  1.969304  0  0  -0.390535  0  1.96094  0  0  -0.168423  -0.378792  0  1.975051  0
O  O51  1  0.03674585  0.85537396  0.32751594  1  0  -0.396259  0  1.76529  0  0  -0.383533  0  1.969039  0  0  -0.390488  0  1.960675  0  0  -0.16845  -0.378754  0  1.974791  0
