# generated using pymatgen
data_CdH14C16(NO3)2
_symmetry_space_group_name_H-M   'P 1'
_cell_length_a   8.76099119
_cell_length_b   8.76102839
_cell_length_c   11.02990738
_cell_angle_alpha   105.21824343
_cell_angle_beta   105.21817793
_cell_angle_gamma   97.83359296
_symmetry_Int_Tables_number   1
_chemical_formula_structural   CdH14C16(NO3)2
_chemical_formula_sum   'Cd2 H28 C32 N4 O12'
_cell_volume   768.88791953
_cell_formula_units_Z   2
loop_
 _symmetry_equiv_pos_site_id
 _symmetry_equiv_pos_as_xyz
  1  'x, y, z'
loop_
 _atom_site_type_symbol
 _atom_site_label
 _atom_site_symmetry_multiplicity
 _atom_site_fract_x
 _atom_site_fract_y
 _atom_site_fract_z
 _atom_site_occupancy
 _atom_site_hle17_bader_spin_density
 _atom_site_hle17_ddec_charge
 _atom_site_hle17_ddec_spin_density
 _atom_site_hle17_ddec_sum_bond_order
 _atom_site_hle17_magmom
 _atom_site_hse06_10hf_bader_spin_density
 _atom_site_hse06_10hf_ddec_charge
 _atom_site_hse06_10hf_ddec_spin_density
 _atom_site_hse06_10hf_ddec_sum_bond_order
 _atom_site_hse06_10hf_magmom
 _atom_site_hse06_bader_spin_density
 _atom_site_hse06_ddec_charge
 _atom_site_hse06_ddec_spin_density
 _atom_site_hse06_ddec_sum_bond_order
 _atom_site_hse06_magmom
 _atom_site_pbe_bader_spin_density
 _atom_site_pbe_cm5_charge
 _atom_site_pbe_ddec_charge
 _atom_site_pbe_ddec_spin_density
 _atom_site_pbe_ddec_sum_bond_order
 _atom_site_pbe_magmom
Cd  Cd0  1  0.56413546  0.43586586  0.75000020  1  0  1.164717  0  1.654371  0  0  0.977601  0  2.099008  0  0  1.032983  0  2.045789  0  0  0.767329  0.93828  0  2.135513  0
Cd  Cd1  1  0.43586464  0.56413497  0.25000041  1  0  1.164741  0  1.654347  0  0  0.977626  0  2.098977  0  0  1.033009  0  2.045757  0  0  0.767342  0.938306  0  2.135482  0
H  H2  1  0.67257912  0.72112085  0.72534214  1  0  0.406162  0  0.912931  0  0  0.371629  0  0.984148  0  0  0.384081  0  0.9662  0  0  0.27751  0.362854  0  0.996757  0
H  H3  1  0.27887908  0.32742091  0.77465694  1  0  0.406166  0  0.912932  0  0  0.37164  0  0.984141  0  0  0.384092  0  0.966194  0  0  0.277499  0.362865  0  0.99675  0
H  H4  1  0.32742074  0.27887877  0.27465726  1  0  0.406173  0  0.912916  0  0  0.371642  0  0.984128  0  0  0.384094  0  0.966178  0  0  0.277513  0.362867  0  0.996737  0
H  H5  1  0.72112079  0.67257871  0.22534246  1  0  0.406147  0  0.912957  0  0  0.37162  0  0.984168  0  0  0.384072  0  0.966219  0  0  0.277502  0.362845  0  0.996777  0
H  H6  1  0.68082801  0.59944677  0.58553222  1  0  0.41779  0  0.888855  0  0  0.385419  0  0.955653  0  0  0.396724  0  0.939343  0  0  0.281988  0.377391  0  0.967209  0
H  H7  1  0.40055258  0.31917242  0.91446761  1  0  0.417792  0  0.888853  0  0  0.385418  0  0.955656  0  0  0.396723  0  0.939346  0  0  0.281984  0.37739  0  0.967212  0
H  H8  1  0.31917040  0.40055161  0.41446751  1  0  0.417813  0  0.88884  0  0  0.385439  0  0.95564  0  0  0.396744  0  0.939329  0  0  0.282011  0.377411  0  0.967197  0
H  H9  1  0.59944779  0.68082961  0.08553332  1  0  0.417809  0  0.888838  0  0  0.385434  0  0.955641  0  0  0.396739  0  0.939331  0  0  0.281993  0.377406  0  0.967197  0
H  H10  1  0.76670692  0.49583708  0.06573312  1  0  0.077446  0  0.955755  0  0  0.086596  0  1.021981  0  0  0.089377  0  1.018957  0  0  0.116324  0.084521  0  1.024229  0
H  H11  1  0.50416535  0.23329593  0.43426684  1  0  0.077484  0  0.955705  0  0  0.086625  0  1.021939  0  0  0.089386  0  1.018935  0  0  0.116326  0.084551  0  1.024185  0
H  H12  1  0.23329201  0.50416374  0.93426633  1  0  0.077455  0  0.955747  0  0  0.086605  0  1.021967  0  0  0.089387  0  1.018941  0  0  0.11634  0.08453  0  1.024214  0
H  H13  1  0.49583476  0.76670489  0.56573377  1  0  0.077475  0  0.955691  0  0  0.08662  0  1.021925  0  0  0.089379  0  1.018926  0  0  0.116334  0.084546  0  1.024171  0
H  H14  1  0.98857934  0.40247394  0.20067471  1  0  0.119202  0  0.957076  0  0  0.125931  0  1.021174  0  0  0.129347  0  1.020109  0  0  0.107889  0.123465  0  1.022074  0
H  H15  1  0.59752639  0.01142008  0.29932651  1  0  0.119216  0  0.957091  0  0  0.125945  0  1.021188  0  0  0.129359  0  1.020127  0  0  0.107896  0.12348  0  1.022084  0
H  H16  1  0.01141787  0.59752441  0.79932657  1  0  0.119215  0  0.95706  0  0  0.125941  0  1.021169  0  0  0.129358  0  1.020101  0  0  0.107889  0.123475  0  1.022066  0
H  H17  1  0.40247464  0.98857953  0.70067495  1  0  0.119217  0  0.957045  0  0  0.125942  0  1.021156  0  0  0.129359  0  1.020088  0  0  0.107891  0.123475  0  1.022053  0
H  H18  1  0.11196205  0.19041310  0.08444722  1  0  0.105917  0  0.962886  0  0  0.115233  0  1.026396  0  0  0.117925  0  1.025167  0  0  0.108892  0.11326  0  1.02733  0
H  H19  1  0.80958400  0.88803529  0.41555163  1  0  0.105925  0  0.962873  0  0  0.115225  0  1.026407  0  0  0.11792  0  1.02517  0  0  0.108894  0.113251  0  1.027341  0
H  H20  1  0.88803661  0.80958649  0.91555282  1  0  0.10591  0  0.962898  0  0  0.115213  0  1.026425  0  0  0.117905  0  1.025198  0  0  0.108888  0.11324  0  1.02736  0
H  H21  1  0.19041559  0.11196311  0.58444836  1  0  0.105935  0  0.962872  0  0  0.115243  0  1.026396  0  0  0.117936  0  1.025165  0  0  0.108899  0.113269  0  1.02733  0
H  H22  1  0.11528280  0.00063803  0.87178064  1  0  0.098801  0  0.948618  0  0  0.11219  0  1.005  0  0  0.113963  0  1.005981  0  0  0.105594  0.110882  0  1.004423  0
H  H23  1  0.99936167  0.88471737  0.62821828  1  0  0.098794  0  0.948624  0  0  0.112182  0  1.005006  0  0  0.113955  0  1.005987  0  0  0.105591  0.110875  0  1.004428  0
H  H24  1  0.88471824  0.99936159  0.12821992  1  0  0.098793  0  0.948637  0  0  0.112164  0  1.005037  0  0  0.113935  0  1.006022  0  0  0.105595  0.11086  0  1.004463  0
H  H25  1  0.00063937  0.11528226  0.37178228  1  0  0.098841  0  0.948583  0  0  0.112204  0  1.004994  0  0  0.113976  0  1.005975  0  0  0.105599  0.110897  0  1.004417  0
H  H26  1  0.12763013  0.55916520  0.44006343  1  0  0.121434  0  0.960211  0  0  0.12778  0  1.024255  0  0  0.131706  0  1.022553  0  0  0.105563  0.124981  0  1.02563  0
H  H27  1  0.44083116  0.87237435  0.05993258  1  0  0.121431  0  0.960326  0  0  0.127815  0  1.024335  0  0  0.131741  0  1.022632  0  0  0.105583  0.125017  0  1.025709  0
H  H28  1  0.87236921  0.44083199  0.55993625  1  0  0.121428  0  0.960226  0  0  0.127769  0  1.024281  0  0  0.131695  0  1.022577  0  0  0.105561  0.124971  0  1.025655  0
H  H29  1  0.55917028  0.12763259  0.94006511  1  0  0.12139  0  0.960274  0  0  0.127773  0  1.024277  0  0  0.131699  0  1.022575  0  0  0.105549  0.124973  0  1.025652  0
C  C30  1  0.82255304  0.40412518  0.01787717  1  0  0.150133  0  3.70376  0  0  0.114964  0  3.963032  0  0  0.123198  0  3.980455  0  0  0.055171  0.10964  0  3.951081  0
C  C31  1  0.59587716  0.17744782  0.48212222  1  0  0.150037  0  3.70382  0  0  0.114878  0  3.963086  0  0  0.12313  0  3.980512  0  0  0.055115  0.109553  0  3.951136  0
C  C32  1  0.17744563  0.59587442  0.98212288  1  0  0.150136  0  3.703738  0  0  0.114977  0  3.963  0  0  0.123212  0  3.980422  0  0  0.055155  0.109653  0  3.951047  0
C  C33  1  0.40412414  0.82255302  0.51787775  1  0  0.150145  0  3.703712  0  0  0.114978  0  3.962986  0  0  0.123227  0  3.980414  0  0  0.055145  0.109654  0  3.951034  0
C  C34  1  0.94647150  0.35025984  0.09353818  1  0  -0.109604  0  3.711185  0  0  -0.123515  0  3.966262  0  0  -0.130238  0  3.987011  0  0  -0.082449  -0.119162  0  3.952295  0
C  C35  1  0.64973989  0.05352743  0.40646189  1  0  -0.109616  0  3.711238  0  0  -0.123533  0  3.966305  0  0  -0.130256  0  3.987049  0  0  -0.082454  -0.119179  0  3.95234  0
C  C36  1  0.05352716  0.64973976  0.90646186  1  0  -0.109613  0  3.711152  0  0  -0.123529  0  3.966223  0  0  -0.130253  0  3.986976  0  0  -0.082443  -0.119176  0  3.952258  0
C  C37  1  0.35025762  0.94647218  0.59353609  1  0  -0.109643  0  3.711296  0  0  -0.123554  0  3.966366  0  0  -0.130276  0  3.987113  0  0  -0.082448  -0.119201  0  3.952401  0
C  C38  1  0.01434934  0.23375998  0.02884616  1  0  -0.046943  0  3.676048  0  0  -0.071601  0  3.925851  0  0  -0.069453  0  3.94392  0  0  -0.061004  -0.072753  0  3.91353  0
C  C39  1  0.76623818  0.98564903  0.47115417  1  0  -0.04693  0  3.676081  0  0  -0.071576  0  3.925875  0  0  -0.069427  0  3.943947  0  0  -0.060991  -0.072728  0  3.913554  0
C  C40  1  0.98564787  0.76623837  0.97115511  1  0  -0.046937  0  3.676093  0  0  -0.071593  0  3.925877  0  0  -0.069443  0  3.943945  0  0  -0.061019  -0.072746  0  3.913558  0
C  C41  1  0.23376050  0.01435058  0.52884498  1  0  -0.046976  0  3.676125  0  0  -0.071607  0  3.925937  0  0  -0.069458  0  3.944008  0  0  -0.06101  -0.072759  0  3.913615  0
C  C42  1  0.95647320  0.16974274  0.88964489  1  0  0.032142  0  3.776511  0  0  0.047275  0  4.00948  0  0  0.044853  0  4.033194  0  0  0.001979  0.048708  0  3.993555  0
C  C43  1  0.83025726  0.04352755  0.61035544  1  0  0.032076  0  3.77664  0  0  0.047215  0  4.009588  0  0  0.044793  0  4.033304  0  0  0.001944  0.048648  0  3.993663  0
C  C44  1  0.04352690  0.83025807  0.11035663  1  0  0.032026  0  3.776543  0  0  0.047208  0  4.009454  0  0  0.044786  0  4.033168  0  0  0.001961  0.048642  0  3.993527  0
C  C45  1  0.16974286  0.95647329  0.38964427  1  0  0.032169  0  3.776459  0  0  0.047254  0  4.009506  0  0  0.044831  0  4.033222  0  0  0.001969  0.048688  0  3.993578  0
C  C46  1  0.01799834  0.04531473  0.81707557  1  0  -0.085391  0  3.728054  0  0  -0.106195  0  3.977533  0  0  -0.108649  0  3.99928  0  0  -0.078896  -0.104485  0  3.962879  0
C  C47  1  0.95468391  0.98200080  0.68292302  1  0  -0.085378  0  3.728089  0  0  -0.10618  0  3.977564  0  0  -0.108635  0  3.999312  0  0  -0.078898  -0.104471  0  3.962911  0
C  C48  1  0.98200006  0.95468364  0.18292506  1  0  -0.085332  0  3.728061  0  0  -0.106124  0  3.977519  0  0  -0.108578  0  3.999264  0  0  -0.078884  -0.104422  0  3.962876  0
C  C49  1  0.04531383  0.01800000  0.31707708  1  0  -0.085448  0  3.728017  0  0  -0.10621  0  3.977505  0  0  -0.108663  0  3.99925  0  0  -0.078906  -0.104501  0  3.962856  0
C  C50  1  0.83059903  0.23166030  0.82132362  1  0  0.143405  0  3.738891  0  0  0.13585  0  3.976292  0  0  0.140912  0  3.997181  0  0  0.122319  0.132439  0  3.962199  0
C  C51  1  0.76834029  0.16940066  0.67867587  1  0  0.143435  0  3.73895  0  0  0.135882  0  3.976344  0  0  0.140943  0  3.997235  0  0  0.122325  0.132471  0  3.962251  0
C  C52  1  0.16940059  0.76833812  0.17867456  1  0  0.143483  0  3.738811  0  0  0.135897  0  3.976255  0  0  0.140957  0  3.997145  0  0  0.122327  0.132487  0  3.962159  0
C  C53  1  0.23165932  0.83059775  0.32132322  1  0  0.143404  0  3.738873  0  0  0.135844  0  3.97634  0  0  0.140906  0  3.997229  0  0  0.122292  0.132433  0  3.962245  0
C  C54  1  0.19041517  0.43956885  0.59494627  1  0  0.68259  0  3.892363  0  0  0.636486  0  4.181265  0  0  0.671025  0  4.172631  0  0  0.206283  0.613144  0  4.186234  0
C  C55  1  0.56043076  0.80958650  0.90504964  1  0  0.682504  0  3.892433  0  0  0.636392  0  4.18136  0  0  0.670931  0  4.172727  0  0  0.206245  0.613051  0  4.186329  0
C  C56  1  0.80958417  0.56042833  0.40505341  1  0  0.682546  0  3.89253  0  0  0.636409  0  4.181475  0  0  0.670949  0  4.172842  0  0  0.206267  0.613067  0  4.186444  0
C  C57  1  0.43957374  0.19041807  0.09494728  1  0  0.682534  0  3.892487  0  0  0.636408  0  4.181418  0  0  0.670948  0  4.172785  0  0  0.206284  0.613067  0  4.186385  0
C  C58  1  0.07809780  0.50420145  0.50343066  1  0  -0.169394  0  3.652646  0  0  -0.187461  0  3.906518  0  0  -0.192788  0  3.920462  0  0  -0.086896  -0.183989  0  3.897224  0
C  C59  1  0.49579497  0.92189543  0.99657016  1  0  -0.169423  0  3.652305  0  0  -0.187545  0  3.906243  0  0  -0.192866  0  3.92018  0  0  -0.086929  -0.184073  0  3.896947  0
C  C60  1  0.92190130  0.49579454  0.49656779  1  0  -0.169351  0  3.652689  0  0  -0.187404  0  3.906568  0  0  -0.192726  0  3.92051  0  0  -0.086885  -0.183933  0  3.897274  0
C  C61  1  0.50420659  0.07810663  0.00343013  1  0  -0.169305  0  3.652275  0  0  -0.187402  0  3.906195  0  0  -0.192727  0  3.920135  0  0  -0.08688  -0.18393  0  3.896903  0
N  N62  1  0.76741036  0.34787513  0.88633159  1  0  -0.375458  0  3.263121  0  0  -0.303657  0  3.527091  0  0  -0.323747  0  3.546173  0  0  -0.326842  -0.289906  0  3.513857  0
N  N63  1  0.65212674  0.23259116  0.61366782  1  0  -0.375406  0  3.263181  0  0  -0.303602  0  3.527126  0  0  -0.323691  0  3.546199  0  0  -0.326798  -0.289852  0  3.513892  0
N  N64  1  0.23258950  0.65212449  0.11366781  1  0  -0.375488  0  3.263093  0  0  -0.303689  0  3.527081  0  0  -0.323777  0  3.546161  0  0  -0.326861  -0.289939  0  3.513847  0
N  N65  1  0.34787429  0.76740847  0.38633274  1  0  -0.375483  0  3.263131  0  0  -0.303669  0  3.527098  0  0  -0.323757  0  3.546168  0  0  -0.326796  -0.289919  0  3.513863  0
O  O66  1  0.33173519  0.43885172  0.57943577  1  0  -0.679716  0  1.987422  0  0  -0.603645  0  2.227362  0  0  -0.633097  0  2.214306  0  0  -0.330649  -0.582955  0  2.235647  0
O  O67  1  0.56114762  0.66826561  0.92056430  1  0  -0.679698  0  1.987391  0  0  -0.603614  0  2.22732  0  0  -0.633068  0  2.214266  0  0  -0.330638  -0.582925  0  2.235605  0
O  O68  1  0.66826466  0.56114790  0.42056453  1  0  -0.679703  0  1.987486  0  0  -0.603617  0  2.227428  0  0  -0.633071  0  2.214372  0  0  -0.330622  -0.582928  0  2.235713  0
O  O69  1  0.43885182  0.33173764  0.07943579  1  0  -0.679736  0  1.987372  0  0  -0.603633  0  2.227283  0  0  -0.633088  0  2.214228  0  0  -0.330649  -0.582945  0  2.235568  0
O  O70  1  0.14281699  0.38982253  0.67935122  1  0  -0.617772  0  1.955013  0  0  -0.562806  0  2.175283  0  0  -0.587694  0  2.167344  0  0  -0.312852  -0.54551  0  2.180214  0
O  O71  1  0.61017753  0.85718407  0.82064738  1  0  -0.617675  0  1.955073  0  0  -0.562696  0  2.175338  0  0  -0.587585  0  2.167405  0  0  -0.312799  -0.545401  0  2.180267  0
O  O72  1  0.85718472  0.61017468  0.32064897  1  0  -0.617756  0  1.955098  0  0  -0.562772  0  2.175367  0  0  -0.587665  0  2.167437  0  0  -0.312851  -0.545475  0  2.180296  0
O  O73  1  0.38982737  0.14281685  0.17935066  1  0  -0.617737  0  1.95516  0  0  -0.562754  0  2.175424  0  0  -0.587644  0  2.167493  0  0  -0.312859  -0.545458  0  2.180353  0
O  O74  1  0.70774527  0.62076900  0.68296700  1  0  -0.853109  0  1.907789  0  0  -0.789287  0  2.117775  0  0  -0.813947  0  2.083261  0  0  -0.59358  -0.771676  0  2.141668  0
O  O75  1  0.37923086  0.29225516  0.81703293  1  0  -0.853112  0  1.907791  0  0  -0.789299  0  2.117768  0  0  -0.813962  0  2.083255  0  0  -0.593572  -0.771688  0  2.141661  0
O  O76  1  0.29225433  0.37922940  0.31703299  1  0  -0.853145  0  1.907768  0  0  -0.789333  0  2.117775  0  0  -0.813993  0  2.083259  0  0  -0.593609  -0.771722  0  2.14167  0
O  O77  1  0.62077019  0.70774448  0.18296672  1  0  -0.853106  0  1.907808  0  0  -0.789283  0  2.117769  0  0  -0.813946  0  2.083255  0  0  -0.593581  -0.771673  0  2.141662  0
