# generated using pymatgen
data_CuSiH16C24(N2F3)2
_symmetry_space_group_name_H-M   'P 1'
_cell_length_a   8.14634693
_cell_length_b   13.72101905
_cell_length_c   13.72108371
_cell_angle_alpha   89.99932217
_cell_angle_beta   89.99959728
_cell_angle_gamma   89.99844638
_symmetry_Int_Tables_number   1
_chemical_formula_structural   CuSiH16C24(N2F3)2
_chemical_formula_sum   'Cu1 Si1 H16 C24 N4 F6'
_cell_volume   1533.69034045
_cell_formula_units_Z   1
loop_
 _symmetry_equiv_pos_site_id
 _symmetry_equiv_pos_as_xyz
  1  'x, y, z'
loop_
 _atom_site_type_symbol
 _atom_site_label
 _atom_site_symmetry_multiplicity
 _atom_site_fract_x
 _atom_site_fract_y
 _atom_site_fract_z
 _atom_site_occupancy
 _atom_site_pbe_bader_charge
 _atom_site_pbe_bader_spin_density
 _atom_site_pbe_cm5_charge
 _atom_site_pbe_ddec_charge
 _atom_site_pbe_ddec_spin_density
 _atom_site_pbe_ddec_sum_bond_order
 _atom_site_pbe_magmom
Cu  Cu0  1  0.50001506  0.49999033  0.50000616  1  1.070801  0.563948  0.781409  0.681958  0.728294  2.281559  0.562
Si  Si1  1  0.00001303  0.49999489  0.50000565  1  3.182462  -0.000169  0.243363  1.724825  -0.000299  3.948105  0.0
H  H2  1  0.24451768  0.65519068  0.49998459  1  0.202959  0.002274  0.121967  0.111681  0.001078  1.039578  0.002
H  H3  1  0.23425352  0.83662844  0.50000322  1  0.084374  0.00131  0.118534  0.1284  0.000689  0.975211  0.001
H  H4  1  0.76576169  0.83662292  0.50000367  1  0.084668  0.001312  0.118526  0.128339  0.000689  0.975317  0.001
H  H5  1  0.75550746  0.65518604  0.49997852  1  0.202868  0.002274  0.121914  0.111538  0.001078  1.039646  0.002
H  H6  1  0.23425983  0.16335921  0.49998023  1  0.084535  0.00131  0.118475  0.128437  0.000689  0.975128  0.001
H  H7  1  0.24452143  0.34479755  0.49997695  1  0.203089  0.002273  0.122066  0.11186  0.001078  1.039522  0.002
H  H8  1  0.75551121  0.34478708  0.50008603  1  0.203089  0.002273  0.122056  0.111788  0.001078  1.039397  0.002
H  H9  1  0.76576800  0.16334858  0.50007543  1  0.084669  0.001312  0.118548  0.128449  0.000689  0.974987  0.001
H  H10  1  0.24451917  0.50001397  0.65520576  1  0.203005  0.002274  0.122059  0.111812  0.001078  1.039539  0.002
H  H11  1  0.23425450  0.49998965  0.83664261  1  0.084447  0.00131  0.118476  0.128375  0.000689  0.975178  0.001
H  H12  1  0.76576268  0.49998922  0.83664379  1  0.08476  0.001313  0.118441  0.128299  0.000689  0.975194  0.001
H  H13  1  0.75550649  0.50001443  0.65520625  1  0.203106  0.002274  0.12192  0.111615  0.001078  1.039586  0.002
H  H14  1  0.23426007  0.50002278  0.16337072  1  0.084634  0.00131  0.118499  0.128446  0.000689  0.975104  0.001
H  H15  1  0.24452117  0.50002528  0.34480753  1  0.202975  0.002274  0.122004  0.111748  0.001078  1.039557  0.002
H  H16  1  0.75550972  0.49991569  0.34480511  1  0.202845  0.002273  0.122021  0.111708  0.001078  1.039394  0.002
H  H17  1  0.76577071  0.49992689  0.16336825  1  0.084502  0.001313  0.118562  0.128413  0.000689  0.974916  0.001
C  C18  1  0.35690936  0.69821359  0.49999068  1  0.512333  -0.000913  0.054675  0.097921  -0.001274  3.901312  -0.001
C  C19  1  0.35212074  0.79931399  0.50000030  1  -0.055043  0.00633  -0.069525  -0.159553  0.0042  3.895452  0.005
C  C20  1  0.50000907  0.85246124  0.50000553  1  0.109171  -0.003466  0.017629  0.16828  -0.003875  4.120172  -0.002
C  C21  1  0.64789626  0.79930954  0.49999974  1  -0.054898  0.00633  -0.069616  -0.159494  0.0042  3.895522  0.005
C  C22  1  0.64311249  0.69820921  0.49998796  1  0.512095  -0.000912  0.054909  0.09824  -0.001273  3.900967  -0.001
C  C23  1  0.50001274  0.95553740  0.50001294  1  -0.285831  -0.001077  -0.029785  -0.092934  -0.001179  4.087634  0.0
C  C24  1  0.50001247  0.04444254  0.50001979  1  -0.0545  -0.001032  -0.029773  -0.093086  -0.001179  4.087499  0.0
C  C25  1  0.50001491  0.14751797  0.50002355  1  0.109815  -0.003466  0.017859  0.168723  -0.003876  4.119309  -0.002
C  C26  1  0.35212649  0.20067259  0.49999947  1  -0.055836  0.00633  -0.06953  -0.159732  0.0042  3.895241  0.005
C  C27  1  0.35691517  0.30177073  0.49999959  1  0.513017  -0.000914  0.054556  0.097748  -0.001273  3.901595  -0.001
C  C28  1  0.64311708  0.30176490  0.50005443  1  0.512379  -0.000913  0.054671  0.09808  -0.001272  3.901303  -0.001
C  C29  1  0.64790201  0.20066814  0.50005138  1  -0.05569  0.006329  -0.069747  -0.159922  0.004199  3.89548  0.005
C  C30  1  0.35691160  0.50000556  0.69822911  1  0.513072  -0.000915  0.054621  0.097815  -0.001273  3.901461  -0.001
C  C31  1  0.35212230  0.49999261  0.79932828  1  -0.055654  0.00633  -0.069599  -0.159699  0.0042  3.895312  0.005
C  C32  1  0.50000910  0.49998461  0.85247686  1  0.110648  -0.003466  0.017833  0.168711  -0.003875  4.119186  -0.002
C  C33  1  0.64789659  0.49999181  0.79932918  1  -0.056666  0.006332  -0.069533  -0.159586  0.0042  3.895466  0.005
C  C34  1  0.64311227  0.50000629  0.69822857  1  0.512789  -0.000914  0.05497  0.098285  -0.001273  3.901062  -0.001
C  C35  1  0.50000966  0.49997671  0.95555546  1  -0.054541  -0.001033  -0.029921  -0.093281  -0.001179  4.087618  0.0
C  C36  1  0.50001554  0.49997554  0.04445760  1  -0.285803  -0.001077  -0.029707  -0.092876  -0.001178  4.087787  0.0
C  C37  1  0.50001611  0.49997711  0.14753182  1  0.109383  -0.003466  0.017742  0.168584  -0.003876  4.119725  -0.002
C  C38  1  0.35212861  0.50000344  0.20068460  1  -0.0554  0.00633  -0.069488  -0.159694  0.0042  3.895383  0.005
C  C39  1  0.35691293  0.50000281  0.30178229  1  0.512552  -0.000912  0.054595  0.097777  -0.001273  3.901546  -0.001
C  C40  1  0.64311729  0.49994814  0.30178175  1  0.512276  -0.000913  0.054695  0.09804  -0.001273  3.901089  -0.001
C  C41  1  0.64790291  0.49995016  0.20068404  1  -0.055099  0.00633  -0.069651  -0.159693  0.0042  3.89539  0.005
N  N42  1  0.50001273  0.64857842  0.49998560  1  -1.237383  0.096248  -0.333855  -0.215582  0.064395  3.567655  0.085
N  N43  1  0.50001493  0.35140297  0.50002745  1  -1.237626  0.096231  -0.333638  -0.215351  0.064381  3.567681  0.085
N  N44  1  0.50001410  0.50001059  0.64859647  1  -1.237917  0.096245  -0.333853  -0.215573  0.064387  3.567372  0.085
N  N45  1  0.50001479  0.49997445  0.35141659  1  -1.237536  0.096248  -0.333769  -0.215432  0.064394  3.567515  0.085
F  F46  1  0.21402306  0.49998669  0.50000379  1  -0.844432  -0.001663  -0.205533  -0.534916  -0.001764  1.317704  -0.001
F  F47  1  0.78600337  0.50000345  0.50000708  1  -0.844625  -0.001665  -0.205867  -0.535056  -0.001763  1.317751  -0.001
F  F48  1  0.00002008  0.58812006  0.41189110  1  -0.832074  0.000161  -0.258805  -0.551115  0.00016  1.054731  0.0
F  F49  1  0.00000720  0.41187045  0.58811948  1  -0.832368  0.000161  -0.2588  -0.551105  0.00016  1.05463  0.0
F  F50  1  0.00002140  0.58810954  0.58812718  1  -0.832204  0.000161  -0.258804  -0.551099  0.00016  1.05478  0.0
F  F51  1  0.00000098  0.41188242  0.41188267  1  -0.832196  0.000161  -0.258795  -0.551115  0.00016  1.054818  0.0
