# generated using pymatgen
data_ZnH4C20N5O4
_symmetry_space_group_name_H-M   'P 1'
_cell_length_a   14.32677887
_cell_length_b   14.15206812
_cell_length_c   15.32878640
_cell_angle_alpha   89.99553187
_cell_angle_beta   91.29682371
_cell_angle_gamma   89.99722119
_symmetry_Int_Tables_number   1
_chemical_formula_structural   ZnH4C20N5O4
_chemical_formula_sum   'Zn2 H8 C40 N10 O8'
_cell_volume   3107.16979607
_cell_formula_units_Z   2
loop_
 _symmetry_equiv_pos_site_id
 _symmetry_equiv_pos_as_xyz
  1  'x, y, z'
loop_
 _atom_site_type_symbol
 _atom_site_label
 _atom_site_symmetry_multiplicity
 _atom_site_fract_x
 _atom_site_fract_y
 _atom_site_fract_z
 _atom_site_occupancy
 _atom_site_pbe_bader_charge
 _atom_site_pbe_bader_spin_density
 _atom_site_pbe_cm5_charge
 _atom_site_pbe_ddec_charge
 _atom_site_pbe_ddec_spin_density
 _atom_site_pbe_ddec_sum_bond_order
 _atom_site_pbe_magmom
Zn  Zn0  1  0.50000575  0.40190665  0.49999544  1  1.284929  0  0.67506  0.82764  0  2.421774  0
Zn  Zn1  1  0.49997672  0.59831328  0.50002699  1  1.297202  0  0.672453  0.831018  0  2.395276  0
H  H2  1  0.36338821  0.93141758  0.43646425  1  0.119308  0  0.133403  0.148187  0  0.964015  0
H  H3  1  0.58428289  0.06903654  0.61914267  1  0.134223  0  0.133734  0.148272  0  0.963907  0
H  H4  1  0.63663233  0.93135544  0.56356716  1  0.119537  0  0.13338  0.148121  0  0.964372  0
H  H5  1  0.41579828  0.06903801  0.38085371  1  0.134064  0  0.133739  0.148176  0  0.964393  0
H  H6  1  0.64258158  0.44988446  0.06720896  1  0.118582  0  0.119971  0.127004  0  0.98033  0
H  H7  1  0.64671384  0.53584579  0.94548339  1  0.081127  0  0.119875  0.126672  0  0.98054  0
H  H8  1  0.35740746  0.45023278  0.93291322  1  0.117874  0  0.120096  0.127179  0  0.980077  0
H  H9  1  0.35352710  0.53637138  0.05443403  1  0.121847  0  0.119588  0.126168  0  0.981143  0
C  C10  1  0.49333292  0.49860743  0.33132691  1  1.590545  0  0.22147  0.602142  0  4.183458  0
C  C11  1  0.50662037  0.49847867  0.66869727  1  1.590851  0  0.221574  0.602191  0  4.183083  0
C  C12  1  0.32195599  0.50098574  0.50479082  1  1.703919  0  0.225928  0.664454  0  4.22251  0
C  C13  1  0.67802775  0.50105229  0.49521645  1  1.700398  0  0.225699  0.664053  0  4.22311  0
C  C14  1  0.42512235  0.89682803  0.46416362  1  0.066463  0  -0.04715  -0.180075  0  3.836101  0
C  C15  1  0.54724921  0.10378110  0.56527298  1  0.015235  0  -0.045156  -0.177741  0  3.833596  0
C  C16  1  0.57489063  0.89679325  0.53588125  1  0.066628  0  -0.047102  -0.180122  0  3.836069  0
C  C17  1  0.45282762  0.10378788  0.43470838  1  0.015626  0  -0.045047  -0.177719  0  3.83341  0
C  C18  1  0.42772071  0.79780858  0.46484287  1  0.596533  0  0.165987  0.253372  0  4.001705  0
C  C19  1  0.54580243  0.20276162  0.56310480  1  0.594693  0  0.168372  0.249513  0  3.99796  0
C  C20  1  0.57222806  0.79777733  0.53524392  1  0.595879  0  0.166285  0.25405  0  4.000794  0
C  C21  1  0.45428636  0.20276924  0.43686566  1  0.595079  0  0.168194  0.249677  0  3.998362  0
C  C22  1  0.22211220  0.50380810  0.50483450  1  0.069592  0  -0.002035  -0.118464  0  3.830304  0
C  C23  1  0.77788446  0.50387505  0.49513720  1  0.069762  0  -0.001691  -0.117928  0  3.829893  0
C  C24  1  0.13649563  0.50572439  0.50303817  1  -0.150354  0  -0.000187  0.040097  0  4.227126  0
C  C25  1  0.86349243  0.50576738  0.49691276  1  -0.15049  0  -0.000372  0.039965  0  4.227116  0
C  C26  1  0.04308021  0.50677656  0.50098743  1  -0.128002  0  0.006199  0.00351  0  4.175685  0
C  C27  1  0.95690776  0.50679053  0.49896133  1  0.101438  0  0.006452  0.004077  0  4.175356  0
C  C28  1  0.50001304  0.94809891  0.50000817  1  -0.09496  0  0.025498  0.1187  0  3.992809  0
C  C29  1  0.50003849  0.05253085  0.50000180  1  0.138212  0  0.02858  0.125406  0  3.982719  0
C  C30  1  0.57821206  0.47065270  0.09851936  1  -0.068403  0  -0.062103  -0.145233  0  3.891145  0
C  C31  1  0.58351497  0.51706331  0.90855223  1  -0.012289  0  -0.060059  -0.142907  0  3.885253  0
C  C32  1  0.42181628  0.47076733  0.90154778  1  -0.069081  0  -0.062078  -0.145064  0  3.892044  0
C  C33  1  0.41665230  0.51742863  0.09141532  1  -0.051994  0  -0.060141  -0.142557  0  3.885041  0
C  C34  1  0.57615016  0.47085452  0.18993305  1  0.128705  0  0.018898  0.060017  0  4.056911  0
C  C35  1  0.58618975  0.51807403  0.81712954  1  0.048199  0  0.022115  0.067386  0  4.053643  0
C  C36  1  0.42382514  0.47092871  0.81014417  1  0.132936  0  0.018849  0.059663  0  4.058175  0
C  C37  1  0.41391250  0.51847486  0.18283334  1  0.049719  0  0.022148  0.067324  0  4.054137  0
C  C38  1  0.49419937  0.49620571  0.23338004  1  0.107688  0  0.021226  -0.059808  0  3.839295  0
C  C39  1  0.50579457  0.49603799  0.76663299  1  0.108579  0  0.021204  -0.059519  0  3.839101  0
C  C40  1  0.49875104  0.49433719  0.04821155  1  0.011463  0  0.001041  0.075417  0  4.02376  0
C  C41  1  0.50136943  0.49426394  0.95180549  1  0.105535  0  0.000629  0.075025  0  4.024476  0
C  C42  1  0.34869448  0.75105074  0.42544880  1  0.864913  0  0.188797  0.185042  0  3.940398  0
C  C43  1  0.59533622  0.25047471  0.63258273  1  0.886869  0  0.194673  0.203393  0  3.939091  0
C  C44  1  0.65120534  0.75098207  0.57470667  1  0.862865  0  0.188087  0.183812  0  3.940051  0
C  C45  1  0.40475903  0.25049591  0.36737742  1  0.886478  0  0.194682  0.203194  0  3.938548  0
C  C46  1  0.65929924  0.44503948  0.23763587  1  0.830457  0  0.17496  0.232075  0  4.008972  0
C  C47  1  0.67305857  0.53844061  0.77696544  1  0.847053  0  0.174208  0.22341  0  4.000595  0
C  C48  1  0.34057983  0.44537600  0.76246113  1  0.830089  0  0.174392  0.231711  0  4.00852  0
C  C49  1  0.32702562  0.53904151  0.22290093  1  0.859933  0  0.174095  0.223843  0  4.002057  0
N  N50  1  0.49996357  0.74806878  0.50005252  1  -1.147034  0  -0.27093  -0.2446  0  3.332654  0
N  N51  1  0.50004265  0.25235536  0.49997816  1  -1.167286  0  -0.268241  -0.234805  0  3.333323  0
N  N52  1  0.27952955  0.72712355  0.39033428  1  -1.004101  0  -0.23775  -0.234761  0  2.662668  0
N  N53  1  0.63759168  0.27783152  0.69342058  1  -1.035911  0  -0.252347  -0.258558  0  2.642679  0
N  N54  1  0.72030974  0.72703428  0.60992218  1  -1.002287  0  -0.237283  -0.233983  0  2.662046  0
N  N55  1  0.36251244  0.27787103  0.30653413  1  -1.035741  0  -0.252381  -0.258422  0  2.642227  0
N  N56  1  0.72905058  0.42367154  0.27327147  1  -1.093651  0  -0.299536  -0.335171  0  2.680221  0
N  N57  1  0.74645356  0.55241995  0.74797645  1  -1.061122  0  -0.287839  -0.317709  0  2.688705  0
N  N58  1  0.27078546  0.42422083  0.72678669  1  -1.093602  0  -0.299009  -0.334824  0  2.680403  0
N  N59  1  0.25360259  0.55314005  0.25177758  1  -1.072068  0  -0.28781  -0.318176  0  2.690065  0
O  O60  1  0.51781853  0.42241192  0.36907377  1  -1.153499  0  -0.302516  -0.535181  0  2.355165  0
O  O61  1  0.53005255  0.57571117  0.63356009  1  -1.150164  0  -0.304511  -0.534214  0  2.289624  0
O  O62  1  0.48215570  0.42230917  0.63092659  1  -1.153058  0  -0.302483  -0.535192  0  2.355165  0
O  O63  1  0.46987690  0.57579336  0.36648046  1  -1.14957  0  -0.304452  -0.534094  0  2.290192  0
O  O64  1  0.35985270  0.42355423  0.48197452  1  -1.139091  0  -0.307323  -0.534919  0  2.276589  0
O  O65  1  0.63508110  0.57684855  0.47247716  1  -1.138733  0  -0.313532  -0.547289  0  2.303803  0
O  O66  1  0.64015003  0.42361386  0.51802220  1  -1.137757  0  -0.307142  -0.534848  0  2.277131  0
O  O67  1  0.36488945  0.57676662  0.52756524  1  -1.140778  0  -0.313336  -0.547072  0  2.303688  0
