# generated using pymatgen
data_CoH8C9NO7
_symmetry_space_group_name_H-M   'P 1'
_cell_length_a   5.22607056
_cell_length_b   8.51268823
_cell_length_c   12.01876046
_cell_angle_alpha   102.70404877
_cell_angle_beta   96.21176952
_cell_angle_gamma   105.76723276
_symmetry_Int_Tables_number   1
_chemical_formula_structural   CoH8C9NO7
_chemical_formula_sum   'Co2 H16 C18 N2 O14'
_cell_volume   493.87492326
_cell_formula_units_Z   2
loop_
 _symmetry_equiv_pos_site_id
 _symmetry_equiv_pos_as_xyz
  1  'x, y, z'
loop_
 _atom_site_type_symbol
 _atom_site_label
 _atom_site_symmetry_multiplicity
 _atom_site_fract_x
 _atom_site_fract_y
 _atom_site_fract_z
 _atom_site_occupancy
 _atom_site_hle17_ddec_charge
 _atom_site_hle17_ddec_spin_density
 _atom_site_hle17_ddec_sum_bond_order
 _atom_site_hle17_magmom
 _atom_site_hse06_10hf_ddec_charge
 _atom_site_hse06_10hf_ddec_spin_density
 _atom_site_hse06_10hf_ddec_sum_bond_order
 _atom_site_hse06_10hf_magmom
 _atom_site_hse06_ddec_charge
 _atom_site_hse06_ddec_spin_density
 _atom_site_hse06_ddec_sum_bond_order
 _atom_site_hse06_magmom
 _atom_site_pbe_cm5_charge
 _atom_site_pbe_ddec_charge
 _atom_site_pbe_ddec_spin_density
 _atom_site_pbe_ddec_sum_bond_order
 _atom_site_pbe_magmom
Co  Co0  1  0.44123575  0.68263530  0.50062948  1  1.128993  -2.840363  1.76294  -2.59  1.097688  -2.846024  2.16581  -2.663  1.178499  -2.893318  2.09263  -2.736  0.649166  1.027693  -2.798067  2.226889  -2.589
Co  Co1  1  0.55877655  0.31736774  0.49937061  1  1.128941  2.840359  1.76294  2.59  1.09766  2.846026  2.165807  2.663  1.178475  2.893319  2.09262  2.736  0.649179  1.02766  2.798045  2.226913  2.589
H  H2  1  0.73077070  0.61888659  0.06559655  1  0.317108  -1e-06  0.878051  0.0  0.293857  -3e-06  0.947861  0.0  0.302493  -2e-06  0.940504  0.0  0.319656  0.287721  -5e-06  0.953124  0.0
H  H3  1  0.26919667  0.38111511  0.93440619  1  0.317286  1e-06  0.877989  0.0  0.293995  3e-06  0.947796  0.0  0.302632  2e-06  0.940439  0.0  0.31971  0.287862  5e-06  0.953061  0.0
H  H4  1  0.92691819  0.78242197  0.42911176  1  0.449533  -0.00041  0.842509  -0.002  0.423157  -0.000394  0.896573  -0.002  0.434636  -0.000128  0.880246  -0.001  0.299813  0.414772  -0.000656  0.908416  -0.002
H  H5  1  0.07309474  0.21758235  0.57088607  1  0.449376  0.00041  0.842703  0.002  0.423007  0.000394  0.896759  0.002  0.434484  0.000128  0.880436  0.001  0.29979  0.414625  0.000657  0.908601  0.002
H  H6  1  0.74271706  0.90901832  0.43037423  1  0.419655  0.000159  0.890076  0.0  0.390895  -0.00021  0.952831  -0.001  0.402108  -0.000135  0.936858  0.0  0.295031  0.382693  -0.000246  0.964427  -0.001
H  H7  1  0.25729464  0.09098347  0.56962397  1  0.419734  -0.000159  0.890004  0.0  0.390954  0.000209  0.952751  0.001  0.402166  0.000135  0.936777  0.0  0.295066  0.382761  0.000246  0.964333  0.001
H  H8  1  0.31268846  0.86197027  0.36572681  1  0.439241  7.9e-05  0.850423  0.001  0.410482  -0.000297  0.914061  0.0  0.420623  -0.000185  0.899634  0.0  0.307085  0.403135  -0.0004  0.924461  -0.001
H  H9  1  0.68732263  0.13803026  0.63427033  1  0.439179  -8e-05  0.850497  -0.001  0.410436  0.000297  0.914091  0.0  0.420572  0.000185  0.899672  0.0  0.307109  0.403095  0.0004  0.92448  0.001
H  H10  1  0.18591471  0.65676853  0.30886908  1  0.423753  0.000181  0.887523  0.001  0.389638  -0.000158  0.955571  0.0  0.402143  -4.3e-05  0.937853  0.0  0.291664  0.380834  -0.000271  0.967963  0.0
H  H11  1  0.81409444  0.34323198  0.69112963  1  0.423748  -0.00018  0.887519  -0.001  0.389649  0.000158  0.955539  0.0  0.402142  4.3e-05  0.937843  0.0  0.2917  0.38085  0.000271  0.967927  0.0
H  H12  1  0.34799134  0.92900145  0.03799565  1  0.113089  -1.7e-05  0.967376  0.0  0.122876  -9e-06  1.028152  0.0  0.125751  -4e-06  1.027021  0.0  0.10831  0.120821  -2.1e-05  1.029006  0.0
H  H13  1  0.65199870  0.07099143  0.96200426  1  0.113043  1.7e-05  0.967394  0.0  0.122869  9e-06  1.028119  0.0  0.12574  4e-06  1.026998  0.0  0.108297  0.120812  2.1e-05  1.028973  0.0
H  H14  1  0.67770346  0.83102983  0.21743795  1  0.118702  6.8e-05  0.942948  0.0  0.127058  8.8e-05  1.005303  0.0  0.131291  7.4e-05  1.001983  0.0  0.111369  0.123863  0.000101  1.008034  0.0
H  H15  1  0.32229981  0.16897444  0.78256358  1  0.118743  -6.8e-05  0.94283  0.0  0.127093  -8.8e-05  1.005191  0.0  0.131328  -7.4e-05  1.001869  0.0  0.11138  0.1239  -0.000101  1.007929  0.0
H  H16  1  0.46599704  0.23605277  0.13246413  1  0.116491  1e-05  0.938583  0.0  0.1251  -2.8e-05  0.999156  0.0  0.128607  -2.3e-05  0.997281  0.0  0.10808  0.122465  -3.4e-05  1.000769  0.0
H  H17  1  0.53400450  0.76394396  0.86753278  1  0.116406  -1e-05  0.938575  0.0  0.125032  2.8e-05  0.999146  0.0  0.128513  2.3e-05  0.997306  0.0  0.108064  0.122401  3.4e-05  1.000762  0.0
C  C18  1  0.08134681  0.59406228  0.02254838  1  0.469152  -8.6e-05  3.832625  0.0  0.421712  -0.000107  4.128285  0.0  0.449078  -7.8e-05  4.123712  0.0  0.248328  0.403097  -0.000149  4.131118  0.0
C  C19  1  0.91861631  0.40592673  0.97745545  1  0.46958  8.6e-05  3.832619  0.0  0.422144  0.000107  4.128224  0.0  0.449515  7.9e-05  4.123651  0.0  0.248408  0.403525  0.000149  4.131062  0.0
C  C20  1  0.14817032  0.20673153  0.23387756  1  -0.057334  -0.003486  3.700346  -0.004  -0.05259  -0.001781  3.943981  -0.002  -0.056551  -0.001151  3.962046  -0.001  -0.006465  -0.05019  -0.002652  3.932674  -0.003
C  C21  1  0.85183942  0.79327021  0.76612470  1  -0.057181  0.003483  3.700338  0.004  -0.052624  0.001782  3.944102  0.002  -0.056589  0.001152  3.962155  0.001  -0.006442  -0.050224  0.002653  3.932796  0.003
C  C22  1  0.00812402  0.86017700  0.12290237  1  0.258955  -0.000726  3.778155  -0.001  0.25393  -0.00069  4.026323  -0.001  0.260833  -0.000583  4.047268  -0.001  0.1019  0.249158  -0.000846  4.012376  -0.001
C  C23  1  0.99186664  0.13981715  0.87709693  1  0.259152  0.000728  3.778094  0.001  0.254093  0.000689  4.026275  0.001  0.260999  0.000583  4.047219  0.001  0.101941  0.249322  0.000846  4.01233  0.001
C  C24  1  0.23034237  0.97540497  0.09920408  1  -0.131769  -0.000282  3.685809  0.0  -0.157048  -6e-06  3.944054  0.0  -0.159917  0.000166  3.963966  0.0  -0.083798  -0.155263  -0.000403  3.930758  0.0
C  C25  1  0.76965398  0.02459299  0.90079528  1  -0.131763  0.000279  3.685842  0.0  -0.157049  6e-06  3.944069  0.0  -0.159919  -0.000164  3.963971  0.0  -0.083792  -0.155262  0.000403  3.930768  0.0
C  C26  1  0.22884682  0.39246393  0.29123060  1  0.703685  -0.00051  3.808499  0.0  0.65785  -0.001489  4.10615  -0.002  0.697987  -0.001039  4.092981  -0.001  0.23351  0.628829  -0.002092  4.114208  -0.002
C  C27  1  0.77116162  0.60753909  0.70877014  1  0.703484  0.000511  3.808836  0.0  0.657858  0.001487  4.106226  0.002  0.698016  0.001038  4.093016  0.001  0.233514  0.628838  0.002092  4.114298  0.002
C  C28  1  0.85475165  0.91943167  0.20112581  1  -0.153296  -0.000295  3.684563  0.0  -0.185242  0.000218  3.939028  0.001  -0.186605  0.000329  3.956003  0.001  -0.084122  -0.18461  -7.4e-05  3.928329  0.0
C  C29  1  0.14524909  0.08057135  0.79887456  1  -0.153309  0.000292  3.684399  0.0  -0.185247  -0.000218  3.938856  -0.001  -0.186605  -0.00033  3.955818  -0.001  -0.084142  -0.184619  7.5e-05  3.928168  0.0
C  C30  1  0.29634950  0.14712014  0.15330746  1  -0.063015  -0.001038  3.721435  -0.001  -0.087858  -0.001057  3.982443  -0.001  -0.0893  -0.00087  4.002194  -0.001  -0.083835  -0.086877  -0.001305  3.969422  -0.001
C  C31  1  0.70365195  0.85288036  0.84669171  1  -0.06294  0.00104  3.721301  0.001  -0.087765  0.001057  3.982352  0.001  -0.08919  0.000868  4.002115  0.001  -0.083811  -0.08679  0.001305  3.969343  0.001
C  C32  1  0.92445850  0.09117935  0.25758034  1  -0.072208  0.000934  3.76833  0.002  -0.057212  -0.000126  4.005746  0.0  -0.06336  -0.000317  4.026901  0.0  -0.015219  -0.053496  7e-06  3.99266  0.0
C  C33  1  0.07555192  0.90881984  0.74242404  1  -0.072231  -0.000932  3.768406  -0.002  -0.057192  0.000126  4.005813  0.0  -0.063339  0.000319  4.026975  0.0  -0.015186  -0.053474  -7e-06  3.992724  0.0
C  C34  1  0.75807294  0.14835555  0.34107480  1  0.642873  -0.005153  3.896191  -0.009  0.591875  -0.00054  4.197778  -0.002  0.628066  -0.000376  4.192603  -0.002  0.209923  0.565703  -0.001343  4.200484  -0.004
C  C35  1  0.24193611  0.85164873  0.65892701  1  0.642756  0.005154  3.896104  0.009  0.591781  0.000539  4.197648  0.002  0.627956  0.000374  4.192487  0.002  0.209868  0.565611  0.001344  4.200347  0.004
N  N36  1  0.92782454  0.68659289  0.06922400  1  -0.412032  -0.000116  3.376495  0.0  -0.356416  -0.000109  3.6119  0.0  -0.378193  -5.9e-05  3.621122  0.0  -0.384863  -0.341544  -0.000175  3.605514  0.0
N  N37  1  0.07214938  0.31340249  0.93077804  1  -0.412527  0.000114  3.376592  0.0  -0.356834  0.000109  3.612047  0.0  -0.378616  5.9e-05  3.621258  0.0  -0.384958  -0.341965  0.000175  3.605674  0.0
O  O38  1  0.59572122  0.04220258  0.38176585  1  -0.6704  0.014855  2.051447  0.025  -0.612063  0.014497  2.287253  0.023  -0.64244  0.011244  2.278214  0.018  -0.310055  -0.588931  0.017925  2.292761  0.029
O  O39  1  0.40428845  0.95780296  0.61823619  1  -0.670474  -0.014854  2.051367  -0.025  -0.612051  -0.014495  2.28705  -0.023  -0.642397  -0.011241  2.277993  -0.018  -0.310048  -0.588929  -0.017921  2.29255  -0.029
O  O40  1  0.78022625  0.81888208  0.46443820  1  -0.844461  -0.036178  1.977621  -0.057  -0.807526  -0.031765  2.202649  -0.046  -0.837837  -0.025578  2.163281  -0.036  -0.578857  -0.782586  -0.037615  2.230726  -0.055
O  O41  1  0.21978920  0.18112348  0.53556245  1  -0.844379  0.03618  1.977695  0.057  -0.807447  0.031765  2.202695  0.046  -0.837764  0.025578  2.163337  0.036  -0.578874  -0.782494  0.037618  2.230735  0.055
O  O42  1  0.19961006  0.75591653  0.37876977  1  -0.839782  -0.030172  1.974846  -0.051  -0.784951  -0.026411  2.168991  -0.04  -0.814129  -0.021992  2.133451  -0.033  -0.552591  -0.762261  -0.030356  2.194321  -0.045
O  O43  1  0.80040293  0.24408396  0.62123161  1  -0.839708  0.030174  1.974947  0.051  -0.784904  0.026411  2.169117  0.04  -0.814076  0.021993  2.133588  0.033  -0.552679  -0.762201  0.030357  2.194415  0.045
O  O44  1  0.78130611  0.30568850  0.37382291  1  -0.583818  0.049019  2.0485  0.081  -0.548777  0.032673  2.313765  0.049  -0.587418  0.024854  2.305788  0.036  -0.296735  -0.517808  0.040622  2.317829  0.062
O  O45  1  0.21870489  0.69431580  0.62617650  1  -0.583746  -0.049019  2.048394  -0.081  -0.548758  -0.032674  2.313657  -0.049  -0.587398  -0.024855  2.305692  -0.036  -0.296741  -0.517788  -0.040617  2.317713  -0.062
O  O46  1  0.35092600  0.44371501  0.39875754  1  -0.672185  -0.018409  2.211466  -0.024  -0.642966  -0.010844  2.518672  -0.01  -0.687773  -0.007753  2.500735  -0.006  -0.309351  -0.605614  -0.014302  2.528858  -0.016
O  O47  1  0.64907789  0.55629052  0.60124422  1  -0.67212  0.01841  2.211692  0.024  -0.642975  0.010843  2.518809  0.01  -0.687792  0.007751  2.500862  0.006  -0.309374  -0.605623  0.014307  2.529005  0.016
O  O48  1  0.18212053  0.48885368  0.23151946  1  -0.574628  0.00139  1.965228  0.002  -0.527094  0.001007  2.1799  0.001  -0.553906  0.000978  2.169798  0.001  -0.293349  -0.507885  0.000835  2.18631  0.001
O  O49  1  0.81788610  0.51114559  0.76847643  1  -0.574544  -0.00139  1.965282  -0.002  -0.527078  -0.001006  2.179864  -0.001  -0.553888  -0.000979  2.169754  -0.001  -0.293309  -0.507868  -0.000834  2.186282  -0.001
O  O50  1  0.32385077  0.64684953  0.01600613  1  -0.526293  -0.000118  1.969145  0.0  -0.486376  -8.6e-05  2.195933  0.0  -0.504685  -6.2e-05  2.188049  0.0  -0.284554  -0.47374  -0.000135  2.201247  0.0
O  O51  1  0.67611629  0.35313571  0.98399562  1  -0.526515  0.000118  1.969273  0.0  -0.486647  8.5e-05  2.196104  0.0  -0.504964  6.1e-05  2.188225  0.0  -0.284709  -0.474004  0.000134  2.201413  0.0
