# generated using pymatgen
data_ZnH9C16NO4
_symmetry_space_group_name_H-M   'P 1'
_cell_length_a   18.48387059
_cell_length_b   20.67759611
_cell_length_c   20.67756277
_cell_angle_alpha   71.81372278
_cell_angle_beta   63.45248280
_cell_angle_gamma   63.45266918
_symmetry_Int_Tables_number   1
_chemical_formula_structural   ZnH9C16NO4
_chemical_formula_sum   'Zn8 H72 C128 N8 O32'
_cell_volume   6261.70719679
_cell_formula_units_Z   8
loop_
 _symmetry_equiv_pos_site_id
 _symmetry_equiv_pos_as_xyz
  1  'x, y, z'
loop_
 _atom_site_type_symbol
 _atom_site_label
 _atom_site_symmetry_multiplicity
 _atom_site_fract_x
 _atom_site_fract_y
 _atom_site_fract_z
 _atom_site_occupancy
 _atom_site_pbe_bader_charge
 _atom_site_pbe_bader_spin_density
 _atom_site_pbe_cm5_charge
 _atom_site_pbe_ddec_charge
 _atom_site_pbe_ddec_spin_density
 _atom_site_pbe_ddec_sum_bond_order
 _atom_site_pbe_magmom
Zn  Zn0  1  0.94513251  0.36851836  0.73004081  1  1.280007  0  0.664688  0.813193  0  2.413176  0
Zn  Zn1  1  0.54366821  0.13154677  0.76995841  1  1.275981  0  0.663928  0.810925  0  2.415089  0
Zn  Zn2  1  0.45632757  0.23004410  0.86845566  1  1.277966  0  0.663956  0.810832  0  2.41496  0
Zn  Zn3  1  0.05486889  0.26995825  0.63148114  1  1.281133  0  0.664698  0.81322  0  2.4131  0
Zn  Zn4  1  0.05486953  0.63148003  0.26995749  1  1.281094  0  0.664696  0.813203  0  2.413044  0
Zn  Zn5  1  0.45633047  0.86845383  0.23004296  1  1.276036  0  0.663903  0.810858  0  2.415021  0
Zn  Zn6  1  0.54367125  0.76995758  0.13154385  1  1.277906  0  0.663922  0.810878  0  2.414948  0
Zn  Zn7  1  0.94513087  0.73004125  0.36851821  1  1.279916  0  0.664651  0.813144  0  2.413283  0
H  H8  1  0.46399134  0.98713086  0.98712825  1  0.077135  0  0.101958  0.107944  0  1.025441  0
H  H9  1  0.93805515  0.51297466  0.51297559  1  0.085774  0  0.103158  0.109199  0  1.024184  0
H  H10  1  0.06194544  0.48702430  0.48702505  1  0.086169  0  0.10316  0.109199  0  1.024185  0
H  H11  1  0.53600786  0.01287138  0.01287239  1  0.077421  0  0.102032  0.108058  0  1.025357  0
H  H12  1  0.10361991  0.16080169  0.99759241  1  0.047163  0  0.097209  0.096531  0  1.003416  0
H  H13  1  0.76204123  0.33903697  0.50232872  1  0.04344  0  0.097426  0.096425  0  1.005291  0
H  H14  1  0.23795733  0.49767398  0.66096001  1  0.043398  0  0.097416  0.096425  0  1.005199  0
H  H15  1  0.89637996  0.00240730  0.83919956  1  0.047159  0  0.097218  0.09653  0  1.003395  0
H  H16  1  0.89637877  0.83919891  0.00240799  1  0.04716  0  0.097194  0.096509  0  1.00344  0
H  H17  1  0.23795839  0.66096145  0.49767248  1  0.043425  0  0.097395  0.096385  0  1.005307  0
H  H18  1  0.76204005  0.50232826  0.33903990  1  0.043468  0  0.097434  0.096438  0  1.00519  0
H  H19  1  0.10362017  0.99759276  0.16080140  1  0.047163  0  0.097225  0.096548  0  1.003379  0
H  H20  1  0.26080660  0.16101213  0.72994816  1  0.059923  0  0.101806  0.103043  0  1.010176  0
H  H21  1  0.65180177  0.33904693  0.76993235  1  0.058553  0  0.102333  0.103787  0  1.010273  0
H  H22  1  0.34819839  0.23006749  0.66095304  1  0.058395  0  0.102312  0.103762  0  1.010221  0
H  H23  1  0.73919357  0.27005263  0.83898680  1  0.059871  0  0.101803  0.103038  0  1.010133  0
H  H24  1  0.73919339  0.83898683  0.27005175  1  0.059888  0  0.101809  0.103055  0  1.010187  0
H  H25  1  0.34819761  0.66095202  0.23006733  1  0.058356  0  0.102323  0.103798  0  1.010235  0
H  H26  1  0.65180150  0.76993312  0.33904880  1  0.058358  0  0.102315  0.103781  0  1.010256  0
H  H27  1  0.26080609  0.72994852  0.16101399  1  0.059895  0  0.101794  0.103028  0  1.010184  0
H  H28  1  0.02718685  0.23937414  0.91135341  1  0.070891  0  0.098326  0.098085  0  1.014791  0
H  H29  1  0.67790416  0.26051318  0.58868099  1  0.079161  0  0.096732  0.096015  0  1.014414  0
H  H30  1  0.32209421  0.41131895  0.73948419  1  0.079192  0  0.096738  0.095996  0  1.014505  0
H  H31  1  0.97281348  0.08864638  0.76062550  1  0.070886  0  0.098333  0.098085  0  1.014774  0
H  H32  1  0.97281351  0.76062536  0.08864618  1  0.070881  0  0.098327  0.098095  0  1.014785  0
H  H33  1  0.32209546  0.73948522  0.41131828  1  0.079172  0  0.09676  0.096043  0  1.014439  0
H  H34  1  0.67790377  0.58868328  0.26051548  1  0.07911  0  0.096747  0.096006  0  1.014415  0
H  H35  1  0.02718665  0.91135367  0.23937497  1  0.070889  0  0.098337  0.098086  0  1.01479  0
H  H36  1  0.33931844  0.08526751  0.81500978  1  0.05883  0  0.100741  0.106656  0  1.007071  0
H  H37  1  0.73973748  0.41468812  0.68480691  1  0.071929  0  0.10178  0.108081  0  1.006841  0
H  H38  1  0.26026238  0.31519336  0.58531074  1  0.071885  0  0.101818  0.108125  0  1.006816  0
H  H39  1  0.66068236  0.18499114  0.91473183  1  0.058835  0  0.100756  0.106701  0  1.007051  0
H  H40  1  0.66068155  0.91473145  0.18499110  1  0.05888  0  0.100742  0.106677  0  1.007094  0
H  H41  1  0.26026130  0.58531084  0.31519397  1  0.071615  0  0.101839  0.108164  0  1.006858  0
H  H42  1  0.73973774  0.68480670  0.41469070  1  0.071845  0  0.101807  0.108125  0  1.006863  0
H  H43  1  0.33931776  0.81500891  0.08526865  1  0.058835  0  0.100752  0.1067  0  1.007088  0
H  H44  1  0.16608873  0.02413287  0.02413050  1  0.079756  0  0.100711  0.102053  0  1.017809  0
H  H45  1  0.71459337  0.47560774  0.47560887  1  0.042734  0  0.09947  0.101657  0  1.016724  0
H  H46  1  0.28540601  0.52439121  0.52439128  1  0.042771  0  0.099493  0.101694  0  1.016726  0
H  H47  1  0.83391177  0.97586772  0.97586965  1  0.079735  0  0.100737  0.102132  0  1.017756  0
H  H48  1  0.90817203  0.36749863  0.88440647  1  0.157653  0  0.130322  0.108708  0  0.989483  0
H  H49  1  0.66002639  0.13255064  0.61571027  1  0.147182  0  0.12999  0.10746  0  0.989731  0
H  H50  1  0.33997404  0.38428910  0.86744721  1  0.147112  0  0.12999  0.107438  0  0.989792  0
H  H51  1  0.09182898  0.11559292  0.63250177  1  0.157646  0  0.130321  0.108738  0  0.9895  0
H  H52  1  0.09182870  0.63250141  0.11559329  1  0.157664  0  0.130319  0.108668  0  0.989502  0
H  H53  1  0.33997383  0.86744777  0.38429021  1  0.147136  0  0.129991  0.107475  0  0.98975  0
H  H54  1  0.66002693  0.61571038  0.13255069  1  0.14716  0  0.130002  0.107481  0  0.989745  0
H  H55  1  0.90817268  0.88440495  0.36749879  1  0.157716  0  0.130347  0.10874  0  0.989498  0
H  H56  1  0.72711509  0.61563771  0.81266252  1  0.060242  0  0.111145  0.114458  0  1.00514  0
H  H57  1  0.65518645  0.88446461  0.68733469  1  0.05377  0  0.110797  0.113684  0  1.00594  0
H  H58  1  0.34481432  0.31266711  0.11553252  1  0.053885  0  0.110801  0.113668  0  1.005897  0
H  H59  1  0.27288502  0.18733696  0.38436215  1  0.060186  0  0.111134  0.114439  0  1.00517  0
H  H60  1  0.27288673  0.38436122  0.18733377  1  0.060234  0  0.111168  0.114471  0  1.005111  0
H  H61  1  0.34481414  0.11553436  0.31266643  1  0.05381  0  0.110813  0.113707  0  1.005877  0
H  H62  1  0.65518581  0.68733292  0.88446554  1  0.053841  0  0.11077  0.11359  0  1.005946  0
H  H63  1  0.72711497  0.81266200  0.61563824  1  0.060182  0  0.111139  0.114459  0  1.00516  0
H  H64  1  0.81825950  0.45164551  0.97784777  1  0.095733  0  0.113837  0.116363  0  1.002033  0
H  H65  1  0.74772269  0.04840959  0.52224759  1  0.073252  0  0.114303  0.117151  0  1.00327  0
H  H66  1  0.25227738  0.47775415  0.95158849  1  0.073218  0  0.114326  0.117162  0  1.003135  0
H  H67  1  0.18174169  0.02215081  0.54835488  1  0.095464  0  0.113847  0.116352  0  1.001999  0
H  H68  1  0.18173993  0.54835617  0.02215150  1  0.09544  0  0.113869  0.11642  0  1.001939  0
H  H69  1  0.25227692  0.95158882  0.47775265  1  0.07323  0  0.114302  0.117156  0  1.00322  0
H  H70  1  0.74772326  0.52224753  0.04841030  1  0.073238  0  0.11429  0.117142  0  1.003298  0
H  H71  1  0.81826081  0.97784651  0.45164551  1  0.095767  0  0.113835  0.116362  0  1.002049  0
H  H72  1  0.82000989  0.52277903  0.72762983  1  0.158318  0  0.129674  0.109875  0  0.979461  0
H  H73  1  0.57027823  0.97729100  0.77242222  1  0.145011  0  0.129849  0.109964  0  0.979432  0
H  H74  1  0.42972302  0.22757770  0.02270679  1  0.145049  0  0.12984  0.10998  0  0.979385  0
H  H75  1  0.17999187  0.27236861  0.47721989  1  0.158332  0  0.129688  0.109865  0  0.979443  0
H  H76  1  0.17999421  0.47721881  0.27236686  1  0.158348  0  0.129708  0.109881  0  0.97945  0
H  H77  1  0.42972199  0.02270742  0.22757825  1  0.145032  0  0.129838  0.109966  0  0.979442  0
H  H78  1  0.57027818  0.77242125  0.97729216  1  0.145048  0  0.129855  0.109976  0  0.979421  0
H  H79  1  0.82000859  0.72762925  0.52278019  1  0.158273  0  0.129673  0.109836  0  0.979443  0
C  C80  1  0.40408985  0.10180888  0.89900724  1  1.584897  0  0.214504  0.599162  0  4.188485  0
C  C81  1  0.90485738  0.39819654  0.60097123  1  1.587161  0  0.217221  0.601409  0  4.185254  0
C  C82  1  0.09514374  0.39902676  0.60180198  1  1.586947  0  0.217232  0.601339  0  4.185108  0
C  C83  1  0.59590256  0.10099850  0.89820164  1  1.585285  0  0.214561  0.59932  0  4.188094  0
C  C84  1  0.59590580  0.89819885  0.10099693  1  1.585281  0  0.214535  0.59932  0  4.188149  0
C  C85  1  0.09514424  0.60179858  0.39902732  1  1.587014  0  0.217211  0.601351  0  4.185226  0
C  C86  1  0.90486200  0.60096722  0.39819045  1  1.586282  0  0.217217  0.601394  0  4.185376  0
C  C87  1  0.40409491  0.89900211  0.10180021  1  1.585454  0  0.214526  0.599181  0  4.188329  0
C  C88  1  0.35545469  0.05348234  0.95289619  1  -0.048554  0  -0.013175  -0.059071  0  3.943126  0
C  C89  1  0.86178505  0.44650581  0.54707532  1  -0.080532  0  -0.010971  -0.055144  0  3.943917  0
C  C90  1  0.13821426  0.45292487  0.55349426  1  -0.080457  0  -0.011032  -0.055165  0  3.943962  0
C  C91  1  0.64454310  0.04710787  0.94652285  1  -0.048646  0  -0.013222  -0.059245  0  3.943288  0
C  C92  1  0.64454333  0.94652265  0.04710694  1  -0.048706  0  -0.013263  -0.059332  0  3.943251  0
C  C93  1  0.13821303  0.55349480  0.45292676  1  -0.080128  0  -0.010985  -0.055245  0  3.94409  0
C  C94  1  0.86178787  0.54707190  0.44650501  1  -0.080124  0  -0.01097  -0.055187  0  3.943918  0
C  C95  1  0.35545694  0.95289381  0.05347666  1  -0.048348  0  -0.01322  -0.059234  0  3.943169  0
C  C96  1  0.39724833  0.99680222  0.99680047  1  0.034045  0  -0.086126  -0.125014  0  3.966865  0
C  C97  1  0.89072634  0.50324387  0.50324388  1  0.09321  0  -0.089849  -0.12986  0  3.971372  0
C  C98  1  0.10927402  0.49675563  0.49675619  1  0.093212  0  -0.089824  -0.129812  0  3.97134  0
C  C99  1  0.60274895  0.00320167  0.00320137  1  0.033956  0  -0.086142  -0.125025  0  3.966766  0
C  C100  1  0.13834858  0.16101644  0.93880068  1  -0.018852  0  -0.094793  -0.139379  0  3.995639  0
C  C101  1  0.73819848  0.33887468  0.56110533  1  -0.025728  0  -0.095157  -0.140255  0  3.999832  0
C  C102  1  0.26179892  0.43889580  0.66112210  1  -0.025787  0  -0.095128  -0.140213  0  3.999827  0
C  C103  1  0.86165097  0.06120027  0.83898533  1  -0.01879  0  -0.0948  -0.139392  0  3.995588  0
C  C104  1  0.86165071  0.83898416  0.06119996  1  -0.018807  0  -0.094793  -0.139394  0  3.995646  0
C  C105  1  0.26179969  0.66112428  0.43889531  1  -0.025796  0  -0.095103  -0.140159  0  3.999819  0
C  C106  1  0.73819907  0.56110643  0.33887709  1  -0.026033  0  -0.095171  -0.140301  0  3.999775  0
C  C107  1  0.13834930  0.93880087  0.16101474  1  -0.018812  0  -0.094833  -0.139434  0  3.995542  0
C  C108  1  0.09108817  0.24860854  0.76427765  1  1.568332  0  0.216229  0.598475  0  4.159543  0
C  C109  1  0.60391121  0.25146787  0.73569291  1  1.580133  0  0.215939  0.598282  0  4.156693  0
C  C110  1  0.39608122  0.26432310  0.74853696  1  1.57966  0  0.215811  0.598232  0  4.156431  0
C  C111  1  0.90891420  0.23572179  0.75139055  1  1.568359  0  0.216264  0.598609  0  4.159391  0
C  C112  1  0.90891447  0.75138986  0.23572138  1  1.568208  0  0.216238  0.598468  0  4.159663  0
C  C113  1  0.39608616  0.74853440  0.26431231  1  1.579559  0  0.216012  0.598454  0  4.156345  0
C  C114  1  0.60391467  0.73568408  0.25146633  1  1.579424  0  0.215841  0.59827  0  4.156532  0
C  C115  1  0.09108905  0.76427662  0.24860920  1  1.568655  0  0.216108  0.598318  0  4.159575  0
C  C116  1  0.76361482  0.54271886  0.90424802  1  0.037551  0  0.016377  0.104538  0  3.97351  0
C  C117  1  0.71045280  0.95735418  0.59581476  1  -0.047746  0  0.015816  0.102068  0  3.976507  0
C  C118  1  0.28954872  0.40418717  0.04264153  1  -0.047169  0  0.015794  0.101974  0  3.976535  0
C  C119  1  0.23638633  0.09575125  0.45728094  1  0.037568  0  0.016417  0.104623  0  3.973451  0
C  C120  1  0.23638698  0.45728009  0.09575068  1  0.037566  0  0.016324  0.104586  0  3.973345  0
C  C121  1  0.28954910  0.04264314  0.40418588  1  -0.047582  0  0.015828  0.102038  0  3.976517  0
C  C122  1  0.71045216  0.59581395  0.95735589  1  -0.047593  0  0.015768  0.101996  0  3.976596  0
C  C123  1  0.76361450  0.90424716  0.54271930  1  0.037385  0  0.016383  0.104536  0  3.97353  0
C  C124  1  0.13909774  0.20474200  0.81520111  1  -0.063927  0  -0.021318  -0.039433  0  3.970833  0
C  C125  1  0.65904424  0.29526237  0.68473758  1  -0.071209  0  -0.019078  -0.035553  0  3.965917  0
C  C126  1  0.34095205  0.31526240  0.70473738  1  -0.071557  0  -0.019031  -0.035542  0  3.966057  0
C  C127  1  0.86090347  0.18479850  0.79525761  1  -0.063862  0  -0.021374  -0.03967  0  3.97091  0
C  C128  1  0.86090276  0.79525859  0.18479807  1  -0.063987  0  -0.021284  -0.039379  0  3.970797  0
C  C129  1  0.34095240  0.70473876  0.31526104  1  -0.071342  0  -0.019075  -0.035539  0  3.966025  0
C  C130  1  0.65904593  0.68473984  0.29526325  1  -0.070973  0  -0.019058  -0.035565  0  3.96603  0
C  C131  1  0.13909619  0.81520264  0.20474222  1  -0.063915  0  -0.021316  -0.039403  0  3.97079  0
C  C132  1  0.22723558  0.16138474  0.78863316  1  0.024036  0  -0.08158  -0.07986  0  3.983864  0
C  C133  1  0.67731270  0.33862079  0.71126183  1  -0.047834  0  -0.084132  -0.084446  0  3.981835  0
C  C134  1  0.32268455  0.28874042  0.66138045  1  -0.047306  0  -0.084036  -0.08432  0  3.981973  0
C  C135  1  0.77276608  0.21136709  0.83861443  1  0.024013  0  -0.081575  -0.079781  0  3.983708  0
C  C136  1  0.77276478  0.83861477  0.21136691  1  0.024107  0  -0.081588  -0.079881  0  3.983768  0
C  C137  1  0.32268393  0.66138036  0.28873921  1  -0.046979  0  -0.084098  -0.084488  0  3.982011  0
C  C138  1  0.67731450  0.71126074  0.33862156  1  -0.047095  0  -0.08414  -0.084523  0  3.982039  0
C  C139  1  0.22723405  0.78863296  0.16138556  1  0.02394  0  -0.08158  -0.079842  0  3.983676  0
C  C140  1  0.09553257  0.20505806  0.89080736  1  0.001685  0  -0.090112  -0.092861  0  4.004192  0
C  C141  1  0.69140369  0.29487481  0.60915620  1  -0.014982  0  -0.088368  -0.090773  0  4.002348  0
C  C142  1  0.30859348  0.39084705  0.70512431  1  -0.014928  0  -0.088456  -0.090863  0  4.00221  0
C  C143  1  0.90446763  0.10919210  0.79494233  1  0.001676  0  -0.090109  -0.092776  0  4.004165  0
C  C144  1  0.90446755  0.79494199  0.10919264  1  0.001804  0  -0.090097  -0.092849  0  4.004297  0
C  C145  1  0.30859317  0.70512580  0.39084540  1  -0.014908  0  -0.088425  -0.090865  0  4.002336  0
C  C146  1  0.69140511  0.60915519  0.29487657  1  -0.014963  0  -0.088407  -0.090768  0  4.002167  0
C  C147  1  0.09553250  0.89080794  0.20505766  1  0.001815  0  -0.090059  -0.092776  0  4.004203  0
C  C148  1  0.22651574  0.11679936  0.91244894  1  -0.02719  0  -0.002904  0.08454  0  3.991284  0
C  C149  1  0.75586105  0.38309291  0.58741387  1  -0.011582  0  -0.002743  0.086086  0  3.993472  0
C  C150  1  0.24413847  0.41258736  0.61690580  1  -0.011581  0  -0.002735  0.086141  0  3.993549  0
C  C151  1  0.77348472  0.08755151  0.88320254  1  -0.027233  0  -0.002908  0.084564  0  3.991171  0
C  C152  1  0.77348369  0.88320233  0.08755178  1  -0.027267  0  -0.002908  0.084573  0  3.991221  0
C  C153  1  0.24413810  0.61690660  0.41258717  1  -0.011487  0  -0.002723  0.086122  0  3.993391  0
C  C154  1  0.75586081  0.58741324  0.38309532  1  -0.011552  0  -0.002723  0.086193  0  3.993403  0
C  C155  1  0.22651602  0.91244854  0.11679721  1  -0.027313  0  -0.002918  0.084532  0  3.991216  0
C  C156  1  0.27034651  0.06466557  0.96305641  1  -0.032833  0  -0.003199  0.050806  0  3.990003  0
C  C157  1  0.79818045  0.43519780  0.53678839  1  -0.006333  0  -0.005868  0.045666  0  3.992734  0
C  C158  1  0.20181825  0.46321211  0.56480108  1  -0.006472  0  -0.005848  0.045648  0  3.992741  0
C  C159  1  0.72965107  0.03694590  0.93533758  1  -0.032768  0  -0.003098  0.050961  0  3.989989  0
C  C160  1  0.72965184  0.93533722  0.03694535  1  -0.032594  0  -0.003139  0.05091  0  3.989922  0
C  C161  1  0.20181810  0.56480170  0.46321241  1  -0.006668  0  -0.005928  0.045673  0  3.99276  0
C  C162  1  0.79818114  0.53678684  0.43519907  1  -0.006785  0  -0.005928  0.045592  0  3.992717  0
C  C163  1  0.27034822  0.96305470  0.06466257  1  -0.032991  0  -0.003104  0.050956  0  3.989891  0
C  C164  1  0.27075018  0.11888632  0.83648942  1  -0.043731  0  -0.092056  -0.128199  0  3.957862  0
C  C165  1  0.72623955  0.38105516  0.66335803  1  -0.002106  0  -0.092034  -0.128079  0  3.956113  0
C  C166  1  0.27376005  0.33664131  0.61894357  1  -0.002113  0  -0.092071  -0.128152  0  3.956016  0
C  C167  1  0.72925035  0.16351179  0.88111440  1  -0.043675  0  -0.092087  -0.128293  0  3.957719  0
C  C168  1  0.72924873  0.88111373  0.16351106  1  -0.043853  0  -0.092099  -0.128285  0  3.957881  0
C  C169  1  0.27375923  0.61894379  0.33664140  1  -0.002405  0  -0.092079  -0.128122  0  3.95608  0
C  C170  1  0.72623924  0.66335930  0.38105803  1  -0.002536  0  -0.092006  -0.128056  0  3.955969  0
C  C171  1  0.27074992  0.83648935  0.11888519  1  -0.043677  0  -0.092099  -0.128322  0  3.957804  0
C  C172  1  0.22980757  0.01892227  0.01892171  1  -0.017125  0  -0.091112  -0.181866  0  3.959452  0
C  C173  1  0.76784651  0.48086130  0.48086282  1  -0.025938  0  -0.087437  -0.17735  0  3.953238  0
C  C174  1  0.23215264  0.51913821  0.51913823  1  -0.025934  0  -0.087466  -0.177434  0  3.953307  0
C  C175  1  0.77019269  0.98107888  0.98107836  1  -0.017108  0  -0.091162  -0.182002  0  3.959557  0
C  C176  1  0.86601528  0.42312493  0.87198510  1  0.491531  0  0.064763  0.106496  0  3.909779  0
C  C177  1  0.66101234  0.07694005  0.62808967  1  0.476693  0  0.064449  0.108824  0  3.909778  0
C  C178  1  0.33898842  0.37191189  0.92305700  1  0.476641  0  0.064529  0.108971  0  3.909722  0
C  C179  1  0.13398596  0.12801409  0.57687457  1  0.491595  0  0.064748  0.106405  0  3.909899  0
C  C180  1  0.13398532  0.57687403  0.12801505  1  0.491595  0  0.064843  0.106694  0  3.909991  0
C  C181  1  0.33898788  0.92305836  0.37191032  1  0.476723  0  0.064506  0.108871  0  3.909764  0
C  C182  1  0.66101344  0.62808978  0.07694082  1  0.476663  0  0.06451  0.10892  0  3.909716  0
C  C183  1  0.86601487  0.87198432  0.42312518  1  0.491429  0  0.064719  0.106428  0  3.909809  0
C  C184  1  0.76539222  0.56146432  0.83223090  1  -0.00181  0  -0.077297  -0.174128  0  3.942202  0
C  C185  1  0.65887780  0.93864287  0.66778286  1  -0.007619  0  -0.07608  -0.1713  0  3.944739  0
C  C186  1  0.34112459  0.33221825  0.06135484  1  -0.008214  0  -0.076085  -0.171218  0  3.944489  0
C  C187  1  0.23460917  0.16776846  0.43853480  1  -0.001808  0  -0.077296  -0.174157  0  3.942307  0
C  C188  1  0.23460913  0.43853569  0.16776523  1  -0.001848  0  -0.077247  -0.174135  0  3.94228  0
C  C189  1  0.34112363  0.06135555  0.33221858  1  -0.007749  0  -0.076058  -0.171235  0  3.944617  0
C  C190  1  0.65887759  0.66778124  0.93864355  1  -0.007763  0  -0.076043  -0.17115  0  3.944581  0
C  C191  1  0.76539226  0.83222994  0.56146471  1  -0.001593  0  -0.077314  -0.174176  0  3.942207  0
C  C192  1  0.81562856  0.47111912  0.92333448  1  -0.061261  0  -0.075094  -0.167702  0  3.939317  0
C  C193  1  0.70998999  0.02896432  0.57672611  1  -0.022313  0  -0.075436  -0.168606  0  3.941048  0
C  C194  1  0.29001109  0.42327531  0.97103441  1  -0.022289  0  -0.07553  -0.168716  0  3.941104  0
C  C195  1  0.18437262  0.07666422  0.52888122  1  -0.061026  0  -0.075123  -0.167668  0  3.939232  0
C  C196  1  0.18437149  0.52888254  0.07666262  1  -0.061034  0  -0.075119  -0.167819  0  3.939018  0
C  C197  1  0.29001060  0.97103465  0.42327501  1  -0.022319  0  -0.075515  -0.168689  0  3.941078  0
C  C198  1  0.70999086  0.57672472  0.02896389  1  -0.02227  0  -0.075447  -0.168656  0  3.941115  0
C  C199  1  0.81562844  0.92333364  0.47111862  1  -0.06123  0  -0.075077  -0.167687  0  3.939386  0
C  C200  1  0.81712148  0.51041320  0.78385374  1  0.476439  0  0.065241  0.10884  0  3.90873  0
C  C201  1  0.61120940  0.98965983  0.71618985  1  0.505786  0  0.065068  0.108425  0  3.906829  0
C  C202  1  0.38879139  0.28381228  0.01033704  1  0.505909  0  0.065163  0.10843  0  3.906909  0
C  C203  1  0.18287955  0.21614514  0.48958682  1  0.476444  0  0.065281  0.108914  0  3.908761  0
C  C204  1  0.18288032  0.48958575  0.21614497  1  0.476404  0  0.065239  0.108887  0  3.908645  0
C  C205  1  0.38879082  0.01033858  0.28381063  1  0.5058  0  0.065124  0.108451  0  3.906837  0
C  C206  1  0.61120949  0.71618884  0.98966086  1  0.505801  0  0.065138  0.108486  0  3.906742  0
C  C207  1  0.81712067  0.78385327  0.51041366  1  0.476577  0  0.065264  0.108902  0  3.908729  0
N  N208  1  0.86686370  0.44241128  0.80333372  1  -1.242496  0  -0.31288  -0.184378  0  3.502614  0
N  N209  1  0.61249602  0.05765363  0.69671742  1  -1.229095  0  -0.312031  -0.184402  0  3.500968  0
N  N210  1  0.38750339  0.30328366  0.94234688  1  -1.228942  0  -0.312072  -0.184415  0  3.501126  0
N  N211  1  0.13313786  0.19666465  0.55758859  1  -1.242517  0  -0.312928  -0.18444  0  3.5027  0
N  N212  1  0.13313741  0.55758929  0.19666329  1  -1.242449  0  -0.312968  -0.184539  0  3.502847  0
N  N213  1  0.38750313  0.94234587  0.30328314  1  -1.229135  0  -0.312103  -0.184502  0  3.501081  0
N  N214  1  0.61249795  0.69671639  0.05765312  1  -1.228914  0  -0.312103  -0.18453  0  3.501118  0
N  N215  1  0.86686283  0.80333267  0.44241156  1  -1.242618  0  -0.312893  -0.184355  0  3.502594  0
O  O216  1  0.47367452  0.07105162  0.84834516  1  -1.175307  0  -0.319836  -0.558706  0  2.329418  0
O  O217  1  0.89283641  0.42894194  0.65172724  1  -1.168142  0  -0.321739  -0.560684  0  2.326424  0
O  O218  1  0.10716600  0.34827097  0.57105641  1  -1.168071  0  -0.321712  -0.560612  0  2.326183  0
O  O219  1  0.52631976  0.15165381  0.92895744  1  -1.175616  0  -0.31986  -0.558713  0  2.329504  0
O  O220  1  0.52632137  0.92895556  0.15165716  1  -1.175552  0  -0.319826  -0.558716  0  2.329324  0
O  O221  1  0.10716380  0.57105649  0.34827566  1  -1.168209  0  -0.321709  -0.560556  0  2.326549  0
O  O222  1  0.89283568  0.65172685  0.42893787  1  -1.167979  0  -0.321733  -0.560637  0  2.326303  0
O  O223  1  0.47368069  0.84834404  0.07104118  1  -1.175394  0  -0.319837  -0.558668  0  2.329331  0
O  O224  1  0.37567150  0.16714420  0.90990759  1  -1.156205  0  -0.312936  -0.537967  0  2.263404  0
O  O225  1  0.95286519  0.33292511  0.58996988  1  -1.16227  0  -0.313873  -0.539267  0  2.264197  0
O  O226  1  0.04713585  0.41002814  0.66707403  1  -1.162203  0  -0.313893  -0.539252  0  2.26429  0
O  O227  1  0.62432349  0.09009753  0.83286023  1  -1.156276  0  -0.313007  -0.5381  0  2.262944  0
O  O228  1  0.62432532  0.83286080  0.09009651  1  -1.156286  0  -0.313013  -0.538066  0  2.263132  0
O  O229  1  0.04713121  0.66707658  0.41003060  1  -1.162059  0  -0.313856  -0.539279  0  2.263904  0
O  O230  1  0.95286875  0.58996425  0.33292468  1  -1.161518  0  -0.313831  -0.539222  0  2.264549  0
O  O231  1  0.37567516  0.90990032  0.16713816  1  -1.156604  0  -0.31297  -0.537984  0  2.263235  0
O  O232  1  0.01559909  0.29580244  0.79149162  1  -1.178381  0  -0.321564  -0.557756  0  2.353177  0
O  O233  1  0.60282208  0.20426130  0.70848330  1  -1.168695  0  -0.321176  -0.557239  0  2.350892  0
O  O234  1  0.39717537  0.29152184  0.79573391  1  -1.168573  0  -0.32114  -0.5572  0  2.35149  0
O  O235  1  0.98440224  0.20850790  0.70419651  1  -1.178463  0  -0.321575  -0.557801  0  2.353143  0
O  O236  1  0.98440081  0.70419815  0.20850781  1  -1.178444  0  -0.321555  -0.55774  0  2.353354  0
O  O237  1  0.39717693  0.79573712  0.29151718  1  -1.16835  0  -0.32117  -0.557252  0  2.351121  0
O  O238  1  0.60282448  0.70848311  0.20426415  1  -1.168345  0  -0.321089  -0.557145  0  2.351323  0
O  O239  1  0.01559751  0.79149162  0.29580622  1  -1.17839  0  -0.321479  -0.557661  0  2.353052  0
O  O240  1  0.12686261  0.23576237  0.69855083  1  -1.171867  0  -0.318806  -0.550755  0  2.2927  0
O  O241  1  0.56109622  0.26435254  0.80138771  1  -1.169362  0  -0.31964  -0.55136  0  2.293797  0
O  O242  1  0.43890890  0.19861145  0.73564552  1  -1.168964  0  -0.319674  -0.551455  0  2.292781  0
O  O243  1  0.87313870  0.30144846  0.76423814  1  -1.171883  0  -0.318773  -0.550748  0  2.292698  0
O  O244  1  0.87313836  0.76423714  0.30144996  1  -1.171675  0  -0.318821  -0.550766  0  2.292689  0
O  O245  1  0.43890824  0.73564586  0.19861059  1  -1.169097  0  -0.319743  -0.551542  0  2.293268  0
O  O246  1  0.56109053  0.80139025  0.26435665  1  -1.168964  0  -0.319669  -0.551459  0  2.293085  0
O  O247  1  0.12685989  0.69855378  0.23576225  1  -1.172143  0  -0.318756  -0.550705  0  2.292843  0
