# generated using pymatgen
data_Cu2H15C27I2N3
_symmetry_space_group_name_H-M   'P 1'
_cell_length_a   10.01079025
_cell_length_b   10.63478180
_cell_length_c   16.34567813
_cell_angle_alpha   100.30998058
_cell_angle_beta   97.77238292
_cell_angle_gamma   117.08890880
_symmetry_Int_Tables_number   1
_chemical_formula_structural   Cu2H15C27I2N3
_chemical_formula_sum   'Cu4 H30 C54 I4 N6'
_cell_volume   1476.88924328
_cell_formula_units_Z   2
loop_
 _symmetry_equiv_pos_site_id
 _symmetry_equiv_pos_as_xyz
  1  'x, y, z'
loop_
 _atom_site_type_symbol
 _atom_site_label
 _atom_site_symmetry_multiplicity
 _atom_site_fract_x
 _atom_site_fract_y
 _atom_site_fract_z
 _atom_site_occupancy
 _atom_site_hle17_bader_spin_density
 _atom_site_hle17_ddec_charge
 _atom_site_hle17_ddec_spin_density
 _atom_site_hle17_ddec_sum_bond_order
 _atom_site_hle17_magmom
 _atom_site_hse06_10hf_bader_spin_density
 _atom_site_hse06_10hf_ddec_charge
 _atom_site_hse06_10hf_ddec_spin_density
 _atom_site_hse06_10hf_ddec_sum_bond_order
 _atom_site_hse06_10hf_magmom
 _atom_site_hse06_bader_spin_density
 _atom_site_hse06_ddec_charge
 _atom_site_hse06_ddec_spin_density
 _atom_site_hse06_ddec_sum_bond_order
 _atom_site_hse06_magmom
 _atom_site_pbe_bader_spin_density
 _atom_site_pbe_cm5_charge
 _atom_site_pbe_ddec_charge
 _atom_site_pbe_ddec_spin_density
 _atom_site_pbe_ddec_sum_bond_order
 _atom_site_pbe_magmom
Cu  Cu0  1  0.94841619  0.58884860  0.02537631  1  0  0.289017  0  2.164699  0  0  0.207898  0  2.656045  0  0  0.218039  0  2.602705  0  0  0.242293  0.205972  0  2.687678  0
Cu  Cu1  1  0.05157769  0.41115316  0.97462105  1  0  0.289067  0  2.16459  0  0  0.207953  0  2.655929  0  0  0.218084  0  2.602592  0  0  0.242305  0.206045  0  2.687561  0
Cu  Cu2  1  0.80667341  0.93978289  0.01672367  1  0  0.355302  0  1.973345  0  0  0.247858  0  2.451532  0  0  0.248238  0  2.409422  0  0  0.376938  0.252986  0  2.475988  0
Cu  Cu3  1  0.19333041  0.06021671  0.98327678  1  0  0.355303  0  1.973387  0  0  0.247888  0  2.451576  0  0  0.248254  0  2.409467  0  0  0.376965  0.253008  0  2.47603  0
H  H4  1  0.00214447  0.57900068  0.20711414  1  0  0.075014  0  0.962476  0  0  0.081413  0  1.029905  0  0  0.085296  0  1.026034  0  0  0.098669  0.078452  0  1.032795  0
H  H5  1  0.99785156  0.42100322  0.79288179  1  0  0.07498  0  0.962483  0  0  0.081455  0  1.029854  0  0  0.085339  0  1.025982  0  0  0.098686  0.078494  0  1.032741  0
H  H6  1  0.84198196  0.51015927  0.31365673  1  0  0.109231  0  0.93511  0  0  0.122558  0  0.986678  0  0  0.12567  0  0.986146  0  0  0.109939  0.120586  0  0.986908  0
H  H7  1  0.15801293  0.48984240  0.68633765  1  0  0.10917  0  0.93524  0  0  0.122527  0  0.986777  0  0  0.12564  0  0.986242  0  0  0.109903  0.120552  0  0.98701  0
H  H8  1  0.45928945  0.46518397  0.12868636  1  0  0.114173  0  0.947125  0  0  0.12187  0  1.012027  0  0  0.125968  0  1.010311  0  0  0.102947  0.118536  0  1.013924  0
H  H9  1  0.54071638  0.53481562  0.87131365  1  0  0.11417  0  0.947044  0  0  0.121875  0  1.011947  0  0  0.125982  0  1.010211  0  0  0.102961  0.118542  0  1.013843  0
H  H10  1  0.63745822  0.53892265  0.03106603  1  0  0.074883  0  0.938744  0  0  0.083628  0  1.005997  0  0  0.087015  0  1.002308  0  0  0.107927  0.080936  0  1.008885  0
H  H11  1  0.36254056  0.46107700  0.96893520  1  0  0.074872  0  0.938749  0  0  0.083573  0  1.00604  0  0  0.086959  0  1.002353  0  0  0.107915  0.080882  0  1.008924  0
H  H12  1  0.43584760  0.32439071  0.47972906  1  0  0.111925  0  0.933069  0  0  0.123872  0  0.987796  0  0  0.127579  0  0.985714  0  0  0.109651  0.121085  0  0.98962  0
H  H13  1  0.56415393  0.67560444  0.52026827  1  0  0.111895  0  0.933125  0  0  0.12384  0  0.987849  0  0  0.127546  0  0.98577  0  0  0.109632  0.121055  0  0.989671  0
H  H14  1  0.44290172  0.20852357  0.73866829  1  0  0.113461  0  0.937805  0  0  0.124781  0  0.99293  0  0  0.12852  0  0.991644  0  0  0.106462  0.122064  0  0.993973  0
H  H15  1  0.55710082  0.79147163  0.26133097  1  0  0.113449  0  0.937879  0  0  0.124784  0  0.992971  0  0  0.128523  0  0.991684  0  0  0.106485  0.122074  0  0.994009  0
H  H16  1  0.43327018  0.15778562  0.87865258  1  0  0.066555  0  0.99373  0  0  0.075232  0  1.061659  0  0  0.078003  0  1.059125  0  0  0.09815  0.073052  0  1.063606  0
H  H17  1  0.56672834  0.84220957  0.12134571  1  0  0.066565  0  0.993699  0  0  0.075249  0  1.061616  0  0  0.078002  0  1.059128  0  0  0.098153  0.073067  0  1.063569  0
H  H18  1  0.96872497  0.03815536  0.84183344  1  0  0.067482  0  0.972346  0  0  0.074426  0  1.043859  0  0  0.07815  0  1.039236  0  0  0.103049  0.071408  0  1.047493  0
H  H19  1  0.03127824  0.96185079  0.15816581  1  0  0.067496  0  0.972441  0  0  0.074479  0  1.043908  0  0  0.078203  0  1.039286  0  0  0.103068  0.071459  0  1.047545  0
H  H20  1  0.95666940  0.08074336  0.69625855  1  0  0.110187  0  0.927593  0  0  0.125282  0  0.976368  0  0  0.128304  0  0.976159  0  0  0.11173  0.123183  0  0.976637  0
H  H21  1  0.04333797  0.91926499  0.30374130  1  0  0.110178  0  0.927577  0  0  0.125246  0  0.97638  0  0  0.128266  0  0.976173  0  0  0.111706  0.123147  0  0.976649  0
H  H22  1  0.94843181  0.17526267  0.45490858  1  0  0.110356  0  0.932066  0  0  0.122308  0  0.986779  0  0  0.126096  0  0.984501  0  0  0.109414  0.119465  0  0.988697  0
H  H23  1  0.05157727  0.82474906  0.54509545  1  0  0.110369  0  0.932076  0  0  0.122326  0  0.986779  0  0  0.126114  0  0.9845  0  0  0.109435  0.119483  0  0.988697  0
H  H24  1  0.16218368  0.33647683  0.25569697  1  0  0.118059  0  0.953581  0  0  0.12444  0  1.019404  0  0  0.128887  0  1.01663  0  0  0.100436  0.120686  0  1.022073  0
H  H25  1  0.83781281  0.66351838  0.74430176  1  0  0.11808  0  0.953521  0  0  0.124467  0  1.019337  0  0  0.128903  0  1.016588  0  0  0.100446  0.120712  0  1.022009  0
H  H26  1  0.76142717  0.23283565  0.09350159  1  0  0.120055  0  0.951872  0  0  0.126606  0  1.019555  0  0  0.131047  0  1.017054  0  0  0.101321  0.12296  0  1.02181  0
H  H27  1  0.23856945  0.76716186  0.90650168  1  0  0.119977  0  0.951878  0  0  0.126595  0  1.019524  0  0  0.131036  0  1.01702  0  0  0.101328  0.122951  0  1.021775  0
H  H28  1  0.52721225  0.18051275  0.99210114  1  0  0.068284  0  0.9872  0  0  0.076154  0  1.056222  0  0  0.07912  0  1.053248  0  0  0.09965  0.073733  0  1.058667  0
H  H29  1  0.47278481  0.81948370  0.00790328  1  0  0.068202  0  0.987231  0  0  0.076066  0  1.056262  0  0  0.079033  0  1.053289  0  0  0.099609  0.073644  0  1.058709  0
H  H30  1  0.24837861  0.00810394  0.15432689  1  0  0.070281  0  0.958603  0  0  0.080225  0  1.023881  0  0  0.083145  0  1.020176  0  0  0.107035  0.077625  0  1.027259  0
H  H31  1  0.75162178  0.99188911  0.84567378  1  0  0.070249  0  0.958673  0  0  0.080198  0  1.023946  0  0  0.083116  0  1.020244  0  0  0.10703  0.077598  0  1.027325  0
H  H32  1  0.47588535  0.06442601  0.26721645  1  0  0.109358  0  0.930378  0  0  0.123536  0  0.980464  0  0  0.126853  0  0.979639  0  0  0.109898  0.121131  0  0.981445  0
H  H33  1  0.52411272  0.93557034  0.73278438  1  0  0.109342  0  0.930417  0  0  0.123558  0  0.980466  0  0  0.126875  0  0.97964  0  0  0.109925  0.121154  0  0.981442  0
C  C34  1  0.88131547  0.55353847  0.19301676  1  0  0.116168  0  3.706528  0  0  0.088112  0  3.955689  0  0  0.094638  0  3.971365  0  0  0.035436  0.08381  0  3.945267  0
C  C35  1  0.11868315  0.44646651  0.80697890  1  0  0.116195  0  3.706599  0  0  0.088048  0  3.955818  0  0  0.09457  0  3.971495  0  0  0.035463  0.083768  0  3.945402  0
C  C36  1  0.79225746  0.51535691  0.25170906  1  0  -0.157507  0  3.708981  0  0  -0.174292  0  3.951425  0  0  -0.181589  0  3.971394  0  0  -0.078399  -0.169265  0  3.937186  0
C  C37  1  0.20774159  0.48464693  0.74828469  1  0  -0.157331  0  3.709053  0  0  -0.174154  0  3.951502  0  0  -0.181451  0  3.971471  0  0  -0.078345  -0.169123  0  3.937255  0
C  C38  1  0.63631691  0.48100687  0.22974291  1  0  0.159276  0  3.884955  0  0  0.169587  0  4.111827  0  0  0.177483  0  4.129769  0  0  0.011746  0.165082  0  4.099276  0
C  C39  1  0.36368603  0.51899500  0.77026015  1  0  0.159081  0  3.885145  0  0  0.169422  0  4.111974  0  0  0.17731  0  4.129946  0  0  0.011664  0.16492  0  4.099421  0
C  C40  1  0.57909156  0.48999534  0.14847899  1  0  -0.150373  0  3.675039  0  0  -0.165112  0  3.916038  0  0  -0.171939  0  3.934351  0  0  -0.077271  -0.160829  0  3.904132  0
C  C41  1  0.42090635  0.51000648  0.85152117  1  0  -0.150305  0  3.675184  0  0  -0.165049  0  3.916128  0  0  -0.171877  0  3.934446  0  0  -0.077228  -0.160766  0  3.904217  0
C  C42  1  0.67714996  0.53041884  0.09431983  1  0  0.120311  0  3.704563  0  0  0.089252  0  3.957273  0  0  0.096394  0  3.973167  0  0  0.035514  0.084412  0  3.947117  0
C  C43  1  0.32284536  0.46958188  0.90567999  1  0  0.120289  0  3.704609  0  0  0.089274  0  3.95729  0  0  0.096416  0  3.973181  0  0  0.035512  0.084452  0  3.947148  0
C  C44  1  0.53703005  0.43721559  0.28484231  1  0  -0.087557  0  3.850206  0  0  -0.089555  0  4.105479  0  0  -0.09248  0  4.133039  0  0  -0.034817  -0.088654  0  4.087364  0
C  C45  1  0.46297071  0.56279173  0.71515930  1  0  -0.087504  0  3.850268  0  0  -0.089515  0  4.10554  0  0  -0.092439  0  4.1331  0  0  -0.034813  -0.088612  0  4.087422  0
C  C46  1  0.44154148  0.39435483  0.32688781  1  0  -0.098272  0  3.851837  0  0  -0.097394  0  4.101677  0  0  -0.099847  0  4.130242  0  0  -0.037857  -0.094959  0  4.082421  0
C  C47  1  0.55845918  0.60564263  0.67311397  1  0  -0.098167  0  3.851975  0  0  -0.09731  0  4.101779  0  0  -0.099773  0  4.130325  0  0  -0.037793  -0.094874  0  4.082524  0
C  C48  1  0.31444684  0.33884137  0.36443676  1  0  0.126394  0  3.929772  0  0  0.142278  0  4.160633  0  0  0.143732  0  4.18181  0  0  0.000189  0.14069  0  4.146854  0
C  C49  1  0.68554922  0.66115493  0.63556205  1  0  0.126271  0  3.929977  0  0  0.142237  0  4.160724  0  0  0.143733  0  4.181836  0  0  0.000123  0.140648  0  4.146951  0
C  C50  1  0.32542053  0.30534949  0.44372805  1  0  -0.145595  0  3.629685  0  0  -0.173266  0  3.867661  0  0  -0.174277  0  3.883954  0  0  -0.074547  -0.172988  0  3.85743  0
C  C51  1  0.67458030  0.69464242  0.55627071  1  0  -0.145711  0  3.629917  0  0  -0.173379  0  3.867913  0  0  -0.174407  0  3.884197  0  0  -0.074556  -0.173101  0  3.857684  0
C  C52  1  0.19324385  0.24660489  0.47647747  1  0  0.123413  0  3.927219  0  0  0.137304  0  4.163395  0  0  0.138496  0  4.185337  0  0  -0.000971  0.136188  0  4.14897  0
C  C53  1  0.80675795  0.75339475  0.52352403  1  0  0.123612  0  3.926987  0  0  0.137414  0  4.163302  0  0  0.138605  0  4.185245  0  0  -0.000932  0.1363  0  4.148867  0
C  C54  1  0.20009420  0.21002211  0.55551183  1  0  -0.091518  0  3.852748  0  0  -0.09043  0  4.103448  0  0  -0.092659  0  4.132699  0  0  -0.034036  -0.088364  0  4.083647  0
C  C55  1  0.79990875  0.78997965  0.44448693  1  0  -0.091471  0  3.85295  0  0  -0.090348  0  4.103657  0  0  -0.092575  0  4.132906  0  0  -0.033987  -0.088283  0  4.083863  0
C  C56  1  0.19929167  0.17830218  0.62365753  1  0  -0.102258  0  3.861007  0  0  -0.103931  0  4.116612  0  0  -0.107654  0  4.14453  0  0  -0.038315  -0.102188  0  4.098  0
C  C57  1  0.80071083  0.82170082  0.37634683  1  0  -0.102356  0  3.861163  0  0  -0.104019  0  4.116787  0  0  -0.107742  0  4.144703  0  0  -0.038379  -0.102277  0  4.098176  0
C  C58  1  0.19906639  0.14768342  0.70411860  1  0  0.158245  0  3.895398  0  0  0.168642  0  4.125581  0  0  0.176504  0  4.144116  0  0  0.012712  0.163845  0  4.11267  0
C  C59  1  0.80093699  0.85231727  0.29588132  1  0  0.158341  0  3.895197  0  0  0.16868  0  4.125491  0  0  0.176542  0  4.144027  0  0  0.012715  0.163897  0  4.112544  0
C  C60  1  0.33392418  0.16865993  0.75780782  1  0  -0.153075  0  3.689296  0  0  -0.169903  0  3.930603  0  0  -0.177241  0  3.949915  0  0  -0.079635  -0.164841  0  3.917343  0
C  C61  1  0.66607876  0.83134186  0.24219217  1  0  -0.15312  0  3.68929  0  0  -0.169943  0  3.930619  0  0  -0.177274  0  3.949918  0  0  -0.079641  -0.164889  0  3.917362  0
C  C62  1  0.32858987  0.14114013  0.83728074  1  0  0.119961  0  3.72224  0  0  0.089058  0  3.975446  0  0  0.095556  0  3.991132  0  0  0.034926  0.085092  0  3.964767  0
C  C63  1  0.67141378  0.85886494  0.16271905  1  0  0.120019  0  3.722098  0  0  0.089112  0  3.97527  0  0  0.095607  0  3.990951  0  0  0.034955  0.085145  0  3.964601  0
C  C64  1  0.07027211  0.07471293  0.81563222  1  0  0.129965  0  3.708826  0  0  0.097962  0  3.962686  0  0  0.105094  0  3.978237  0  0  0.03675  0.093003  0  3.952914  0
C  C65  1  0.92973298  0.92529107  0.18436881  1  0  0.129955  0  3.708792  0  0  0.097896  0  3.962647  0  0  0.105026  0  3.978198  0  0  0.036775  0.092937  0  3.952877  0
C  C66  1  0.06431383  0.09876516  0.73515614  1  0  -0.151994  0  3.689876  0  0  -0.168542  0  3.933309  0  0  -0.176565  0  3.954229  0  0  -0.077912  -0.163496  0  3.919334  0
C  C67  1  0.93568911  0.90123665  0.26484447  1  0  -0.152018  0  3.689833  0  0  -0.168525  0  3.933301  0  0  -0.176546  0  3.954222  0  0  -0.077928  -0.163482  0  3.919331  0
C  C68  1  0.05080757  0.22281421  0.43001859  1  0  -0.136168  0  3.628158  0  0  -0.16432  0  3.866821  0  0  -0.165056  0  3.882913  0  0  -0.071173  -0.164165  0  3.856548  0
C  C69  1  0.94919621  0.77719312  0.56998390  1  0  -0.136239  0  3.628149  0  0  -0.164374  0  3.866824  0  0  -0.16511  0  3.882916  0  0  -0.071221  -0.16422  0  3.85655  0
C  C70  1  0.03943451  0.25610819  0.35081559  1  0  0.122312  0  3.934392  0  0  0.137585  0  4.166561  0  0  0.139012  0  4.187724  0  0  -0.000592  0.136444  0  4.152845  0
C  C71  1  0.96056269  0.74389031  0.64918355  1  0  0.122241  0  3.934338  0  0  0.13753  0  4.16649  0  0  0.138956  0  4.18766  0  0  -0.000572  0.136393  0  4.152763  0
C  C72  1  0.17139563  0.31405660  0.31817464  1  0  -0.125328  0  3.594911  0  0  -0.150139  0  3.826644  0  0  -0.150313  0  3.841253  0  0  -0.066823  -0.149985  0  3.817646  0
C  C73  1  0.82860271  0.68594410  0.68182484  1  0  -0.125304  0  3.594822  0  0  -0.150144  0  3.826533  0  0  -0.150333  0  3.841123  0  0  -0.066843  -0.149991  0  3.817536  0
C  C74  1  0.89600599  0.22584131  0.30087353  1  0  -0.086181  0  3.839827  0  0  -0.085863  0  4.089142  0  0  -0.088332  0  4.118307  0  0  -0.03448  -0.085314  0  4.071056  0
C  C75  1  0.10399268  0.77414844  0.69912604  1  0  -0.086064  0  3.839923  0  0  -0.085748  0  4.089226  0  0  -0.088215  0  4.118377  0  0  -0.034424  -0.085199  0  4.071128  0
C  C76  1  0.77482728  0.19413663  0.25235531  1  0  -0.093499  0  3.854031  0  0  -0.09452  0  4.109192  0  0  -0.0978  0  4.137128  0  0  -0.034923  -0.092874  0  4.091565  0
C  C77  1  0.22516031  0.80585327  0.74764880  1  0  -0.093547  0  3.853955  0  0  -0.094542  0  4.109156  0  0  -0.09782  0  4.13709  0  0  -0.034936  -0.092891  0  4.091529  0
C  C78  1  0.63992171  0.15694445  0.19117810  1  0  0.155473  0  3.893378  0  0  0.167228  0  4.1207  0  0  0.175003  0  4.138861  0  0  0.012209  0.161584  0  4.109169  0
C  C79  1  0.36008096  0.84305302  0.80882447  1  0  0.155584  0  3.893184  0  0  0.167247  0  4.120669  0  0  0.175008  0  4.13888  0  0  0.012229  0.161585  0  4.109188  0
C  C80  1  0.65063350  0.18531393  0.11059014  1  0  -0.142488  0  3.664664  0  0  -0.160777  0  3.909356  0  0  -0.167414  0  3.927577  0  0  -0.078588  -0.157171  0  3.899062  0
C  C81  1  0.34936225  0.81468575  0.88941206  1  0  -0.142489  0  3.664668  0  0  -0.160813  0  3.909367  0  0  -0.167448  0  3.92758  0  0  -0.078606  -0.157207  0  3.899067  0
C  C82  1  0.51776851  0.15408944  0.05309202  1  0  0.11697  0  3.708743  0  0  0.088454  0  3.959156  0  0  0.094344  0  3.975872  0  0  0.031986  0.083745  0  3.950432  0
C  C83  1  0.48222597  0.84590588  0.94691082  1  0  0.117019  0  3.708712  0  0  0.088518  0  3.959123  0  0  0.094414  0  3.975827  0  0  0.031971  0.083817  0  3.950383  0
C  C84  1  0.36437127  0.06092804  0.14424435  1  0  0.131481  0  3.719276  0  0  0.099762  0  3.97306  0  0  0.107474  0  3.988561  0  0  0.036984  0.094033  0  3.964305  0
C  C85  1  0.63562982  0.93906831  0.85575674  1  0  0.131471  0  3.719328  0  0  0.099748  0  3.973147  0  0  0.107462  0  3.988643  0  0  0.03694  0.094018  0  3.96439  0
C  C86  1  0.49150397  0.09150107  0.20677910  1  0  -0.15771  0  3.702298  0  0  -0.175293  0  3.944748  0  0  -0.183092  0  3.964531  0  0  -0.080477  -0.170562  0  3.932908  0
C  C87  1  0.50849743  0.90849199  0.79322166  1  0  -0.157673  0  3.70236  0  0  -0.175278  0  3.944895  0  0  -0.183075  0  3.964675  0  0  -0.080465  -0.170544  0  3.933048  0
I  I88  1  0.22912438  0.65743751  0.10237241  1  0  -0.498192  0  1.393166  0  0  -0.447284  0  1.777665  0  0  -0.469031  0  1.745799  0  0  -0.252557  -0.428668  0  1.7978  0
I  I89  1  0.77087121  0.34256749  0.89762360  1  0  -0.498202  0  1.393167  0  0  -0.447288  0  1.77766  0  0  -0.469039  0  1.745787  0  0  -0.252572  -0.428674  0  1.797792  0
I  I90  1  0.94263313  0.78877111  0.94835024  1  0  -0.45919  0  1.648679  0  0  -0.399936  0  2.133775  0  0  -0.418445  0  2.089967  0  0  -0.202309  -0.384851  0  2.161059  0
I  I91  1  0.05737210  0.21123499  0.05164735  1  0  -0.45919  0  1.648606  0  0  -0.399924  0  2.133668  0  0  -0.41843  0  2.089857  0  0  -0.202309  -0.384838  0  2.160948  0
N  N92  1  0.82611947  0.56103270  0.11497768  1  0  -0.264872  0  3.360192  0  0  -0.191942  0  3.646692  0  0  -0.203017  0  3.655035  0  0  -0.359693  -0.186179  0  3.641564  0
N  N93  1  0.17387542  0.43896898  0.88501670  1  0  -0.264871  0  3.360245  0  0  -0.191952  0  3.646805  0  0  -0.203019  0  3.65514  0  0  -0.359715  -0.18625  0  3.641739  0
N  N94  1  0.19997005  0.09517264  0.86735078  1  0  -0.279106  0  3.36164  0  0  -0.20485  0  3.65398  0  0  -0.213896  0  3.660149  0  0  -0.361936  -0.200313  0  3.649886  0
N  N95  1  0.80003246  0.90483022  0.13264807  1  0  -0.279139  0  3.361513  0  0  -0.204842  0  3.653834  0  0  -0.213887  0  3.660003  0  0  -0.361969  -0.200307  0  3.649748  0
N  N96  1  0.37477572  0.09347379  0.06833179  1  0  -0.282731  0  3.36695  0  0  -0.210022  0  3.66785  0  0  -0.219045  0  3.673071  0  0  -0.366689  -0.206182  0  3.665478  0
N  N97  1  0.62521731  0.90652263  0.93167105  1  0  -0.282725  0  3.366901  0  0  -0.210003  0  3.667766  0  0  -0.219034  0  3.672997  0  0  -0.366628  -0.206163  0  3.665393  0
