# generated using pymatgen
data_Ca3H14(C3O4)4
_symmetry_space_group_name_H-M   'P 1'
_cell_length_a   6.05678405
_cell_length_b   10.36260835
_cell_length_c   16.32788849
_cell_angle_alpha   72.50341195
_cell_angle_beta   77.96025421
_cell_angle_gamma   88.90979990
_symmetry_Int_Tables_number   1
_chemical_formula_structural   Ca3H14(C3O4)4
_chemical_formula_sum   'Ca6 H28 C24 O32'
_cell_volume   954.84363010
_cell_formula_units_Z   2
loop_
 _symmetry_equiv_pos_site_id
 _symmetry_equiv_pos_as_xyz
  1  'x, y, z'
loop_
 _atom_site_type_symbol
 _atom_site_label
 _atom_site_symmetry_multiplicity
 _atom_site_fract_x
 _atom_site_fract_y
 _atom_site_fract_z
 _atom_site_occupancy
 _atom_site_hle17_bader_spin_density
 _atom_site_hle17_ddec_charge
 _atom_site_hle17_ddec_spin_density
 _atom_site_hle17_ddec_sum_bond_order
 _atom_site_hle17_magmom
 _atom_site_hse06_10hf_bader_spin_density
 _atom_site_hse06_10hf_ddec_charge
 _atom_site_hse06_10hf_ddec_spin_density
 _atom_site_hse06_10hf_ddec_sum_bond_order
 _atom_site_hse06_10hf_magmom
 _atom_site_hse06_bader_spin_density
 _atom_site_hse06_ddec_charge
 _atom_site_hse06_ddec_spin_density
 _atom_site_hse06_ddec_sum_bond_order
 _atom_site_hse06_magmom
 _atom_site_pbe_bader_spin_density
 _atom_site_pbe_cm5_charge
 _atom_site_pbe_ddec_charge
 _atom_site_pbe_ddec_spin_density
 _atom_site_pbe_ddec_sum_bond_order
 _atom_site_pbe_magmom
Ca  Ca0  1  0.26097741  0.11976984  0.99727116  1  0  1.560144  0  1.069329  0  0  1.432192  0  1.414788  0  0  1.474553  0  1.370996  0  0  0.899423  1.400757  0  1.445251  0
Ca  Ca1  1  0.73902532  0.88022839  0.00272940  1  0  1.560173  0  1.069244  0  0  1.432167  0  1.414789  0  0  1.474526  0  1.371  0  0  0.899426  1.400749  0  1.445216  0
Ca  Ca2  1  0.92066123  0.81177410  0.60894513  1  0  1.543703  0  1.118424  0  0  1.408805  0  1.46906  0  0  1.455577  0  1.421456  0  0  0.899446  1.37409  0  1.5021  0
Ca  Ca3  1  0.07933984  0.18822514  0.39105658  1  0  1.543713  0  1.118405  0  0  1.408848  0  1.468992  0  0  1.45559  0  1.421443  0  0  0.899463  1.37413  0  1.502032  0
Ca  Ca4  1  0.57177540  0.42000690  0.39081645  1  0  1.544605  0  1.100754  0  0  1.409849  0  1.446755  0  0  1.456788  0  1.399376  0  0  0.899954  1.374889  0  1.479779  0
Ca  Ca5  1  0.42822090  0.57999439  0.60918275  1  0  1.544606  0  1.100765  0  0  1.409841  0  1.446766  0  0  1.456782  0  1.399388  0  0  0.899977  1.374827  0  1.479894  0
H  H6  1  0.60728959  0.28222514  0.01068891  1  0  0.422309  0  0.881393  0  0  0.386442  0  0.951991  0  0  0.399229  0  0.933238  0  0  0.298203  0.377408  0  0.965243  0
H  H7  1  0.39270841  0.71777515  0.98930853  1  0  0.422265  0  0.881462  0  0  0.386409  0  0.952045  0  0  0.399197  0  0.93329  0  0  0.298187  0.377374  0  0.965299  0
H  H8  1  0.51601756  0.39454462  0.93514390  1  0  0.435646  0  0.810767  0  0  0.424816  0  0.850486  0  0  0.432669  0  0.839544  0  0  0.339566  0.418892  0  0.858943  0
H  H9  1  0.48397528  0.60545567  0.06485574  1  0  0.435606  0  0.810756  0  0  0.424772  0  0.850534  0  0  0.432627  0  0.839589  0  0  0.339529  0.418844  0  0.858996  0
H  H10  1  0.93960462  0.22277990  0.12390417  1  0  0.436784  0  0.858812  0  0  0.404962  0  0.922327  0  0  0.415842  0  0.906501  0  0  0.303192  0.397194  0  0.933628  0
H  H11  1  0.06039321  0.77721836  0.87609367  1  0  0.436795  0  0.858795  0  0  0.40498  0  0.922299  0  0  0.415862  0  0.906471  0  0  0.303198  0.397212  0  0.9336  0
H  H12  1  0.14931660  0.19523375  0.16922474  1  0  0.442114  0  0.828963  0  0  0.415532  0  0.888361  0  0  0.424977  0  0.874354  0  0  0.321434  0.408713  0  0.898487  0
H  H13  1  0.85068148  0.80476755  0.83077250  1  0  0.442083  0  0.828926  0  0  0.415493  0  0.888404  0  0  0.424937  0  0.874401  0  0  0.321429  0.408675  0  0.898529  0
H  H14  1  0.74411650  0.65064058  0.23587303  1  0  0.389336  0  0.894261  0  0  0.365755  0  0.96187  0  0  0.377104  0  0.949077  0  0  0.311437  0.357771  0  0.970863  0
H  H15  1  0.25588658  0.34936070  0.76412509  1  0  0.389351  0  0.894224  0  0  0.365772  0  0.96183  0  0  0.377118  0  0.949041  0  0  0.31145  0.357787  0  0.970824  0
H  H16  1  0.81127400  0.02130409  0.70421527  1  0  0.366905  0  0.869277  0  0  0.349646  0  0.932451  0  0  0.35803  0  0.922646  0  0  0.320744  0.343538  0  0.939663  0
H  H17  1  0.18872885  0.97869515  0.29578448  1  0  0.366919  0  0.86921  0  0  0.349669  0  0.932369  0  0  0.358052  0  0.922563  0  0  0.320761  0.343561  0  0.939583  0
H  H18  1  0.27840245  0.73479235  0.19255547  1  0  0.151872  0  0.923235  0  0  0.1634  0  0.98376  0  0  0.167269  0  0.981001  0  0  0.12328  0.160644  0  0.985826  0
H  H19  1  0.72160234  0.26520993  0.80744357  1  0  0.151933  0  0.923379  0  0  0.163457  0  0.983906  0  0  0.167327  0  0.981149  0  0  0.12332  0.160701  0  0.985973  0
H  H20  1  0.12884763  0.86425820  0.22464287  1  0  0.095665  0  0.964798  0  0  0.108117  0  1.033442  0  0  0.110886  0  1.030955  0  0  0.100882  0.106048  0  1.03543  0
H  H21  1  0.87114995  0.13573903  0.77535824  1  0  0.095679  0  0.964711  0  0  0.108124  0  1.033377  0  0  0.1109  0  1.030884  0  0  0.100883  0.106056  0  1.035366  0
H  H22  1  0.96937282  0.81579987  0.36182083  1  0  0.093892  0  0.959059  0  0  0.107523  0  1.025387  0  0  0.110331  0  1.022623  0  0  0.102377  0.105481  0  1.027533  0
H  H23  1  0.03063359  0.18420039  0.63817663  1  0  0.093857  0  0.959079  0  0  0.107477  0  1.025419  0  0  0.110285  0  1.022657  0  0  0.102375  0.105436  0  1.027563  0
H  H24  1  0.16744910  0.69125780  0.39135725  1  0  0.139252  0  0.935191  0  0  0.150294  0  0.999488  0  0  0.153548  0  0.997819  0  0  0.122872  0.147977  0  1.000776  0
H  H25  1  0.83254703  0.30874147  0.60864235  1  0  0.139267  0  0.93514  0  0  0.150264  0  0.9995  0  0  0.153519  0  0.997826  0  0  0.12286  0.147951  0  1.000779  0
H  H26  1  0.50642827  0.19323345  0.63465086  1  0  0.126392  0  0.940275  0  0  0.139226  0  1.002048  0  0  0.142419  0  0.999769  0  0  0.110792  0.136844  0  1.003925  0
H  H27  1  0.49357416  0.80676274  0.36535256  1  0  0.126407  0  0.940192  0  0  0.139199  0  1.002035  0  0  0.142419  0  0.999724  0  0  0.11076  0.136816  0  1.003917  0
H  H28  1  0.33263770  0.09694455  0.59924731  1  0  0.144109  0  0.941286  0  0  0.155216  0  1.004905  0  0  0.158601  0  1.003118  0  0  0.123179  0.152824  0  1.006285  0
H  H29  1  0.66736689  0.90305570  0.40075273  1  0  0.144068  0  0.941339  0  0  0.155208  0  1.004914  0  0  0.158593  0  1.003131  0  0  0.123172  0.152818  0  1.006292  0
H  H30  1  0.18434691  0.01306022  0.77635571  1  0  0.123532  0  0.950991  0  0  0.13383  0  1.019731  0  0  0.136888  0  1.017667  0  0  0.111409  0.131665  0  1.021241  0
H  H31  1  0.81565236  0.98693701  0.22364528  1  0  0.123517  0  0.95097  0  0  0.133851  0  1.019686  0  0  0.136898  0  1.017632  0  0  0.111419  0.131686  0  1.021197  0
H  H32  1  0.41545262  0.11854200  0.77348661  1  0  0.118096  0  0.945163  0  0  0.128986  0  1.009513  0  0  0.131804  0  1.008021  0  0  0.107357  0.126983  0  1.010609  0
H  H33  1  0.58454501  0.88145623  0.22651492  1  0  0.118097  0  0.945224  0  0  0.12898  0  1.009582  0  0  0.131794  0  1.008095  0  0  0.107397  0.126978  0  1.01068  0
C  C34  1  0.99871510  0.79772806  0.13425433  1  0  0.740878  0  3.833817  0  0  0.692442  0  4.13614  0  0  0.726214  0  4.128577  0  0  0.223023  0.669403  0  4.140602  0
C  C35  1  0.00128599  0.20227219  0.86574842  1  0  0.740753  0  3.833836  0  0  0.692411  0  4.136027  0  0  0.726186  0  4.128464  0  0  0.223054  0.669374  0  4.140483  0
C  C36  1  0.10696945  0.76652461  0.21317982  1  0  -0.352582  0  3.607333  0  0  -0.397041  0  3.849323  0  0  -0.40384  0  3.854767  0  0  -0.155994  -0.392321  0  3.845705  0
C  C37  1  0.89302865  0.23347870  0.78682010  1  0  -0.352633  0  3.607479  0  0  -0.397101  0  3.849391  0  0  -0.403908  0  3.854838  0  0  -0.156045  -0.392385  0  3.845781  0
C  C38  1  0.98273283  0.65876675  0.29835780  1  0  0.258542  0  3.543713  0  0  0.261186  0  3.780951  0  0  0.265175  0  3.792073  0  0  0.076889  0.258184  0  3.773599  0
C  C39  1  0.01726366  0.34123757  0.70164205  1  0  0.25858  0  3.543815  0  0  0.261221  0  3.780993  0  0  0.265208  0  3.792115  0  0  0.076884  0.25822  0  3.773635  0
C  C40  1  0.99713721  0.70655965  0.37767997  1  0  -0.341019  0  3.606779  0  0  -0.385286  0  3.847374  0  0  -0.39179  0  3.852798  0  0  -0.152009  -0.380759  0  3.84382  0
C  C41  1  0.00286418  0.29344263  0.62231992  1  0  -0.341044  0  3.606717  0  0  -0.385262  0  3.84724  0  0  -0.391764  0  3.852661  0  0  -0.152015  -0.380735  0  3.843684  0
C  C42  1  0.83125585  0.63980795  0.46369604  1  0  0.76207  0  3.805716  0  0  0.714424  0  4.101375  0  0  0.749099  0  4.093012  0  0  0.238017  0.690688  0  4.106398  0
C  C43  1  0.16874396  0.36019536  0.53630315  1  0  0.762102  0  3.805592  0  0  0.714486  0  4.101172  0  0  0.749162  0  4.092804  0  0  0.23808  0.690745  0  4.106203  0
C  C44  1  0.10262213  0.52208480  0.30871643  1  0  0.643194  0  3.846956  0  0  0.595272  0  4.14368  0  0  0.628821  0  4.135128  0  0  0.233768  0.572226  0  4.149101  0
C  C45  1  0.89737894  0.47791344  0.69128363  1  0  0.642924  0  3.847246  0  0  0.595083  0  4.143844  0  0  0.628632  0  4.135294  0  0  0.233684  0.572038  0  4.149257  0
C  C46  1  0.67172550  0.10941377  0.53502215  1  0  0.751195  0  3.836905  0  0  0.703714  0  4.134608  0  0  0.738283  0  4.125968  0  0  0.230915  0.680088  0  4.139767  0
C  C47  1  0.32827713  0.89058445  0.46498026  1  0  0.751186  0  3.836844  0  0  0.703723  0  4.134531  0  0  0.738292  0  4.125898  0  0  0.23093  0.680095  0  4.139693  0
C  C48  1  0.49633429  0.09865106  0.61801547  1  0  -0.374083  0  3.622248  0  0  -0.416143  0  3.860462  0  0  -0.42344  0  3.866044  0  0  -0.159272  -0.411059  0  3.856859  0
C  C49  1  0.50366845  0.90134918  0.38198777  1  0  -0.374078  0  3.622223  0  0  -0.416128  0  3.860471  0  0  -0.423446  0  3.866051  0  0  -0.159255  -0.411041  0  3.856873  0
C  C50  1  0.49568448  0.97591298  0.69964154  1  0  0.26452  0  3.535718  0  0  0.261168  0  3.783577  0  0  0.265468  0  3.793883  0  0  0.078229  0.258064  0  3.776691  0
C  C51  1  0.50431484  0.02408526  0.30035987  1  0  0.26455  0  3.53551  0  0  0.261159  0  3.783463  0  0  0.265459  0  3.79377  0  0  0.078199  0.258055  0  3.776578  0
C  C52  1  0.36365525  0.01494176  0.77918673  1  0  -0.365497  0  3.650406  0  0  -0.410756  0  3.895005  0  0  -0.417559  0  3.900857  0  0  -0.167136  -0.405963  0  3.890974  0
C  C53  1  0.63634076  0.98505649  0.22081368  1  0  -0.365463  0  3.650343  0  0  -0.410756  0  3.895064  0  0  -0.417548  0  3.900925  0  0  -0.167152  -0.405966  0  3.891036  0
C  C54  1  0.39021173  0.92207998  0.86759001  1  0  0.747723  0  3.810244  0  0  0.693872  0  4.117052  0  0  0.728092  0  4.108524  0  0  0.236126  0.670534  0  4.122201  0
C  C55  1  0.60978754  0.07791724  0.13241098  1  0  0.747721  0  3.810208  0  0  0.69379  0  4.117149  0  0  0.728009  0  4.108624  0  0  0.236051  0.670458  0  4.122292  0
C  C56  1  0.38173226  0.85143669  0.68824488  1  0  0.656834  0  3.843765  0  0  0.609446  0  4.138374  0  0  0.643514  0  4.129319  0  0  0.237523  0.585959  0  4.144266  0
C  C57  1  0.61826730  0.14856358  0.31175490  1  0  0.656792  0  3.843841  0  0  0.60941  0  4.138487  0  0  0.643475  0  4.129436  0  0  0.237555  0.585922  0  4.144383  0
O  O58  1  0.84927530  0.71616854  0.12974076  1  0  -0.671747  0  1.899618  0  0  -0.612912  0  2.112633  0  0  -0.638332  0  2.101366  0  0  -0.343594  -0.595066  0  2.119856  0
O  O59  1  0.15073101  0.28383171  0.87025855  1  0  -0.671701  0  1.899622  0  0  -0.612908  0  2.112584  0  0  -0.638324  0  2.101316  0  0  -0.34362  -0.595057  0  2.119805  0
O  O60  1  0.54774907  0.29935214  0.95554450  1  0  -0.870152  0  1.814413  0  0  -0.822091  0  1.991879  0  0  -0.841931  0  1.958888  0  0  -0.606449  -0.807874  0  2.014894  0
O  O61  1  0.45225241  0.70065016  0.04445354  1  0  -0.87009  0  1.814447  0  0  -0.822001  0  1.991938  0  0  -0.841844  0  1.958951  0  0  -0.606402  -0.807787  0  2.014952  0
O  O62  1  0.05459839  0.90964153  0.07349834  1  0  -0.759009  0  2.00054  0  0  -0.699847  0  2.261448  0  0  -0.728841  0  2.252258  0  0  -0.391921  -0.679147  0  2.266832  0
O  O63  1  0.94539605  0.09036075  0.92650571  1  0  -0.758935  0  2.000533  0  0  -0.699845  0  2.261457  0  0  -0.728834  0  2.252246  0  0  -0.39192  -0.679145  0  2.266838  0
O  O64  1  0.10593979  0.21279489  0.11268240  1  0  -0.890196  0  1.770158  0  0  -0.838145  0  1.943023  0  0  -0.857864  0  1.910855  0  0  -0.621128  -0.823976  0  1.965655  0
O  O65  1  0.89405978  0.78720438  0.88731574  1  0  -0.890175  0  1.770056  0  0  -0.838109  0  1.942991  0  0  -0.85783  0  1.910822  0  0  -0.621128  -0.823941  0  1.965618  0
O  O66  1  0.79065817  0.70713090  0.51858062  1  0  -0.752542  0  2.01515  0  0  -0.689628  0  2.272893  0  0  -0.719762  0  2.263711  0  0  -0.395504  -0.668176  0  2.278579  0
O  O67  1  0.20934527  0.29287544  0.48141774  1  0  -0.752568  0  2.015236  0  0  -0.689676  0  2.272971  0  0  -0.719808  0  2.26379  0  0  -0.395531  -0.668228  0  2.278654  0
O  O68  1  0.73502869  0.52499887  0.47922385  1  0  -0.704731  0  1.960237  0  0  -0.643186  0  2.201038  0  0  -0.671482  0  2.192643  0  0  -0.348464  -0.623103  0  2.206159  0
O  O69  1  0.26496441  0.47500445  0.52077519  1  0  -0.704742  0  1.960225  0  0  -0.643203  0  2.201004  0  0  -0.671498  0  2.192607  0  0  -0.348501  -0.623125  0  2.206139  0
O  O70  1  0.97981061  0.41601843  0.32290237  1  0  -0.719567  0  2.015887  0  0  -0.658534  0  2.259292  0  0  -0.686073  0  2.246838  0  0  -0.373842  -0.638881  0  2.266954  0
O  O71  1  0.02017518  0.58397983  0.67710060  1  0  -0.719447  0  2.016084  0  0  -0.658457  0  2.259461  0  0  -0.685999  0  2.247007  0  0  -0.373818  -0.638796  0  2.267124  0
O  O72  1  0.31260239  0.52746068  0.30452647  1  0  -0.674218  0  1.971843  0  0  -0.623978  0  2.213658  0  0  -0.650326  0  2.202476  0  0  -0.359518  -0.605313  0  2.220618  0
O  O73  1  0.68739409  0.47254164  0.69547069  1  0  -0.674162  0  1.971826  0  0  -0.623914  0  2.213554  0  0  -0.650268  0  2.202388  0  0  -0.359508  -0.605245  0  2.220531  0
O  O74  1  0.74799279  0.64195529  0.29846969  1  0  -0.63498  0  2.099569  0  0  -0.585746  0  2.329382  0  0  -0.604157  0  2.318038  0  0  -0.421073  -0.572486  0  2.336794  0
O  O75  1  0.25200163  0.35804297  0.70152900  1  0  -0.634938  0  2.099602  0  0  -0.585719  0  2.32942  0  0  -0.604138  0  2.318098  0  0  -0.421048  -0.572452  0  2.336832  0
O  O76  1  0.77012116  0.00662825  0.52130434  1  0  -0.711358  0  1.981137  0  0  -0.651862  0  2.225267  0  0  -0.679611  0  2.216389  0  0  -0.35682  -0.6322  0  2.230805  0
O  O77  1  0.22988670  0.99337199  0.47869732  1  0  -0.71133  0  1.981069  0  0  -0.651884  0  2.22525  0  0  -0.679631  0  2.216374  0  0  -0.35683  -0.632222  0  2.230788  0
O  O78  1  0.71543457  0.22765791  0.48026158  1  0  -0.743763  0  2.016825  0  0  -0.68185  0  2.274018  0  0  -0.71162  0  2.264922  0  0  -0.393694  -0.660579  0  2.279554  0
O  O79  1  0.28456973  0.77233930  0.51973968  1  0  -0.743798  0  2.016836  0  0  -0.681883  0  2.274023  0  0  -0.71166  0  2.264935  0  0  -0.393701  -0.660596  0  2.27956  0
O  O80  1  0.46845273  0.97758923  0.91704556  1  0  -0.776619  0  1.966969  0  0  -0.707627  0  2.226501  0  0  -0.737599  0  2.216417  0  0  -0.407312  -0.686187  0  2.232747  0
O  O81  1  0.53154674  0.02241002  0.08295442  1  0  -0.776607  0  1.966971  0  0  -0.707599  0  2.226555  0  0  -0.737571  0  2.216476  0  0  -0.407295  -0.68616  0  2.2328  0
O  O82  1  0.33546789  0.79710892  0.88908693  1  0  -0.62337  0  1.929771  0  0  -0.555774  0  2.128392  0  0  -0.580876  0  2.11652  0  0  -0.286994  -0.538481  0  2.136554  0
O  O83  1  0.66452803  0.20288832  0.11091368  1  0  -0.623417  0  1.929727  0  0  -0.555734  0  2.128334  0  0  -0.580834  0  2.11646  0  0  -0.286981  -0.538451  0  2.136502  0
O  O84  1  0.50675524  0.75809084  0.67304947  1  0  -0.697292  0  2.001921  0  0  -0.639912  0  2.246172  0  0  -0.667259  0  2.234347  0  0  -0.352639  -0.620356  0  2.253556  0
O  O85  1  0.49324272  0.24191044  0.32695024  1  0  -0.697309  0  2.001969  0  0  -0.639915  0  2.246201  0  0  -0.667259  0  2.234385  0  0  -0.352653  -0.62037  0  2.253583  0
O  O86  1  0.17159774  0.85798386  0.69127898  1  0  -0.694394  0  1.996941  0  0  -0.644641  0  2.248856  0  0  -0.671702  0  2.237517  0  0  -0.363658  -0.625315  0  2.255818  0
O  O87  1  0.82840147  0.14201235  0.30872160  1  0  -0.694356  0  1.996979  0  0  -0.644622  0  2.248919  0  0  -0.671679  0  2.23759  0  0  -0.363658  -0.625297  0  2.255881  0
O  O88  1  0.72265827  0.93951934  0.71127708  1  0  -0.602173  0  2.098396  0  0  -0.551127  0  2.323388  0  0  -0.567067  0  2.310974  0  0  -0.392999  -0.539576  0  2.331821  0
O  O89  1  0.27733588  0.06047990  0.28872818  1  0  -0.602174  0  2.098268  0  0  -0.551106  0  2.323243  0  0  -0.567053  0  2.310853  0  0  -0.393003  -0.539555  0  2.331676  0
