# generated using pymatgen
data_ZnH16C16(N3O2)2
_symmetry_space_group_name_H-M   'P 1'
_cell_length_a   9.47214420
_cell_length_b   10.28481564
_cell_length_c   20.87705597
_cell_angle_alpha   90.00008240
_cell_angle_beta   90.00000814
_cell_angle_gamma   111.09271875
_symmetry_Int_Tables_number   1
_chemical_formula_structural   ZnH16C16(N3O2)2
_chemical_formula_sum   'Zn4 H64 C64 N24 O16'
_cell_volume   1897.55937635
_cell_formula_units_Z   4
loop_
 _symmetry_equiv_pos_site_id
 _symmetry_equiv_pos_as_xyz
  1  'x, y, z'
loop_
 _atom_site_type_symbol
 _atom_site_label
 _atom_site_symmetry_multiplicity
 _atom_site_fract_x
 _atom_site_fract_y
 _atom_site_fract_z
 _atom_site_occupancy
 _atom_site_pbe_bader_charge
 _atom_site_pbe_bader_spin_density
 _atom_site_pbe_cm5_charge
 _atom_site_pbe_ddec_charge
 _atom_site_pbe_ddec_spin_density
 _atom_site_pbe_ddec_sum_bond_order
 _atom_site_pbe_magmom
Zn  Zn0  1  0.09776366  0.09263339  0.59223823  1  1.260184  0  0.695834  0.788642  0  2.40383  0
Zn  Zn1  1  0.90223191  0.40737292  0.09223971  1  1.260521  0  0.695822  0.788639  0  2.403914  0
Zn  Zn2  1  0.90223076  0.90736557  0.40776042  1  1.260325  0  0.695842  0.788617  0  2.403858  0
Zn  Zn3  1  0.09776559  0.59263126  0.90776134  1  1.260324  0  0.695827  0.788618  0  2.403902  0
H  H4  1  0.06200896  0.57807452  0.60908943  1  0.136031  0  0.10378  0.115252  0  1.011132  0
H  H5  1  0.93798823  0.92192750  0.10909140  1  0.136151  0  0.103798  0.115316  0  1.011051  0
H  H6  1  0.93798451  0.42191924  0.39090922  1  0.13617  0  0.103786  0.115233  0  1.011102  0
H  H7  1  0.06201138  0.07807669  0.89091109  1  0.136027  0  0.103784  0.115231  0  1.011112  0
H  H8  1  0.30245698  0.45240318  0.46177265  1  0.051621  0  0.097377  0.100681  0  1.026907  0
H  H9  1  0.69754714  0.04760032  0.96177214  1  0.05162  0  0.097405  0.100695  0  1.026977  0
H  H10  1  0.69755135  0.54759896  0.53822984  1  0.051733  0  0.097399  0.100685  0  1.026924  0
H  H11  1  0.30245827  0.95239973  0.03822556  1  0.05158  0  0.097416  0.100707  0  1.026906  0
H  H12  1  0.30674769  0.87310656  0.46627870  1  0.072617  0  0.0996  0.106509  0  1.027775  0
H  H13  1  0.69325515  0.62689883  0.96627681  1  0.072668  0  0.099593  0.106473  0  1.027757  0
H  H14  1  0.69324991  0.12689241  0.53372427  1  0.07258  0  0.099589  0.106499  0  1.027758  0
H  H15  1  0.30675357  0.37310435  0.03372520  1  0.072547  0  0.099581  0.106522  0  1.027785  0
H  H16  1  0.43990659  0.81065373  0.38332254  1  0.043048  0  0.0857  0.116234  0  1.047236  0
H  H17  1  0.56009822  0.68935137  0.88332020  1  0.04308  0  0.08573  0.116264  0  1.047218  0
H  H18  1  0.56009539  0.18934838  0.61668330  1  0.043091  0  0.085744  0.116234  0  1.047175  0
H  H19  1  0.43991328  0.31065078  0.11668037  1  0.043085  0  0.085732  0.11623  0  1.04718  0
H  H20  1  0.36270261  0.63435488  0.35725750  1  0.026789  0  0.089851  0.126618  0  0.996104  0
H  H21  1  0.63730004  0.86565012  0.85725625  1  0.027031  0  0.089856  0.126656  0  0.996165  0
H  H22  1  0.63730163  0.36565037  0.64274594  1  0.026985  0  0.089841  0.126603  0  0.996206  0
H  H23  1  0.36270748  0.13434994  0.14274384  1  0.02697  0  0.089865  0.126626  0  0.996204  0
H  H24  1  0.52491585  0.69008482  0.40751748  1  0.073285  0  0.089065  0.129804  0  1.011934  0
H  H25  1  0.47508437  0.80991931  0.90751522  1  0.073287  0  0.089057  0.129785  0  1.011896  0
H  H26  1  0.47508295  0.30991728  0.59248692  1  0.073262  0  0.089045  0.129766  0  1.011889  0
H  H27  1  0.52492103  0.19008074  0.09248391  1  0.073254  0  0.089039  0.129735  0  1.011934  0
H  H28  1  0.79778123  0.82059286  0.55469538  1  0.210474  0  0.147575  0.133995  0  1.004486  0
H  H29  1  0.20221562  0.67941103  0.05469713  1  0.21045  0  0.147564  0.133978  0  1.004465  0
H  H30  1  0.20221214  0.17940609  0.44530280  1  0.210562  0  0.147546  0.133985  0  1.004398  0
H  H31  1  0.79777936  0.32059209  0.94530536  1  0.210459  0  0.14758  0.133976  0  1.004504  0
H  H32  1  0.84412847  0.16164021  0.67513694  1  0.16107  0  0.144419  0.12362  0  0.966085  0
H  H33  1  0.15586825  0.33835807  0.17513401  1  0.161009  0  0.144421  0.123667  0  0.96607  0
H  H34  1  0.15586424  0.83835978  0.32486411  1  0.160977  0  0.144411  0.123626  0  0.966069  0
H  H35  1  0.84413594  0.66163885  0.82486369  1  0.161017  0  0.144406  0.12363  0  0.966027  0
H  H36  1  0.48632382  0.71678043  0.56240858  1  0.098229  0  0.114871  0.101044  0  1.001573  0
H  H37  1  0.51367632  0.78321831  0.06240659  1  0.098173  0  0.114843  0.101009  0  1.001598  0
H  H38  1  0.51367590  0.28321856  0.43759246  1  0.098204  0  0.114857  0.10104  0  1.001586  0
H  H39  1  0.48632234  0.21678066  0.93759110  1  0.098235  0  0.114879  0.101053  0  1.001589  0
H  H40  1  0.41193331  0.77938005  0.62872638  1  0.108154  0  0.118357  0.10307  0  1.016869  0
H  H41  1  0.58806679  0.72061581  0.12872388  1  0.108384  0  0.118344  0.103086  0  1.016843  0
H  H42  1  0.58806746  0.22061894  0.37127467  1  0.108423  0  0.118355  0.103046  0  1.016823  0
H  H43  1  0.41193318  0.27938110  0.87127238  1  0.108158  0  0.118371  0.103033  0  1.016853  0
H  H44  1  0.40218075  0.53425510  0.64421555  1  0.057115  0  0.103408  0.108872  0  0.988237  0
H  H45  1  0.59781701  0.96574287  0.14421417  1  0.057139  0  0.103403  0.108866  0  0.988265  0
H  H46  1  0.59781262  0.46574385  0.35578550  1  0.057181  0  0.103374  0.108827  0  0.988242  0
H  H47  1  0.40218059  0.03425610  0.85578352  1  0.057131  0  0.103415  0.108873  0  0.988223  0
H  H48  1  0.60084104  0.59111126  0.63619625  1  0.047783  0  0.102648  0.103195  0  0.986784  0
H  H49  1  0.39915696  0.90888461  0.13619673  1  0.04783  0  0.102648  0.103172  0  0.986803  0
H  H50  1  0.39915495  0.40888355  0.36380480  1  0.047779  0  0.102628  0.103145  0  0.98682  0
H  H51  1  0.60083863  0.09110915  0.86380336  1  0.047802  0  0.102656  0.103189  0  0.986806  0
H  H52  1  0.54842823  0.56274411  0.74900093  1  0.139322  0  0.11607  0.09347  0  1.037077  0
H  H53  1  0.45157087  0.93724905  0.24900096  1  0.139375  0  0.116101  0.093511  0  1.037079  0
H  H54  1  0.45156726  0.43725485  0.25100059  1  0.139322  0  0.116071  0.093466  0  1.037108  0
H  H55  1  0.54842910  0.06274785  0.75099625  1  0.139296  0  0.116036  0.093457  0  1.037061  0
H  H56  1  0.62822189  0.74526728  0.73432268  1  0.052217  0  0.118277  0.102713  0  0.962239  0
H  H57  1  0.37177904  0.75472791  0.23432115  1  0.052168  0  0.118283  0.102708  0  0.96224  0
H  H58  1  0.37177530  0.25473065  0.26567789  1  0.052162  0  0.118267  0.102696  0  0.962248  0
H  H59  1  0.62821881  0.24526898  0.76567751  1  0.052221  0  0.118289  0.102743  0  0.962241  0
H  H60  1  0.17589784  0.82194231  0.78949954  1  0.181194  0  0.139428  0.118824  0  0.996626  0
H  H61  1  0.82410148  0.67805411  0.28949606  1  0.181247  0  0.139393  0.118786  0  0.996642  0
H  H62  1  0.82409910  0.17805770  0.21050151  1  0.181229  0  0.139401  0.11878  0  0.996622  0
H  H63  1  0.17590010  0.32194696  0.71050164  1  0.181254  0  0.139394  0.118786  0  0.996633  0
H  H64  1  0.33031352  0.49162510  0.82139617  1  0.19662  0  0.148472  0.121801  0  1.004874  0
H  H65  1  0.66968447  0.00836539  0.32139639  1  0.196739  0  0.148502  0.121804  0  1.004955  0
H  H66  1  0.66968740  0.50837701  0.17860440  1  0.196602  0  0.148486  0.121894  0  1.004808  0
H  H67  1  0.33031363  0.99162942  0.67859986  1  0.196665  0  0.148498  0.12179  0  1.004889  0
C  C68  1  0.17858699  0.73632717  0.54016311  1  -0.076889  0  -0.022015  -0.031268  0  3.994488  0
C  C69  1  0.82141169  0.76367876  0.04016591  1  -0.076632  0  -0.021941  -0.031374  0  3.994693  0
C  C70  1  0.82140889  0.26367283  0.45983555  1  -0.076713  0  -0.021964  -0.031221  0  3.994578  0
C  C71  1  0.17859175  0.23632440  0.95983705  1  -0.076642  0  -0.021938  -0.031214  0  3.994469  0
C  C72  1  0.13212339  0.60249817  0.56622852  1  0.003644  0  -0.078929  -0.11193  0  3.941287  0
C  C73  1  0.86788370  0.89751310  0.06622711  1  0.003238  0  -0.078973  -0.111945  0  3.941341  0
C  C74  1  0.86787753  0.39750394  0.43377301  1  0.003484  0  -0.078936  -0.111921  0  3.941451  0
C  C75  1  0.13212306  0.10249320  0.93377298  1  0.00357  0  -0.078937  -0.111868  0  3.941429  0
C  C76  1  0.17676356  0.50041170  0.53775225  1  -0.045564  0  -0.022836  -0.03638  0  4.011024  0
C  C77  1  0.82323698  0.99959631  0.03775138  1  -0.045655  0  -0.022875  -0.036478  0  4.011007  0
C  C78  1  0.82323484  0.49958935  0.46224785  1  -0.045583  0  -0.022875  -0.036362  0  4.011198  0
C  C79  1  0.17677335  0.00041104  0.96224679  1  -0.045681  0  -0.022892  -0.036502  0  4.011334  0
C  C80  1  0.26791542  0.53321138  0.48291455  1  -0.032566  0  -0.085175  -0.152152  0  3.919252  0
C  C81  1  0.73208835  0.96679095  0.98291289  1  -0.032566  0  -0.085216  -0.152176  0  3.919378  0
C  C82  1  0.73209250  0.46678972  0.51708746  1  -0.032689  0  -0.08521  -0.152222  0  3.919344  0
C  C83  1  0.26792183  0.03321328  0.01708576  1  -0.033278  0  -0.085205  -0.152162  0  3.919394  0
C  C84  1  0.31569383  0.66688829  0.45599892  1  -0.033707  0  -0.010971  0.164521  0  3.98624  0
C  C85  1  0.68431176  0.83311604  0.95599717  1  -0.033745  0  -0.010983  0.16454  0  3.986306  0
C  C86  1  0.68430483  0.33311069  0.54400213  1  -0.033691  0  -0.011012  0.164451  0  3.986332  0
C  C87  1  0.31569696  0.16688715  0.04400292  1  -0.032963  0  -0.011001  0.164429  0  3.986477  0
C  C88  1  0.26995260  0.76755285  0.48533882  1  -0.030595  0  -0.083739  -0.144955  0  3.904929  0
C  C89  1  0.73004947  0.73245052  0.98533940  1  -0.030505  0  -0.083756  -0.144912  0  3.90502  0
C  C90  1  0.73004711  0.23244613  0.51466127  1  -0.030563  0  -0.083739  -0.144936  0  3.904896  0
C  C91  1  0.26995463  0.26755160  0.01466357  1  -0.030587  0  -0.083748  -0.144966  0  3.905029  0
C  C92  1  0.13413527  0.84567042  0.57301691  1  1.551543  0  0.189232  0.557999  0  4.22819  0
C  C93  1  0.86586493  0.65433668  0.07301821  1  1.55157  0  0.189291  0.558115  0  4.228349  0
C  C94  1  0.86585347  0.15432747  0.42697982  1  1.551498  0  0.189259  0.557968  0  4.228368  0
C  C95  1  0.13414248  0.34566858  0.92698140  1  1.551421  0  0.189209  0.557804  0  4.22841  0
C  C96  1  0.12876040  0.35878503  0.56778900  1  1.563735  0  0.195149  0.558016  0  4.229929  0
C  C97  1  0.87124586  0.14122435  0.06778837  1  1.563987  0  0.195308  0.55831  0  4.229653  0
C  C98  1  0.87124646  0.64121606  0.43221205  1  1.563642  0  0.195213  0.55808  0  4.229909  0
C  C99  1  0.12875390  0.85878295  0.93221268  1  1.563871  0  0.195171  0.558135  0  4.229814  0
C  C100  1  0.41620050  0.70245534  0.39788873  1  -0.088463  0  -0.244248  -0.415667  0  3.966621  0
C  C101  1  0.58380222  0.79754980  0.89788743  1  -0.088764  0  -0.244229  -0.415659  0  3.966544  0
C  C102  1  0.58380188  0.29754781  0.60211423  1  -0.088794  0  -0.24423  -0.415551  0  3.966646  0
C  C103  1  0.41620570  0.20245130  0.10211266  1  -0.088776  0  -0.244214  -0.415495  0  3.966729  0
C  C104  1  0.77655782  0.88980279  0.58974728  1  1.017915  0  0.180588  0.119089  0  3.827033  0
C  C105  1  0.22344105  0.61019812  0.08974707  1  1.017979  0  0.180621  0.119165  0  3.826974  0
C  C106  1  0.22343605  0.11019201  0.41025377  1  1.017827  0  0.18056  0.119077  0  3.826768  0
C  C107  1  0.77655801  0.38980190  0.91025398  1  1.017868  0  0.18061  0.119171  0  3.826851  0
C  C108  1  0.79556075  0.06121403  0.65169538  1  0.990863  0  0.151985  0.139649  0  3.989347  0
C  C109  1  0.20443805  0.43878418  0.15169252  1  0.990634  0  0.151986  0.13954  0  3.989324  0
C  C110  1  0.20443670  0.93878182  0.34830567  1  0.990898  0  0.151974  0.139606  0  3.989276  0
C  C111  1  0.79556337  0.56121377  0.84830517  1  0.990916  0  0.151965  0.139617  0  3.989162  0
C  C112  1  0.50378963  0.74608297  0.61311115  1  0.286972  0  -0.051411  -0.105335  0  3.882139  0
C  C113  1  0.49621019  0.75391491  0.11310866  1  0.286776  0  -0.051354  -0.105302  0  3.881965  0
C  C114  1  0.49620611  0.25391391  0.38689038  1  0.286805  0  -0.051378  -0.10529  0  3.881901  0
C  C115  1  0.50378978  0.24608200  0.88688904  1  0.287082  0  -0.051426  -0.105316  0  3.882132  0
C  C116  1  0.50793374  0.62278797  0.65299364  1  -0.020322  0  -0.152742  -0.182073  0  3.921695  0
C  C117  1  0.49206641  0.87720797  0.15299267  1  -0.020373  0  -0.152704  -0.181989  0  3.921569  0
C  C118  1  0.49206266  0.37720788  0.34700741  1  -0.020391  0  -0.152642  -0.181927  0  3.921456  0
C  C119  1  0.50793250  0.12278893  0.84700502  1  -0.020311  0  -0.152708  -0.18197  0  3.921723  0
C  C120  1  0.52989316  0.65002125  0.72478299  1  0.295871  0  -0.046592  -0.095154  0  3.877243  0
C  C121  1  0.47010711  0.84997494  0.22478296  1  0.295907  0  -0.046629  -0.09518  0  3.877266  0
C  C122  1  0.47010233  0.34997771  0.27521710  1  0.296142  0  -0.046627  -0.095166  0  3.877247  0
C  C123  1  0.52989140  0.15002091  0.77521474  1  0.295893  0  -0.046567  -0.095233  0  3.877289  0
C  C124  1  0.24086450  0.75438636  0.78529155  1  0.971644  0  0.150587  0.141327  0  3.972278  0
C  C125  1  0.75913627  0.74561109  0.28529003  1  0.971503  0  0.150683  0.14135  0  3.972308  0
C  C126  1  0.75913431  0.24561574  0.21470902  1  0.971631  0  0.150616  0.141429  0  3.972224  0
C  C127  1  0.24086636  0.25438998  0.71470767  1  0.971524  0  0.150681  0.141442  0  3.972258  0
C  C128  1  0.31573628  0.58502786  0.80351820  1  1.000157  0  0.175505  0.098597  0  3.872932  0
C  C129  1  0.68426040  0.91496444  0.30351679  1  0.999961  0  0.175501  0.098637  0  3.873005  0
C  C130  1  0.68426147  0.41497424  0.19648333  1  1.000226  0  0.175447  0.098473  0  3.872922  0
C  C131  1  0.31573559  0.08503036  0.69648138  1  0.999923  0  0.175559  0.09877  0  3.872864  0
N  N132  1  0.87532532  0.01183810  0.61009851  1  -1.236504  0  -0.346476  -0.300451  0  3.596721  0
N  N133  1  0.12467199  0.48816723  0.11009951  1  -1.23625  0  -0.346529  -0.300516  0  3.596664  0
N  N134  1  0.12466779  0.98816293  0.38989871  1  -1.236571  0  -0.346433  -0.300394  0  3.596503  0
N  N135  1  0.87532827  0.51183591  0.88990250  1  -1.236474  0  -0.346494  -0.300465  0  3.596505  0
N  N136  1  0.65291796  0.97626301  0.65838390  1  -0.707144  0  -0.226485  -0.289778  0  3.147031  0
N  N137  1  0.34708179  0.52373191  0.15838076  1  -0.707163  0  -0.226467  -0.289735  0  3.147038  0
N  N138  1  0.34707989  0.02373389  0.34161763  1  -0.70714  0  -0.226497  -0.289804  0  3.147146  0
N  N139  1  0.65292069  0.47626604  0.84161789  1  -0.707149  0  -0.22646  -0.289802  0  3.147079  0
N  N140  1  0.64307647  0.86774634  0.61839786  1  -0.839022  0  -0.13372  0.168105  0  3.709384  0
N  N141  1  0.35692336  0.63225156  0.11839671  1  -0.839109  0  -0.133731  0.168114  0  3.709237  0
N  N142  1  0.35691992  0.13224951  0.38160271  1  -0.839067  0  -0.133697  0.168137  0  3.709122  0
N  N143  1  0.64307701  0.36774639  0.88160098  1  -0.839201  0  -0.133755  0.168099  0  3.709213  0
N  N144  1  0.39942108  0.66514552  0.75647232  1  -0.824086  0  -0.130846  0.174311  0  3.709352  0
N  N145  1  0.60057909  0.83484766  0.25647086  1  -0.823792  0  -0.130851  0.174221  0  3.709369  0
N  N146  1  0.60057506  0.33485240  0.24352825  1  -0.824129  0  -0.13082  0.174279  0  3.709411  0
N  N147  1  0.39942193  0.16514924  0.74352636  1  -0.823714  0  -0.130923  0.174225  0  3.709324  0
N  N148  1  0.35318246  0.77411536  0.74413154  1  -0.692147  0  -0.218076  -0.264435  0  3.117105  0
N  N149  1  0.64682061  0.72587988  0.24412952  1  -0.692227  0  -0.218124  -0.264393  0  3.117081  0
N  N150  1  0.64681514  0.22588361  0.25586855  1  -0.692097  0  -0.218097  -0.264475  0  3.117094  0
N  N151  1  0.35318293  0.27411808  0.75586865  1  -0.692171  0  -0.218079  -0.264444  0  3.117024  0
N  N152  1  0.21471600  0.63965325  0.82327100  1  -1.243847  0  -0.345378  -0.312343  0  3.547896  0
N  N153  1  0.78528469  0.86034121  0.32327052  1  -1.243971  0  -0.345442  -0.312372  0  3.547851  0
N  N154  1  0.78528135  0.36034780  0.17672909  1  -1.244177  0  -0.345337  -0.312313  0  3.54794  0
N  N155  1  0.21471608  0.13965777  0.67672813  1  -1.24402  0  -0.345478  -0.312515  0  3.547879  0
O  O156  1  0.17248423  0.96560054  0.54362775  1  -1.172741  0  -0.347394  -0.570027  0  2.290535  0
O  O157  1  0.82751683  0.53440334  0.04363184  1  -1.172751  0  -0.347471  -0.570108  0  2.290733  0
O  O158  1  0.82752264  0.03440055  0.45636946  1  -1.172713  0  -0.347474  -0.570082  0  2.290635  0
O  O159  1  0.17248026  0.46559980  0.95636873  1  -1.172601  0  -0.34743  -0.570023  0  2.290668  0
O  O160  1  0.06697330  0.82012435  0.62575710  1  -1.183232  0  -0.345077  -0.571883  0  2.097232  0
O  O161  1  0.93302301  0.67988084  0.12575937  1  -1.183283  0  -0.345138  -0.571957  0  2.097289  0
O  O162  1  0.93301810  0.17987772  0.37424060  1  -1.183228  0  -0.345081  -0.571859  0  2.097337  0
O  O163  1  0.06697831  0.32012231  0.87424167  1  -1.183228  0  -0.345099  -0.571804  0  2.097354  0
O  O164  1  0.05564691  0.33537127  0.61928284  1  -1.19341  0  -0.327003  -0.565339  0  2.151973  0
O  O165  1  0.94435294  0.16463515  0.11928319  1  -1.193442  0  -0.327069  -0.565449  0  2.151903  0
O  O166  1  0.94435225  0.66462355  0.38071630  1  -1.193179  0  -0.327037  -0.565342  0  2.151977  0
O  O167  1  0.05564762  0.83537424  0.88071642  1  -1.193415  0  -0.327036  -0.565375  0  2.151876  0
O  O168  1  0.17022383  0.26587378  0.53881984  1  -1.177839  0  -0.338649  -0.566763  0  2.289424  0
O  O169  1  0.82977296  0.23413026  0.03881976  1  -1.178183  0  -0.338677  -0.56687  0  2.289403  0
O  O170  1  0.82977135  0.73411894  0.46118025  1  -1.178039  0  -0.33862  -0.566771  0  2.289374  0
O  O171  1  0.17022932  0.76587810  0.96117985  1  -1.177894  0  -0.338586  -0.566762  0  2.289441  0
