# generated using pymatgen
data_NaAgH8C14S2(NO3)2
_symmetry_space_group_name_H-M   'P 1'
_cell_length_a   8.15313012
_cell_length_b   8.88590111
_cell_length_c   11.17983408
_cell_angle_alpha   100.19325970
_cell_angle_beta   99.38582354
_cell_angle_gamma   91.76895762
_symmetry_Int_Tables_number   1
_chemical_formula_structural   NaAgH8C14S2(NO3)2
_chemical_formula_sum   'Na2 Ag2 H16 C28 S4 N4 O12'
_cell_volume   785.01019176
_cell_formula_units_Z   2
loop_
 _symmetry_equiv_pos_site_id
 _symmetry_equiv_pos_as_xyz
  1  'x, y, z'
loop_
 _atom_site_type_symbol
 _atom_site_label
 _atom_site_symmetry_multiplicity
 _atom_site_fract_x
 _atom_site_fract_y
 _atom_site_fract_z
 _atom_site_occupancy
 _atom_site_pbe_bader_spin_density
 _atom_site_pbe_cm5_charge
 _atom_site_pbe_ddec_charge
 _atom_site_pbe_ddec_spin_density
 _atom_site_pbe_ddec_sum_bond_order
 _atom_site_pbe_magmom
Na  Na0  1  0.26588436  0.70671871  0.09799373  1  0  0.687892  0.879241  0  0.531782  0
Na  Na1  1  0.73411407  0.29328204  0.90200752  1  0  0.687906  0.879251  0  0.53178  0
Ag  Ag2  1  0.27427439  0.29926888  0.02015687  1  0  0.508654  0.47556  0  1.817109  0
Ag  Ag3  1  0.72573798  0.70073522  0.97984476  1  0  0.508713  0.475606  0  1.81715  0
H  H4  1  0.52969169  0.88894207  0.44119358  1  0  0.10682  0.105223  0  1.031306  0
H  H5  1  0.47029716  0.11104728  0.55881026  1  0  0.106857  0.10527  0  1.031279  0
H  H6  1  0.82043865  0.81787433  0.45846854  1  0  0.103322  0.103984  0  1.029291  0
H  H7  1  0.17955534  0.18211727  0.54153715  1  0  0.103281  0.103894  0  1.029217  0
H  H8  1  0.00050027  0.88466226  0.31089844  1  0  0.104289  0.10878  0  1.027575  0
H  H9  1  0.99949731  0.11532703  0.68910109  1  0  0.104335  0.108836  0  1.027597  0
H  H10  1  0.88882036  0.03157898  0.14881952  1  0  0.116139  0.123695  0  0.987086  0
H  H11  1  0.11116804  0.96842070  0.85118036  1  0  0.116105  0.123684  0  0.987023  0
H  H12  1  0.91963442  0.68972421  0.62480104  1  0  0.109257  0.12619  0  1.02455  0
H  H13  1  0.08036218  0.31026854  0.37519707  1  0  0.109294  0.126203  0  1.024573  0
H  H14  1  0.07282692  0.74767935  0.45850698  1  0  0.104778  0.1009  0  1.029427  0
H  H15  1  0.92717142  0.25232025  0.54149499  1  0  0.104733  0.100812  0  1.029435  0
H  H16  1  0.35902500  0.67338967  0.45373526  1  0  0.108983  0.105574  0  1.003135  0
H  H17  1  0.64097313  0.32662369  0.54626863  1  0  0.108968  0.105533  0  1.003163  0
H  H18  1  0.50729457  0.54007565  0.61669408  1  0  0.11124  0.115141  0  1.014531  0
H  H19  1  0.49271661  0.45994565  0.38330626  1  0  0.11126  0.115132  0  1.014563  0
C  C20  1  0.54912968  0.00478614  0.28754084  1  0  -0.011648  -0.119151  0  3.997962  0
C  C21  1  0.45086787  0.99520315  0.71246316  1  0  -0.011565  -0.11911  0  3.997858  0
C  C22  1  0.60697171  0.92190210  0.37826983  1  0  -0.077432  -0.077445  0  3.97002  0
C  C23  1  0.39302438  0.07808377  0.62172814  1  0  -0.077466  -0.0774  0  3.96994  0
C  C24  1  0.77222674  0.88061035  0.38635165  1  0  -0.08057  -0.063778  0  3.942056  0
C  C25  1  0.22777155  0.11937206  0.61365057  1  0  -0.080514  -0.063694  0  3.941996  0
C  C26  1  0.87278601  0.91876375  0.30464366  1  0  -0.080303  -0.070757  0  3.953697  0
C  C27  1  0.12720694  0.08123016  0.69535506  1  0  -0.080302  -0.070712  0  3.953597  0
C  C28  1  0.81106288  0.00005441  0.21223679  1  0  -0.070426  -0.080433  0  3.945962  0
C  C29  1  0.18893938  0.99993141  0.78776730  1  0  -0.070466  -0.080455  0  3.946192  0
C  C30  1  0.64768948  0.04357349  0.20530011  1  0  -0.00826  -0.042799  0  4.018294  0
C  C31  1  0.35230078  0.95641814  0.79470422  1  0  -0.008258  -0.042934  0  4.018774  0
C  C32  1  0.55680599  0.13371290  0.11835666  1  0  0.226884  0.511152  0  4.170715  0
C  C33  1  0.44319344  0.86628440  0.88164333  1  0  0.226914  0.511233  0  4.170566  0
C  C34  1  0.12964962  0.57674286  0.70661204  1  0  -0.008973  -0.099809  0  3.965684  0
C  C35  1  0.87035488  0.42325557  0.29338604  1  0  -0.008975  -0.099771  0  3.965442  0
C  C36  1  0.04600779  0.65524717  0.62091207  1  0  -0.077543  -0.076759  0  3.946209  0
C  C37  1  0.95399530  0.34474897  0.37908462  1  0  -0.07756  -0.076752  0  3.945968  0
C  C38  1  0.13273214  0.68832531  0.52942938  1  0  -0.076514  -0.06087  0  3.956319  0
C  C39  1  0.86726788  0.31168002  0.47057181  1  0  -0.076465  -0.060739  0  3.955942  0
C  C40  1  0.29584776  0.64569791  0.52652929  1  0  -0.076434  -0.067723  0  3.95663  0
C  C41  1  0.70414931  0.35431775  0.47347122  1  0  -0.076407  -0.067644  0  3.956694  0
C  C42  1  0.37844858  0.56894013  0.61543440  1  0  -0.073434  -0.071971  0  3.928324  0
C  C43  1  0.62155942  0.43107202  0.38456694  1  0  -0.073404  -0.071981  0  3.928589  0
C  C44  1  0.29277059  0.53377597  0.70571837  1  0  -0.010512  -0.045897  0  4.001833  0
C  C45  1  0.70723814  0.46622930  0.29428119  1  0  -0.010599  -0.045975  0  4.001971  0
C  C46  1  0.35491010  0.45379307  0.80948148  1  0  0.232114  0.517176  0  4.16558  0
C  C47  1  0.64509474  0.54620993  0.19051639  1  0  0.232195  0.517284  0  4.165435  0
S  S48  1  0.35064206  0.07837220  0.25074172  1  0  0.559522  1.121909  0  5.912719  0
S  S49  1  0.64935530  0.92163085  0.74925883  1  0  0.559501  1.121902  0  5.913046  0
S  S50  1  0.06133827  0.51410167  0.83281544  1  0  0.554756  1.135119  0  5.890081  0
S  S51  1  0.93866426  0.48590365  0.16718159  1  0  0.554699  1.135004  0  5.890108  0
N  N52  1  0.39773599  0.15930278  0.13869374  1  0  -0.425783  -0.59591  0  3.452036  0
N  N53  1  0.60227521  0.84070247  0.86130880  1  0  -0.425861  -0.596002  0  3.452027  0
N  N54  1  0.23524856  0.43782263  0.88103490  1  0  -0.429799  -0.61631  0  3.460097  0
N  N55  1  0.76475513  0.56218153  0.11896121  1  0  -0.429881  -0.616277  0  3.460097  0
O  O56  1  0.31312091  0.19181876  0.35159339  1  0  -0.306417  -0.533747  0  2.184701  0
O  O57  1  0.68688285  0.80818654  0.64840736  1  0  -0.306405  -0.533703  0  2.184776  0
O  O58  1  0.22473476  0.95200921  0.20487752  1  0  -0.367237  -0.583915  0  2.176723  0
O  O59  1  0.77524246  0.04800659  0.79511612  1  0  -0.367247  -0.583946  0  2.177052  0
O  O60  1  0.61781027  0.18243497  0.03681520  1  0  -0.37777  -0.562575  0  2.243007  0
O  O61  1  0.38219440  0.81754969  0.96318812  1  0  -0.37781  -0.562638  0  2.242902  0
O  O62  1  0.92199053  0.40028043  0.79090735  1  0  -0.358142  -0.58884  0  2.187483  0
O  O63  1  0.07801092  0.59972718  0.20909166  1  0  -0.358135  -0.588819  0  2.187578  0
O  O64  1  0.03214364  0.64334135  0.92629877  1  0  -0.357934  -0.607098  0  2.291646  0
O  O65  1  0.96785802  0.35666856  0.07369344  1  0  -0.357832  -0.607026  0  2.291638  0
O  O66  1  0.49736057  0.40775111  0.82847926  1  0  -0.359538  -0.563897  0  2.206899  0
O  O67  1  0.50263623  0.59224393  0.17151383  1  0  -0.359586  -0.564025  0  2.206884  0
