# generated using pymatgen
data_MnH3C5N2ClO2
_symmetry_space_group_name_H-M   'P 1'
_cell_length_a   6.83528544
_cell_length_b   15.28972488
_cell_length_c   15.28969014
_cell_angle_alpha   120.00200658
_cell_angle_beta   89.99923527
_cell_angle_gamma   90.00008562
_symmetry_Int_Tables_number   1
_chemical_formula_structural   MnH3C5N2ClO2
_chemical_formula_sum   'Mn6 H18 C30 N12 Cl6 O12'
_cell_volume   1383.81126034
_cell_formula_units_Z   6
loop_
 _symmetry_equiv_pos_site_id
 _symmetry_equiv_pos_as_xyz
  1  'x, y, z'
loop_
 _atom_site_type_symbol
 _atom_site_label
 _atom_site_symmetry_multiplicity
 _atom_site_fract_x
 _atom_site_fract_y
 _atom_site_fract_z
 _atom_site_occupancy
 _atom_site_hle17_ddec_charge
 _atom_site_hle17_ddec_spin_density
 _atom_site_hle17_ddec_sum_bond_order
 _atom_site_hle17_magmom
 _atom_site_hse06_10hf_bader_charge
 _atom_site_hse06_10hf_bader_spin_density
 _atom_site_hse06_10hf_ddec_charge
 _atom_site_hse06_10hf_ddec_spin_density
 _atom_site_hse06_10hf_ddec_sum_bond_order
 _atom_site_hse06_10hf_magmom
 _atom_site_hse06_ddec_charge
 _atom_site_hse06_ddec_spin_density
 _atom_site_hse06_ddec_sum_bond_order
 _atom_site_hse06_magmom
 _atom_site_pbe_cm5_charge
 _atom_site_pbe_ddec_charge
 _atom_site_pbe_ddec_spin_density
 _atom_site_pbe_ddec_sum_bond_order
 _atom_site_pbe_magmom
Mn  Mn0  1  0.50000431  0.00000338  0.37854414  1  0.979679  4.779072  2.013422  4.649  1.461189  4.586281  0.818306  4.699312  2.527411  4.503  0.875494  4.746693  2.464376  4.572  0.504327  0.774725  4.649635  2.573643  4.433
Mn  Mn1  1  0.49999299  0.62146907  0.62146916  1  0.979735  4.779227  2.013019  4.65  1.461308  4.586218  0.81831  4.699495  2.527063  4.503  0.875504  4.746858  2.464032  4.572  0.504367  0.774717  4.649847  2.573289  4.433
Mn  Mn2  1  0.50001338  0.37854230  0.00000883  1  0.97977  4.779145  2.013128  4.649  1.461305  4.586305  0.81839  4.699393  2.527087  4.503  0.875583  4.746767  2.464047  4.572  0.504378  0.774806  4.649724  2.573313  4.433
Mn  Mn3  1  0.50000238  0.99999705  0.62146712  1  0.979878  4.779149  2.013175  4.649  1.461065  4.586297  0.818433  4.699381  2.527293  4.503  0.875627  4.746766  2.464248  4.572  0.504426  0.774855  4.649703  2.573529  4.433
Mn  Mn4  1  0.50000200  0.37852682  0.37852740  1  0.979791  4.779214  2.013145  4.649  1.461418  4.586134  0.818361  4.699457  2.527272  4.503  0.875553  4.746836  2.464232  4.572  0.504351  0.774774  4.64978  2.573501  4.433
Mn  Mn5  1  0.49999917  0.62146870  0.99999202  1  0.979841  4.779173  2.013247  4.649  1.461161  4.586268  0.818349  4.699404  2.52747  4.503  0.875542  4.746792  2.464426  4.572  0.504327  0.774765  4.649716  2.573701  4.433
H  H6  1  0.87599298  0.25401646  0.50802774  1  0.126036  0.000431  0.938368  0.001  0.117909  0.001878  0.133847  0.000725  0.996608  0.001  0.137495  0.000466  0.995665  0.0  0.115562  0.131022  0.000991  0.997752  0.001
H  H7  1  0.87601330  0.49197339  0.74598555  1  0.126252  0.000434  0.938693  0.001  0.118196  0.001876  0.134063  0.000724  0.996864  0.001  0.137677  0.000465  0.995949  0.0  0.115645  0.131193  0.000989  0.998062  0.001
H  H8  1  0.87600853  0.25401616  0.74598271  1  0.126082  0.00042  0.938382  0.001  0.125102  0.001876  0.133881  0.000725  0.996631  0.001  0.137534  0.000466  0.995683  0.0  0.115584  0.131059  0.000991  0.997774  0.001
H  H9  1  0.12398169  0.50803308  0.25401304  1  0.126199  0.000436  0.938449  0.001  0.132707  0.001865  0.133956  0.000725  0.996707  0.001  0.137615  0.000466  0.995748  0.0  0.115616  0.131133  0.00099  0.997854  0.001
H  H10  1  0.12400055  0.74597868  0.49196387  1  0.126128  0.000426  0.938484  0.001  0.117716  0.001877  0.134  0.000725  0.996619  0.001  0.137594  0.000466  0.995729  0.0  0.115613  0.131149  0.00099  0.997797  0.001
H  H11  1  0.12399525  0.74598049  0.25401358  1  0.126128  0.000433  0.938381  0.001  0.125072  0.001876  0.13396  0.000725  0.996581  0.001  0.137593  0.000466  0.99565  0.0  0.115613  0.13113  0.00099  0.997737  0.001
H  H12  1  0.05291867  0.09307938  0.46887918  1  0.081559  -0.000236  0.960331  0.0  0.143023  0.001889  0.085842  0.000606  1.033695  0.0  0.088571  0.00026  1.030242  0.0  0.112633  0.083535  0.000985  1.036604  0.0
H  H13  1  0.05291857  0.53113636  0.62420497  1  0.081357  -0.000234  0.960107  0.0  0.140711  0.001896  0.085666  0.000608  1.03351  0.0  0.088367  0.000261  1.030089  0.0  0.112554  0.083357  0.000987  1.036418  0.0
H  H14  1  0.05292443  0.37580320  0.90693043  1  0.081424  -0.000246  0.960182  0.0  0.151384  0.001883  0.085734  0.000607  1.033581  0.0  0.088451  0.00026  1.030142  0.0  0.112567  0.083422  0.000986  1.036493  0.0
H  H15  1  0.94707031  0.46886946  0.09307076  1  0.081365  -0.00024  0.960283  0.0  0.143871  0.001884  0.085717  0.000608  1.033614  0.0  0.088437  0.000261  1.03017  0.0  0.112586  0.083404  0.000987  1.03653  0.0
H  H16  1  0.94708903  0.62420113  0.53113286  1  0.081374  -0.000236  0.960023  0.0  0.140709  0.001895  0.085675  0.000607  1.033422  0.0  0.088386  0.000261  1.029991  0.0  0.112556  0.083362  0.000986  1.036333  0.0
H  H17  1  0.94707713  0.90692836  0.37579576  1  0.08139  -0.000222  0.960319  0.0  0.151758  0.001881  0.085716  0.000607  1.033675  0.0  0.088442  0.00026  1.030228  0.0  0.11258  0.083408  0.000986  1.036586  0.0
H  H18  1  0.94708071  0.90692104  0.53113273  1  0.081328  -0.00023  0.960292  0.0  0.143955  0.001882  0.085649  0.000607  1.033667  0.0  0.088377  0.00026  1.030216  0.0  0.112581  0.083342  0.000986  1.036573  0.0
H  H19  1  0.94708374  0.46886708  0.37579407  1  0.08127  -0.000243  0.960124  0.0  0.143423  0.001879  0.085612  0.000607  1.033499  0.0  0.088335  0.000261  1.030053  0.0  0.112545  0.083302  0.000986  1.036407  0.0
H  H20  1  0.94707641  0.62420251  0.09306843  1  0.081457  -0.000237  0.960264  0.0  0.151974  0.001879  0.085739  0.000607  1.033661  0.0  0.088456  0.00026  1.030222  0.0  0.112595  0.08343  0.000985  1.036569  0.0
H  H21  1  0.05292322  0.53113776  0.90692820  1  0.081244  -0.000249  0.960213  0.0  0.144735  0.001879  0.085532  0.000607  1.033619  0.0  0.088259  0.000261  1.03017  0.0  0.112514  0.083224  0.000986  1.036525  0.0
H  H22  1  0.05291620  0.37578646  0.46886216  1  0.08142  -0.000233  0.960322  0.0  0.143583  0.001875  0.085702  0.000606  1.033713  0.0  0.08843  0.00026  1.03026  0.0  0.112602  0.083393  0.000985  1.036618  0.0
H  H23  1  0.05293396  0.09306527  0.62421013  1  0.081453  -0.000223  0.960458  0.0  0.152649  0.001872  0.085776  0.000606  1.033809  0.0  0.088468  0.00026  1.030394  0.0  0.112613  0.083466  0.000985  1.036723  0.0
C  C24  1  0.58675342  0.17453112  0.34907039  1  0.588125  0.003963  3.928678  0.004  1.67983  0.009762  0.540888  0.010552  4.222521  0.009  0.574254  0.00746  4.216721  0.007  0.224636  0.517903  0.013682  4.225159  0.011
C  C25  1  0.58675893  0.65093589  0.82545056  1  0.588149  0.00396  3.928858  0.004  1.685962  0.009752  0.540962  0.010552  4.222685  0.009  0.574329  0.00746  4.216883  0.007  0.224647  0.517979  0.013684  4.225325  0.011
C  C26  1  0.58675670  0.17454112  0.82547418  1  0.588327  0.003963  3.928612  0.004  1.702167  0.00975  0.541176  0.010554  4.222396  0.009  0.574545  0.007461  4.216592  0.007  0.224767  0.518191  0.013685  4.225037  0.011
C  C27  1  0.41323460  0.34906378  0.17452304  1  0.588219  0.003947  3.928924  0.004  1.679499  0.009757  0.541028  0.010548  4.222758  0.009  0.574393  0.007458  4.216954  0.007  0.224651  0.518043  0.013677  4.225399  0.011
C  C28  1  0.41324450  0.82546477  0.65092880  1  0.588308  0.00397  3.928429  0.004  1.679459  0.009762  0.541148  0.010552  4.222213  0.009  0.574514  0.00746  4.216411  0.007  0.224761  0.518165  0.013683  4.22485  0.011
C  C29  1  0.41325000  0.82547441  0.17454986  1  0.588095  0.003958  3.928758  0.004  1.702019  0.009749  0.540946  0.010553  4.222533  0.009  0.574312  0.007459  4.216732  0.007  0.224676  0.517959  0.013684  4.225174  0.011
C  C30  1  0.38300708  0.19769730  0.39539813  1  0.273974  0.007822  3.69791  0.008  1.141288  0.014913  0.255395  0.011914  3.94036  0.011  0.265994  0.009965  3.954865  0.01  0.262848  0.247515  0.015034  3.931359  0.014
C  C31  1  0.38302374  0.60461350  0.80230757  1  0.274211  0.007853  3.697132  0.008  1.131858  0.014946  0.255508  0.011926  3.939706  0.011  0.266108  0.009977  3.954199  0.01  0.262904  0.247623  0.015052  3.930718  0.014
C  C32  1  0.38301577  0.19769677  0.80230540  1  0.274075  0.007838  3.6976  0.008  1.109179  0.015045  0.255264  0.011919  3.940176  0.011  0.265864  0.009969  3.954678  0.01  0.262796  0.247381  0.015042  3.931179  0.014
C  C33  1  0.61698296  0.39538995  0.19769474  1  0.274072  0.007879  3.697288  0.008  1.141151  0.014924  0.255351  0.011925  3.939885  0.011  0.265953  0.009975  3.954379  0.01  0.262775  0.24747  0.015048  3.930891  0.014
C  C34  1  0.61698645  0.80230539  0.60460772  1  0.274209  0.007825  3.697087  0.008  1.137787  0.014935  0.255466  0.01192  3.939703  0.011  0.266068  0.00997  3.954195  0.01  0.262874  0.247584  0.015044  3.930714  0.014
C  C35  1  0.61697923  0.80230139  0.19769557  1  0.274312  0.007829  3.697372  0.008  1.1389  0.014935  0.255548  0.011921  3.939887  0.011  0.26615  0.009972  3.954383  0.01  0.262906  0.247666  0.015046  3.930895  0.014
C  C36  1  0.02284982  0.23823529  0.47647520  1  -0.133065  -0.006454  3.657147  -0.004  0.055536  -0.002439  -0.147208  -0.00371  3.910164  -0.002  -0.156694  -0.005454  3.928912  -0.003  -0.061559  -0.141596  -0.002531  3.899105  -0.002
C  C37  1  0.02282710  0.52352516  0.76176322  1  -0.133533  -0.006517  3.6564  -0.004  0.054821  -0.00244  -0.147633  -0.003712  3.909348  -0.002  -0.157066  -0.005464  3.928085  -0.003  -0.061795  -0.141992  -0.002529  3.898318  -0.002
C  C38  1  0.02285151  0.23823901  0.76176145  1  -0.133214  -0.006416  3.656524  -0.004  0.099972  -0.002482  -0.147336  -0.003712  3.909601  -0.002  -0.156821  -0.005456  3.92833  -0.003  -0.061605  -0.14173  -0.002529  3.898546  -0.002
C  C39  1  0.97715327  0.47647602  0.23823533  1  -0.133285  -0.00653  3.656762  -0.004  0.040283  -0.00243  -0.147366  -0.003713  3.909804  -0.002  -0.156854  -0.005462  3.928532  -0.003  -0.061606  -0.141759  -0.002532  3.89875  -0.002
C  C40  1  0.97716419  0.76175683  0.52351948  1  -0.133232  -0.006413  3.656827  -0.004  0.055888  -0.002439  -0.1474  -0.003711  3.909829  -0.002  -0.156822  -0.005456  3.928588  -0.003  -0.061643  -0.14177  -0.002528  3.898778  -0.002
C  C41  1  0.97715226  0.76175840  0.23823652  1  -0.133084  -0.006461  3.656583  -0.004  0.100185  -0.002481  -0.147273  -0.003712  3.909658  -0.002  -0.156733  -0.005459  3.9284  -0.003  -0.061586  -0.141661  -0.002529  3.898611  -0.002
C  C42  1  0.11970477  0.14957629  0.45470169  1  0.203376  0.007668  3.619412  0.007  0.506187  0.014381  0.166835  0.011302  3.871443  0.01  0.178221  0.009246  3.885516  0.008  0.084745  0.158617  0.014882  3.863016  0.012
C  C43  1  0.11973847  0.54531550  0.69488642  1  0.203595  0.007666  3.619886  0.007  0.508647  0.014352  0.166965  0.011289  3.87196  0.01  0.178354  0.009237  3.886052  0.008  0.084803  0.158764  0.01486  3.863501  0.012
C  C44  1  0.11972557  0.30511778  0.85042116  1  0.203506  0.007678  3.619796  0.007  0.46904  0.014413  0.166832  0.011294  3.871905  0.01  0.178219  0.009238  3.885998  0.008  0.084692  0.158624  0.014869  3.863464  0.012
C  C45  1  0.88026611  0.45468846  0.14957015  1  0.203621  0.007692  3.619794  0.008  0.506889  0.014372  0.166979  0.011299  3.87185  0.01  0.178361  0.009244  3.885939  0.008  0.084774  0.158771  0.014875  3.863411  0.012
C  C46  1  0.88027534  0.69488566  0.54530532  1  0.203389  0.007638  3.619973  0.007  0.507943  0.014354  0.166804  0.011289  3.872013  0.01  0.17819  0.009234  3.886096  0.008  0.084688  0.158605  0.014862  3.863551  0.012
C  C47  1  0.88027179  0.85042514  0.30511880  1  0.203537  0.007626  3.619859  0.007  0.469225  0.014413  0.166891  0.011294  3.871908  0.01  0.178268  0.00924  3.885989  0.008  0.084751  0.158684  0.014869  3.863469  0.012
C  C48  1  0.88027121  0.85042338  0.54530788  1  0.203629  0.007619  3.61986  0.007  0.506456  0.01437  0.166975  0.011294  3.871939  0.01  0.178352  0.009239  3.886009  0.008  0.084759  0.15877  0.014866  3.86349  0.012
C  C49  1  0.88027115  0.45468568  0.30510951  1  0.203584  0.007707  3.619822  0.008  0.508408  0.014362  0.166961  0.011297  3.87186  0.01  0.178341  0.009243  3.885951  0.008  0.08472  0.158754  0.014872  3.863419  0.012
C  C50  1  0.88027088  0.69488038  0.14957393  1  0.203427  0.007658  3.619889  0.007  0.468914  0.014413  0.166823  0.011293  3.871929  0.01  0.178208  0.00924  3.88601  0.008  0.084699  0.158617  0.014867  3.863488  0.012
C  C51  1  0.11973913  0.54531876  0.85043143  1  0.203751  0.007708  3.619766  0.008  0.50673  0.014361  0.16715  0.011289  3.871812  0.01  0.178522  0.009239  3.885891  0.008  0.084857  0.158946  0.014858  3.863362  0.012
C  C52  1  0.11970356  0.30511325  0.45469276  1  0.203461  0.007641  3.619583  0.007  0.50776  0.014371  0.166892  0.011303  3.87164  0.01  0.178279  0.009245  3.885714  0.008  0.084629  0.158678  0.014883  3.863201  0.012
C  C53  1  0.11972613  0.14956547  0.69488231  1  0.203571  0.007613  3.619579  0.007  0.469633  0.014417  0.166919  0.0113  3.871583  0.01  0.178328  0.009243  3.885676  0.008  0.084747  0.158708  0.014876  3.863148  0.012
N  N54  1  0.30037664  0.12964111  0.41453904  1  -0.343961  0.023257  3.199248  0.011  -1.309781  0.045131  -0.274366  0.028622  3.460722  0.012  -0.295353  0.024246  3.473943  0.009  -0.298063  -0.260024  0.032753  3.452672  0.015
N  N55  1  0.30034958  0.58546167  0.71510348  1  -0.344064  0.023241  3.200121  0.011  -1.312976  0.045199  -0.274372  0.028622  3.461601  0.012  -0.295356  0.024246  3.474821  0.009  -0.29805  -0.260029  0.032751  3.453542  0.015
N  N56  1  0.30036438  0.28490367  0.87036617  1  -0.344067  0.023242  3.199575  0.011  -1.281739  0.045047  -0.274278  0.028614  3.460991  0.012  -0.295262  0.02424  3.474212  0.009  -0.298032  -0.259936  0.032745  3.452933  0.015
N  N57  1  0.69962867  0.41453777  0.12963795  1  -0.344138  0.023239  3.199915  0.011  -1.310011  0.045143  -0.27443  0.028623  3.461404  0.012  -0.295417  0.024247  3.474622  0.009  -0.298096  -0.260086  0.032753  3.453351  0.015
N  N58  1  0.69964298  0.71509801  0.58545286  1  -0.343966  0.023263  3.199655  0.011  -1.312326  0.045195  -0.274272  0.028617  3.461109  0.012  -0.295255  0.024244  3.474334  0.009  -0.298012  -0.259925  0.032747  3.453045  0.015
N  N59  1  0.69963006  0.87035905  0.28490485  1  -0.344232  0.023265  3.199802  0.011  -1.31157  0.045161  -0.274449  0.028624  3.461192  0.012  -0.295433  0.024248  3.474414  0.009  -0.298107  -0.260107  0.032754  3.453141  0.015
N  N60  1  0.69963591  0.87036460  0.58546048  1  -0.344119  0.023283  3.199831  0.011  -1.306981  0.045127  -0.274382  0.028626  3.461292  0.012  -0.295363  0.024252  3.474514  0.009  -0.298076  -0.260042  0.032757  3.453246  0.015
N  N61  1  0.69963664  0.41453272  0.28489560  1  -0.343997  0.023217  3.199776  0.011  -1.312595  0.04521  -0.274299  0.028618  3.46125  0.012  -0.295282  0.024243  3.474469  0.009  -0.29801  -0.259956  0.032749  3.453195  0.015
N  N62  1  0.69963062  0.71508995  0.12963515  1  -0.344143  0.023265  3.199761  0.011  -1.311404  0.045164  -0.274343  0.028622  3.461119  0.012  -0.295325  0.024246  3.474333  0.009  -0.298064  -0.260004  0.032752  3.453066  0.015
N  N63  1  0.30035755  0.58546266  0.87036742  1  -0.344106  0.023252  3.200016  0.011  -1.307073  0.045135  -0.274388  0.028629  3.461475  0.012  -0.295368  0.024251  3.474694  0.009  -0.298136  -0.260052  0.032761  3.453429  0.015
N  N64  1  0.30038128  0.28489789  0.41454174  1  -0.344003  0.023272  3.199357  0.011  -1.312518  0.045203  -0.27437  0.028619  3.460811  0.012  -0.295356  0.024245  3.47403  0.009  -0.298021  -0.260026  0.03275  3.452755  0.015
N  N65  1  0.30038249  0.12963609  0.71509984  1  -0.344129  0.02327  3.199774  0.011  -1.31184  0.045167  -0.274291  0.028623  3.461131  0.012  -0.295275  0.024249  3.47434  0.009  -0.298033  -0.259949  0.032754  3.453076  0.015
Cl  Cl66  1  0.29527135  0.92668628  0.46334374  1  -0.580792  0.079568  1.00115  0.044  -0.742599  0.134798  -0.528016  0.108312  1.310352  0.053  -0.550909  0.094545  1.281963  0.044  -0.246555  -0.507987  0.120851  1.329825  0.062
Cl  Cl67  1  0.29526195  0.53665101  0.46333504  1  -0.5808  0.079555  1.001108  0.044  -0.742978  0.13471  -0.52802  0.108294  1.310319  0.053  -0.550911  0.094526  1.281932  0.044  -0.246565  -0.507992  0.120833  1.329792  0.062
Cl  Cl68  1  0.29526764  0.53665869  0.07331331  1  -0.580833  0.079561  1.001112  0.044  -0.742602  0.134784  -0.52805  0.108303  1.310316  0.053  -0.550944  0.094538  1.281934  0.044  -0.246577  -0.508027  0.120841  1.32979  0.062
Cl  Cl69  1  0.70474344  0.46335156  0.92667604  1  -0.580879  0.079555  1.001107  0.044  -0.742664  0.134781  -0.528086  0.108299  1.310274  0.053  -0.550978  0.094535  1.281888  0.044  -0.246587  -0.508042  0.120836  1.329708  0.062
Cl  Cl70  1  0.70472866  0.46333885  0.53665982  1  -0.580812  0.079555  1.001059  0.044  -0.743018  0.134713  -0.528013  0.108296  1.310235  0.053  -0.550903  0.094528  1.281848  0.044  -0.246572  -0.507992  0.120835  1.329704  0.062
Cl  Cl71  1  0.70473534  0.07331716  0.53665922  1  -0.580827  0.079571  1.001174  0.044  -0.742578  0.134794  -0.52804  0.108313  1.310365  0.053  -0.550932  0.094546  1.281981  0.044  -0.246572  -0.50801  0.120853  1.32984  0.062
O  O72  1  0.66291420  0.09230147  0.33276356  1  -0.567937  0.037078  2.017982  0.031  -1.196841  0.066035  -0.514923  0.045881  2.263178  0.037  -0.544262  0.039374  2.252519  0.031  -0.298931  -0.492929  0.052514  2.269548  0.043
O  O73  1  0.66292060  0.66723507  0.75954112  1  -0.567704  0.037058  2.018728  0.031  -1.193312  0.066031  -0.514681  0.045864  2.263901  0.037  -0.544009  0.03936  2.25324  0.031  -0.298777  -0.492695  0.052492  2.270272  0.043
O  O74  1  0.66292067  0.24046443  0.90769860  1  -0.567941  0.037073  2.018162  0.031  -1.202602  0.065949  -0.514943  0.045874  2.263332  0.037  -0.54428  0.039369  2.252669  0.031  -0.298908  -0.492949  0.052504  2.269701  0.043
O  O75  1  0.33709265  0.33276754  0.09230930  1  -0.567792  0.037068  2.018462  0.031  -1.197061  0.066023  -0.514784  0.045869  2.263645  0.037  -0.544115  0.039365  2.252983  0.031  -0.298834  -0.492797  0.0525  2.270016  0.043
O  O76  1  0.33707177  0.75954277  0.66723090  1  -0.568023  0.037069  2.017823  0.031  -1.193058  0.066048  -0.515008  0.045876  2.262985  0.037  -0.544346  0.039369  2.252321  0.031  -0.298947  -0.493009  0.052505  2.269352  0.043
O  O77  1  0.33707825  0.90769907  0.24046474  1  -0.567743  0.037068  2.018369  0.031  -1.20261  0.065947  -0.514748  0.04587  2.26352  0.037  -0.544079  0.039364  2.252862  0.031  -0.298832  -0.492758  0.052501  2.269888  0.043
O  O78  1  0.33708225  0.90769367  0.66723263  1  -0.567988  0.037071  2.017818  0.031  -1.196652  0.066019  -0.514979  0.045881  2.262988  0.037  -0.544318  0.039376  2.252327  0.031  -0.298933  -0.492983  0.052513  2.269355  0.043
O  O79  1  0.33707732  0.33275554  0.24044953  1  -0.568082  0.037081  2.017846  0.031  -1.193021  0.066053  -0.515054  0.04588  2.263013  0.037  -0.544397  0.039373  2.25235  0.031  -0.298929  -0.493056  0.052513  2.269382  0.043
O  O80  1  0.33706700  0.75953902  0.09230502  1  -0.568097  0.037087  2.017371  0.031  -1.202489  0.06595  -0.515094  0.045886  2.262541  0.037  -0.544441  0.039378  2.25188  0.031  -0.298983  -0.493092  0.05252  2.268907  0.043
O  O81  1  0.66293600  0.66724271  0.90769640  1  -0.568128  0.03709  2.017193  0.031  -1.196588  0.066042  -0.515095  0.045889  2.26236  0.037  -0.544443  0.039382  2.251699  0.031  -0.29898  -0.493094  0.052523  2.268725  0.043
O  O82  1  0.66291005  0.24045313  0.33276370  1  -0.567895  0.037073  2.017984  0.031  -1.193442  0.066053  -0.514854  0.045878  2.263176  0.037  -0.544194  0.039371  2.252514  0.031  -0.298892  -0.492859  0.05251  2.269544  0.043
O  O83  1  0.66291821  0.09230060  0.75954352  1  -0.568075  0.037079  2.01773  0.031  -1.202614  0.06595  -0.515078  0.045887  2.262905  0.037  -0.544423  0.039379  2.252243  0.031  -0.29897  -0.49308  0.052522  2.269276  0.043
