# generated using pymatgen
data_ZnH9C10N3O2
_symmetry_space_group_name_H-M   'P 1'
_cell_length_a   9.55657087
_cell_length_b   9.69060512
_cell_length_c   27.81947468
_cell_angle_alpha   90.00006731
_cell_angle_beta   89.99993572
_cell_angle_gamma   90.00003520
_symmetry_Int_Tables_number   1
_chemical_formula_structural   ZnH9C10N3O2
_chemical_formula_sum   'Zn8 H72 C80 N24 O16'
_cell_volume   2576.33246843
_cell_formula_units_Z   8
loop_
 _symmetry_equiv_pos_site_id
 _symmetry_equiv_pos_as_xyz
  1  'x, y, z'
loop_
 _atom_site_type_symbol
 _atom_site_label
 _atom_site_symmetry_multiplicity
 _atom_site_fract_x
 _atom_site_fract_y
 _atom_site_fract_z
 _atom_site_occupancy
 _atom_site_pbe_bader_charge
 _atom_site_pbe_bader_spin_density
 _atom_site_pbe_cm5_charge
 _atom_site_pbe_ddec_charge
 _atom_site_pbe_ddec_spin_density
 _atom_site_pbe_ddec_sum_bond_order
 _atom_site_pbe_magmom
Zn  Zn0  1  0.56125044  0.12060469  0.04859250  1  1.232809  0  0.717337  0.678249  0  2.53677  0
Zn  Zn1  1  0.43875097  0.62060507  0.45140792  1  1.232817  0  0.717337  0.678261  0  2.536708  0
Zn  Zn2  1  0.93875137  0.87939418  0.54859196  1  1.232817  0  0.717337  0.678269  0  2.536691  0
Zn  Zn3  1  0.06124960  0.37939382  0.95140804  1  1.232835  0  0.717341  0.678267  0  2.536725  0
Zn  Zn4  1  0.43874918  0.87939471  0.95140771  1  1.232815  0  0.717335  0.678252  0  2.536753  0
Zn  Zn5  1  0.56124970  0.37939433  0.54859228  1  1.232816  0  0.717333  0.678262  0  2.536714  0
Zn  Zn6  1  0.06124930  0.12060522  0.45140789  1  1.232817  0  0.717346  0.678294  0  2.536659  0
Zn  Zn7  1  0.93875002  0.62060558  0.04859217  1  1.232838  0  0.717371  0.678343  0  2.536667  0
H  H8  1  0.67698726  0.65553366  0.97025916  1  0.178872  0  0.145463  0.124292  0  0.981803  0
H  H9  1  0.32300939  0.15553514  0.52974038  1  0.178917  0  0.145466  0.124255  0  0.981854  0
H  H10  1  0.82300898  0.34446354  0.47025969  1  0.178923  0  0.145483  0.124296  0  0.981858  0
H  H11  1  0.17698943  0.84446543  0.02974010  1  0.178889  0  0.145476  0.124286  0  0.981846  0
H  H12  1  0.32301236  0.34446574  0.02974069  1  0.178882  0  0.145463  0.124268  0  0.981783  0
H  H13  1  0.67699023  0.84446529  0.47026018  1  0.178894  0  0.145482  0.124276  0  0.981832  0
H  H14  1  0.17699169  0.65553586  0.52974015  1  0.178874  0  0.145474  0.124273  0  0.981859  0
H  H15  1  0.82301124  0.15553500  0.97026011  1  0.178747  0  0.145481  0.124294  0  0.981843  0
H  H16  1  0.82535793  0.92321414  0.07808202  1  0.170221  0  0.146662  0.119675  0  0.983973  0
H  H17  1  0.17464158  0.42321479  0.42191744  1  0.170197  0  0.146644  0.119654  0  0.983958  0
H  H18  1  0.67464169  0.07678483  0.57808341  1  0.17012  0  0.146677  0.119741  0  0.983939  0
H  H19  1  0.32535805  0.57678504  0.92191718  1  0.170134  0  0.146689  0.119753  0  0.983925  0
H  H20  1  0.17464170  0.07678629  0.92191818  1  0.170222  0  0.146657  0.119682  0  0.98399  0
H  H21  1  0.82535804  0.57678461  0.57808277  1  0.170187  0  0.146681  0.119746  0  0.983947  0
H  H22  1  0.32535793  0.92321560  0.42191679  1  0.170113  0  0.14667  0.119757  0  0.983892  0
H  H23  1  0.67464158  0.42321436  0.07808303  1  0.170126  0  0.146674  0.119727  0  0.983968  0
H  H24  1  0.54605852  0.04293075  0.20328555  1  0.082376  0  0.101355  0.103717  0  1.025504  0
H  H25  1  0.45394180  0.54293165  0.29671447  1  0.082382  0  0.101359  0.103731  0  1.0255  0
H  H26  1  0.95394383  0.95707071  0.70328504  1  0.082362  0  0.101363  0.103753  0  1.025431  0
H  H27  1  0.04605719  0.45706673  0.79671499  1  0.082409  0  0.101329  0.103715  0  1.025455  0
H  H28  1  0.45394215  0.95706865  0.79671465  1  0.082374  0  0.101357  0.103719  0  1.025465  0
H  H29  1  0.54605782  0.45706775  0.70328538  1  0.082392  0  0.101362  0.103728  0  1.025473  0
H  H30  1  0.04605684  0.04292972  0.29671480  1  0.082363  0  0.101353  0.103717  0  1.025497  0
H  H31  1  0.95394243  0.54293370  0.20328522  1  0.082414  0  0.101329  0.103717  0  1.025455  0
H  H32  1  0.48760750  0.06278929  0.28973472  1  0.041053  0  0.097948  0.101433  0  1.019472  0
H  H33  1  0.51239283  0.56278993  0.21026531  1  0.041057  0  0.097956  0.101426  0  1.019462  0
H  H34  1  0.01239047  0.93721113  0.78973509  1  0.041056  0  0.097942  0.10142  0  1.019444  0
H  H35  1  0.98760636  0.43720949  0.71026565  1  0.041086  0  0.097966  0.101439  0  1.019464  0
H  H36  1  0.51239212  0.93721011  0.71026512  1  0.041051  0  0.097948  0.101436  0  1.019474  0
H  H37  1  0.48760784  0.43720947  0.78973489  1  0.041058  0  0.09794  0.101371  0  1.019466  0
H  H38  1  0.98761020  0.06279034  0.21026512  1  0.041063  0  0.097942  0.10141  0  1.019469  0
H  H39  1  0.01239327  0.56279197  0.28973456  1  0.041085  0  0.097967  0.101403  0  1.019445  0
H  H40  1  0.23072891  0.41784025  0.25864224  1  0.08859  0  0.096542  0.09791  0  1.03294  0
H  H41  1  0.76927268  0.91784116  0.24135794  1  0.088575  0  0.09653  0.097914  0  1.032922  0
H  H42  1  0.26927021  0.58216005  0.75864272  1  0.088602  0  0.096538  0.097884  0  1.03297  0
H  H43  1  0.73072535  0.08215836  0.74135787  1  0.08855  0  0.096524  0.09788  0  1.032916  0
H  H44  1  0.76927071  0.58215914  0.74135761  1  0.088592  0  0.096545  0.097899  0  1.032931  0
H  H45  1  0.23072694  0.08215824  0.75864226  1  0.088566  0  0.096527  0.097894  0  1.032932  0
H  H46  1  0.73072942  0.41784038  0.24135749  1  0.088598  0  0.096545  0.097895  0  1.032935  0
H  H47  1  0.26927427  0.91784207  0.25864197  1  0.088547  0  0.096519  0.097905  0  1.032911  0
H  H48  1  0.29755322  0.40216412  0.17253132  1  0.100433  0  0.10203  0.105413  0  1.002496  0
H  H49  1  0.70244836  0.90216424  0.32746885  1  0.100417  0  0.102036  0.105412  0  1.00253  0
H  H50  1  0.20244931  0.59783796  0.67253147  1  0.100441  0  0.102047  0.105452  0  1.002504  0
H  H51  1  0.79755044  0.09783557  0.82746912  1  0.100398  0  0.102018  0.105406  0  1.002528  0
H  H52  1  0.70244640  0.59783631  0.82746852  1  0.100453  0  0.102039  0.105421  0  1.002501  0
H  H53  1  0.29755126  0.09783516  0.67253099  1  0.100408  0  0.102028  0.105383  0  1.002538  0
H  H54  1  0.79755135  0.40216247  0.32746873  1  0.100432  0  0.10204  0.10542  0  1.002516  0
H  H55  1  0.20245023  0.90216383  0.17253108  1  0.100396  0  0.102038  0.105431  0  1.002543  0
H  H56  1  0.41150905  0.30615085  0.35238514  1  0.053765  0  0.091587  0.135255  0  0.995997  0
H  H57  1  0.58849143  0.80615029  0.14761499  1  0.05377  0  0.091591  0.135253  0  0.995997  0
H  H58  1  0.08848976  0.69384874  0.85238538  1  0.053735  0  0.09158  0.135243  0  0.995999  0
H  H59  1  0.91150796  0.19384788  0.64761562  1  0.05378  0  0.091605  0.135262  0  0.996029  0
H  H60  1  0.58849057  0.69384958  0.64761470  1  0.053749  0  0.091589  0.135241  0  0.995989  0
H  H61  1  0.41150819  0.19385014  0.85238522  1  0.053768  0  0.091593  0.135254  0  0.995999  0
H  H62  1  0.91150986  0.30615169  0.14761447  1  0.05374  0  0.091587  0.135257  0  0.995966  0
H  H63  1  0.08849166  0.80615255  0.35238459  1  0.053755  0  0.091604  0.135265  0  0.995973  0
H  H64  1  0.30352257  0.15687427  0.34991312  1  0.054903  0  0.087592  0.125551  0  1.009174  0
H  H65  1  0.69647781  0.65687482  0.15008695  1  0.054908  0  0.087593  0.125567  0  1.009168  0
H  H66  1  0.19647624  0.84312531  0.84991338  1  0.054912  0  0.087606  0.125556  0  1.009192  0
H  H67  1  0.80352261  0.34312439  0.65008696  1  0.054924  0  0.087606  0.125582  0  1.009181  0
H  H68  1  0.69647600  0.84312513  0.65008672  1  0.054912  0  0.087603  0.125557  0  1.009184  0
H  H69  1  0.30352181  0.34312561  0.84991290  1  0.054906  0  0.087594  0.125566  0  1.00916  0
H  H70  1  0.80352442  0.15687512  0.15008682  1  0.054923  0  0.087616  0.125576  0  1.00917  0
H  H71  1  0.19647701  0.65687604  0.34991325  1  0.054943  0  0.087618  0.125578  0  1.00917  0
H  H72  1  0.23097256  0.32261001  0.33876019  1  0.056797  0  0.088027  0.122357  0  1.023092  0
H  H73  1  0.76902793  0.82261064  0.16123995  1  0.056785  0  0.088024  0.122345  0  1.023083  0
H  H74  1  0.26902629  0.67738953  0.83875999  1  0.056824  0  0.088043  0.122374  0  1.023095  0
H  H75  1  0.73097142  0.17738861  0.66124028  1  0.056778  0  0.088021  0.122353  0  1.023083  0
H  H76  1  0.76902602  0.67738939  0.66123965  1  0.056808  0  0.088037  0.122356  0  1.023098  0
H  H77  1  0.23097169  0.17738979  0.83876026  1  0.056796  0  0.088026  0.122353  0  1.023093  0
H  H78  1  0.73097438  0.32261089  0.16124021  1  0.056835  0  0.08804  0.122371  0  1.023098  0
H  H79  1  0.26902821  0.82261182  0.33875993  1  0.05678  0  0.088033  0.122353  0  1.023083  0
C  C80  1  0.68914642  0.74131266  0.99500119  1  0.984633  0  0.155765  0.152652  0  3.939627  0
C  C81  1  0.31085133  0.24131405  0.50499838  1  0.984665  0  0.155797  0.152741  0  3.939718  0
C  C82  1  0.81085078  0.25868565  0.49500134  1  0.984614  0  0.155776  0.152679  0  3.939703  0
C  C83  1  0.18914757  0.75868643  0.00499806  1  0.98465  0  0.155756  0.152673  0  3.939752  0
C  C84  1  0.31085321  0.25868777  0.00499829  1  0.984633  0  0.155765  0.152713  0  3.939605  0
C  C85  1  0.68914829  0.75868638  0.49500182  1  0.984643  0  0.155786  0.152715  0  3.939695  0
C  C86  1  0.18914988  0.74131478  0.50499815  1  0.984695  0  0.155795  0.152723  0  3.939715  0
C  C87  1  0.81085205  0.24131296  0.99500215  1  0.984782  0  0.155747  0.152653  0  3.939788  0
C  C88  1  0.76254359  0.87924262  0.04942189  1  0.994635  0  0.16018  0.163073  0  3.924646  0
C  C89  1  0.23745694  0.37924443  0.45057756  1  0.994629  0  0.160157  0.163066  0  3.924708  0
C  C90  1  0.73745717  0.12075625  0.54942291  1  0.994696  0  0.160096  0.162969  0  3.924674  0
C  C91  1  0.26254259  0.62075652  0.95057734  1  0.994682  0  0.160105  0.163027  0  3.924622  0
C  C92  1  0.23745708  0.12075678  0.95057796  1  0.994632  0  0.160154  0.16301  0  3.92466  0
C  C93  1  0.76254373  0.62075496  0.54942265  1  0.994612  0  0.160098  0.162953  0  3.924659  0
C  C94  1  0.26254350  0.87924521  0.45057693  1  0.994675  0  0.160076  0.162918  0  3.924627  0
C  C95  1  0.73745703  0.37924391  0.04942287  1  0.994668  0  0.160089  0.163004  0  3.924697  0
C  C96  1  0.46923720  0.21398494  0.13106174  1  1.501086  0  0.193184  0.562489  0  4.216678  0
C  C97  1  0.53076531  0.71398509  0.36893871  1  1.50109  0  0.193212  0.562515  0  4.216659  0
C  C98  1  0.03076547  0.78601597  0.63106132  1  1.501107  0  0.19324  0.562559  0  4.216534  0
C  C99  1  0.96923544  0.28601383  0.86893900  1  1.501097  0  0.193204  0.562524  0  4.216677  0
C  C100  1  0.53076451  0.78601549  0.86893847  1  1.501092  0  0.19319  0.562513  0  4.216584  0
C  C101  1  0.46923640  0.28601431  0.63106113  1  1.501105  0  0.193195  0.562522  0  4.216703  0
C  C102  1  0.96923520  0.21398446  0.36893853  1  1.501094  0  0.193191  0.56252  0  4.216596  0
C  C103  1  0.03076418  0.71398557  0.13106121  1  1.500989  0  0.193149  0.562462  0  4.216587  0
C  C104  1  0.42748051  0.22243959  0.18250089  1  -0.03793  0  -0.028694  -0.05811  0  4.013189  0
C  C105  1  0.57251992  0.72243960  0.31749956  1  -0.037903  0  -0.028627  -0.058051  0  4.013171  0
C  C106  1  0.07252095  0.77756252  0.68250081  1  -0.037884  0  -0.028651  -0.058189  0  4.013308  0
C  C107  1  0.92747891  0.27756018  0.81749986  1  -0.037923  0  -0.028641  -0.058065  0  4.013219  0
C  C108  1  0.57251911  0.77756084  0.81749931  1  -0.037926  0  -0.028639  -0.058141  0  4.0132  0
C  C109  1  0.42748075  0.27755980  0.68250064  1  -0.037905  0  -0.028682  -0.058103  0  4.013171  0
C  C110  1  0.92747972  0.22243688  0.31749939  1  -0.037909  0  -0.028637  -0.058201  0  4.013314  0
C  C111  1  0.07252175  0.72243922  0.18250035  1  -0.037916  0  -0.028643  -0.058083  0  4.013237  0
C  C112  1  0.47853430  0.12596581  0.21578546  1  0.019915  0  -0.082652  -0.078067  0  3.976266  0
C  C113  1  0.52146606  0.62596568  0.28421460  1  0.019921  0  -0.082696  -0.078142  0  3.976344  0
C  C114  1  0.02146809  0.87403641  0.71578508  1  0.019913  0  -0.082667  -0.078099  0  3.976302  0
C  C115  1  0.97853078  0.37403296  0.78421491  1  0.019848  0  -0.082614  -0.078138  0  3.976254  0
C  C116  1  0.52146532  0.87403462  0.78421474  1  0.019903  0  -0.082646  -0.07801  0  3.976197  0
C  C117  1  0.47853356  0.37403372  0.71578525  1  0.019831  0  -0.082663  -0.078113  0  3.976254  0
C  C118  1  0.97853258  0.12596401  0.28421477  1  0.019915  0  -0.082637  -0.078025  0  3.976321  0
C  C119  1  0.02146884  0.62596747  0.21578529  1  0.019845  0  -0.08262  -0.078138  0  3.976222  0
C  C120  1  0.44461306  0.13735320  0.26424900  1  -0.059133  0  -0.094828  -0.155102  0  3.97341  0
C  C121  1  0.55538731  0.63735292  0.23575106  1  -0.059122  0  -0.09484  -0.155055  0  3.973377  0
C  C122  1  0.05538603  0.86264816  0.76424896  1  -0.059139  0  -0.094833  -0.155061  0  3.973336  0
C  C123  1  0.94460970  0.36264658  0.73575139  1  -0.059015  0  -0.094847  -0.154988  0  3.973415  0
C  C124  1  0.55538656  0.86264723  0.73575120  1  -0.059122  0  -0.09484  -0.155119  0  3.973412  0
C  C125  1  0.44461231  0.36264648  0.76424914  1  -0.05902  0  -0.094846  -0.154992  0  3.973358  0
C  C126  1  0.94461463  0.13735227  0.23575088  1  -0.059145  0  -0.094835  -0.155061  0  3.973371  0
C  C127  1  0.05538888  0.63735488  0.26424882  1  -0.059007  0  -0.094893  -0.155006  0  3.973402  0
C  C128  1  0.35631152  0.24320521  0.28059874  1  -0.01126  0  -0.002083  0.180647  0  3.961968  0
C  C129  1  0.64368996  0.74320596  0.21940137  1  -0.011241  0  -0.002121  0.180529  0  3.961914  0
C  C130  1  0.14368752  0.75679414  0.78059934  1  -0.01126  0  -0.002076  0.180628  0  3.962042  0
C  C131  1  0.85630814  0.25679349  0.71940168  1  -0.011242  0  -0.002155  0.180429  0  3.962076  0
C  C132  1  0.64368810  0.75679419  0.71940111  1  -0.01125  0  -0.002153  0.180493  0  3.961974  0
C  C133  1  0.35631070  0.25679344  0.78059884  1  -0.011257  0  -0.002129  0.180478  0  3.962061  0
C  C134  1  0.85631210  0.24320629  0.21940051  1  -0.011259  0  -0.002131  0.18052  0  3.962018  0
C  C135  1  0.14369148  0.74320798  0.28059852  1  -0.011255  0  -0.002091  0.180531  0  3.962122  0
C  C136  1  0.30203795  0.33664512  0.24683465  1  -0.085511  0  -0.093447  -0.147163  0  3.965239  0
C  C137  1  0.69796254  0.83664602  0.25316585  1  -0.085503  0  -0.093429  -0.147113  0  3.965247  0
C  C138  1  0.19796120  0.66335618  0.74683483  1  -0.085498  0  -0.093399  -0.147062  0  3.965312  0
C  C139  1  0.80203441  0.16335457  0.75316615  1  -0.08551  0  -0.093336  -0.146901  0  3.965197  0
C  C140  1  0.69796167  0.66335531  0.75316555  1  -0.085551  0  -0.093392  -0.147035  0  3.965196  0
C  C141  1  0.30203708  0.16335441  0.74683435  1  -0.085556  0  -0.093399  -0.147057  0  3.965218  0
C  C142  1  0.80203842  0.33664425  0.25316573  1  -0.085481  0  -0.093401  -0.147053  0  3.965244  0
C  C143  1  0.19796521  0.83664586  0.24683405  1  -0.085514  0  -0.093415  -0.147117  0  3.965241  0
C  C144  1  0.33849985  0.32798099  0.19845199  1  -0.074086  0  -0.084811  -0.089234  0  3.992175  0
C  C145  1  0.66150168  0.82798203  0.30154779  1  -0.074111  0  -0.084808  -0.089227  0  3.992331  0
C  C146  1  0.16150260  0.67202015  0.69845219  1  -0.074123  0  -0.084872  -0.089283  0  3.992302  0
C  C147  1  0.83849615  0.17201873  0.80154844  1  -0.074123  0  -0.084847  -0.089312  0  3.992349  0
C  C148  1  0.66149977  0.67201841  0.80154786  1  -0.074063  0  -0.08481  -0.089213  0  3.99225  0
C  C149  1  0.33849898  0.17201737  0.69845205  1  -0.074044  0  -0.084768  -0.089154  0  3.992257  0
C  C150  1  0.83849702  0.32798028  0.30154802  1  -0.0741  0  -0.084845  -0.089186  0  3.992266  0
C  C151  1  0.16150451  0.82798170  0.19845141  1  -0.074124  0  -0.084835  -0.089231  0  3.992291  0
C  C152  1  0.32351202  0.25765330  0.33316876  1  -0.098258  0  -0.241826  -0.418969  0  3.974057  0
C  C153  1  0.67648843  0.75765390  0.16683100  1  -0.098262  0  -0.241842  -0.418967  0  3.974043  0
C  C154  1  0.17648581  0.74234623  0.83316898  1  -0.098275  0  -0.241871  -0.418998  0  3.974089  0
C  C155  1  0.82351194  0.24234537  0.66683132  1  -0.098266  0  -0.24188  -0.41902  0  3.974057  0
C  C156  1  0.67648656  0.74234610  0.66683109  1  -0.098267  0  -0.241862  -0.418946  0  3.974063  0
C  C157  1  0.32351328  0.24234653  0.83316885  1  -0.098265  0  -0.241847  -0.418976  0  3.974087  0
C  C158  1  0.82351382  0.25765420  0.16683123  1  -0.098294  0  -0.241885  -0.419012  0  3.974065  0
C  C159  1  0.17648663  0.75765609  0.33316853  1  -0.098268  0  -0.241888  -0.418991  0  3.974022  0
N  N160  1  0.65171204  0.93898908  0.02932125  1  -0.795514  0  -0.252605  -0.189313  0  3.508097  0
N  N161  1  0.34828643  0.43899000  0.47067821  1  -0.795584  0  -0.25259  -0.189332  0  3.508204  0
N  N162  1  0.84828669  0.06100972  0.52932185  1  -0.795576  0  -0.252606  -0.189367  0  3.508199  0
N  N163  1  0.15171199  0.56100999  0.97067801  1  -0.795595  0  -0.252629  -0.189428  0  3.50824  0
N  N164  1  0.34828758  0.06101032  0.97067895  1  -0.79556  0  -0.252649  -0.18936  0  3.508084  0
N  N165  1  0.65171320  0.56100940  0.52932127  1  -0.79557  0  -0.252622  -0.189363  0  3.508245  0
N  N166  1  0.15171293  0.93898967  0.47067799  1  -0.795582  0  -0.25259  -0.189326  0  3.508182  0
N  N167  1  0.84828658  0.43898941  0.02932183  1  -0.795569  0  -0.252606  -0.189391  0  3.508234  0
N  N168  1  0.60504202  0.85065875  0.99430855  1  -0.783302  0  -0.254579  -0.183071  0  3.538569  0
N  N169  1  0.39495685  0.35066019  0.50569107  1  -0.78327  0  -0.254584  -0.183082  0  3.538564  0
N  N170  1  0.89495623  0.14933956  0.49430898  1  -0.783264  0  -0.254561  -0.183039  0  3.538551  0
N  N171  1  0.10504205  0.64933926  0.00569073  1  -0.783264  0  -0.254576  -0.183034  0  3.538601  0
N  N172  1  0.39495865  0.14934168  0.00569129  1  -0.783292  0  -0.254537  -0.183044  0  3.538455  0
N  N173  1  0.60504277  0.64933921  0.49430878  1  -0.783285  0  -0.254554  -0.183037  0  3.538597  0
N  N174  1  0.10504339  0.85066087  0.50569087  1  -0.783276  0  -0.254557  -0.183033  0  3.538517  0
N  N175  1  0.89495757  0.35066013  0.99430911  1  -0.783262  0  -0.254584  -0.183031  0  3.538615  0
N  N176  1  0.78909704  0.75519874  0.02909257  1  -1.256588  0  -0.356973  -0.313065  0  3.576983  0
N  N177  1  0.21090131  0.25520061  0.47090682  1  -1.256613  0  -0.356981  -0.31307  0  3.577061  0
N  N178  1  0.71090169  0.24480006  0.52909330  1  -1.256576  0  -0.356939  -0.313019  0  3.576952  0
N  N179  1  0.28909710  0.74480145  0.97090628  1  -1.256565  0  -0.356909  -0.313044  0  3.577025  0
N  N180  1  0.21090258  0.24480169  0.97090763  1  -1.256597  0  -0.356933  -0.312998  0  3.57697  0
N  N181  1  0.78909831  0.74480085  0.52909339  1  -1.256548  0  -0.356956  -0.313038  0  3.576972  0
N  N182  1  0.28909897  0.75520037  0.47090655  1  -1.256576  0  -0.356961  -0.313063  0  3.576982  0
N  N183  1  0.71090356  0.25519898  0.02909356  1  -1.25656  0  -0.356905  -0.313039  0  3.577057  0
O  O184  1  0.52439086  0.09720584  0.11702981  1  -1.158351  0  -0.347853  -0.554157  0  2.292928  0
O  O185  1  0.47561053  0.59720601  0.38297024  1  -1.15833  0  -0.347846  -0.554138  0  2.292896  0
O  O186  1  0.97560967  0.90279532  0.61702962  1  -1.158356  0  -0.34787  -0.554168  0  2.292882  0
O  O187  1  0.02439027  0.40279265  0.88297038  1  -1.158312  0  -0.347848  -0.554146  0  2.292854  0
O  O188  1  0.47560980  0.90279458  0.88297040  1  -1.158349  0  -0.347859  -0.554162  0  2.292866  0
O  O189  1  0.52439118  0.40279338  0.61702961  1  -1.158336  0  -0.347862  -0.554176  0  2.292861  0
O  O190  1  0.02439099  0.09720511  0.38297058  1  -1.158351  0  -0.347845  -0.55415  0  2.292836  0
O  O191  1  0.97560935  0.59720675  0.11702946  1  -1.158329  0  -0.347874  -0.554181  0  2.292828  0
O  O192  1  0.45384682  0.31449460  0.10273736  1  -1.200163  0  -0.343328  -0.586492  0  2.11191  0
O  O193  1  0.54615575  0.81449486  0.39726314  1  -1.200186  0  -0.343346  -0.586515  0  2.111919  0
O  O194  1  0.04615490  0.68550518  0.60273689  1  -1.200166  0  -0.343367  -0.586527  0  2.111897  0
O  O195  1  0.95384595  0.18550415  0.89726338  1  -1.200236  0  -0.343351  -0.586521  0  2.111987  0
O  O196  1  0.54615489  0.68550479  0.89726284  1  -1.200157  0  -0.343351  -0.58651  0  2.111863  0
O  O197  1  0.45384596  0.18550453  0.60273707  1  -1.200195  0  -0.343323  -0.586504  0  2.112037  0
O  O198  1  0.95384472  0.31449422  0.39726295  1  -1.200159  0  -0.343351  -0.58652  0  2.111932  0
O  O199  1  0.04615367  0.81449525  0.10273646  1  -1.200103  0  -0.343278  -0.586448  0  2.111893  0
