# generated using pymatgen
data_GdCrH4C6NO6
_symmetry_space_group_name_H-M   'P 1'
_cell_length_a   6.67043228
_cell_length_b   7.08497596
_cell_length_c   19.14870016
_cell_angle_alpha   89.99993636
_cell_angle_beta   89.99998426
_cell_angle_gamma   89.99993748
_symmetry_Int_Tables_number   1
_chemical_formula_structural   GdCrH4C6NO6
_chemical_formula_sum   'Gd4 Cr4 H16 C24 N4 O24'
_cell_volume   904.96474105
_cell_formula_units_Z   4
loop_
 _symmetry_equiv_pos_site_id
 _symmetry_equiv_pos_as_xyz
  1  'x, y, z'
loop_
 _atom_site_type_symbol
 _atom_site_label
 _atom_site_symmetry_multiplicity
 _atom_site_fract_x
 _atom_site_fract_y
 _atom_site_fract_z
 _atom_site_occupancy
 _atom_site_hle17_bader_spin_density
 _atom_site_hle17_ddec_charge
 _atom_site_hle17_ddec_spin_density
 _atom_site_hle17_ddec_sum_bond_order
 _atom_site_hle17_magmom
 _atom_site_hse06_10hf_bader_spin_density
 _atom_site_hse06_10hf_ddec_charge
 _atom_site_hse06_10hf_ddec_spin_density
 _atom_site_hse06_10hf_ddec_sum_bond_order
 _atom_site_hse06_10hf_magmom
 _atom_site_hse06_bader_spin_density
 _atom_site_hse06_ddec_charge
 _atom_site_hse06_ddec_spin_density
 _atom_site_hse06_ddec_sum_bond_order
 _atom_site_hse06_magmom
 _atom_site_pbe_bader_spin_density
 _atom_site_pbe_cm5_charge
 _atom_site_pbe_ddec_charge
 _atom_site_pbe_ddec_spin_density
 _atom_site_pbe_ddec_sum_bond_order
 _atom_site_pbe_magmom
Gd  Gd0  1  0.38303469  0.64094307  0.22401401  1  0  2.243268  0  1.843675  0  0  2.169562  0  2.219583  0  0  2.23199  0  2.153213  0  0  1.450928  2.122242  0  2.270944  0
Gd  Gd1  1  0.11696494  0.35905723  0.72401408  1  0  2.243266  0  1.843694  0  0  2.169588  0  2.219551  0  0  2.231973  0  2.153254  0  0  1.450922  2.122249  0  2.270946  0
Gd  Gd2  1  0.61696732  0.14094399  0.27598578  1  0  2.243211  0  1.84381  0  0  2.169551  0  2.219627  0  0  2.231991  0  2.153234  0  0  1.450951  2.122259  0  2.270926  0
Gd  Gd3  1  0.88303192  0.85905704  0.77598561  1  0  2.24323  0  1.843784  0  0  2.169583  0  2.2196  0  0  2.232032  0  2.153185  0  0  1.450944  2.122283  0  2.270919  0
Cr  Cr4  1  0.82996373  0.62062652  0.27948147  1  0  1.859511  0  3.534682  0  0  1.927681  0  3.988812  0  0  2.009352  0  3.967974  0  0  1.347319  1.871044  0  4.005625  0
Cr  Cr5  1  0.67003700  0.37937309  0.77948152  1  0  1.859527  0  3.534606  0  0  1.927712  0  3.988746  0  0  2.009372  0  3.967923  0  0  1.347332  1.871073  0  4.005555  0
Cr  Cr6  1  0.17003530  0.12062667  0.22051990  1  0  1.859591  0  3.53459  0  0  1.927693  0  3.988797  0  0  2.009346  0  3.967982  0  0  1.347342  1.871041  0  4.005633  0
Cr  Cr7  1  0.32996583  0.87937223  0.72052025  1  0  1.859536  0  3.534652  0  0  1.927656  0  3.988851  0  0  2.00931  0  3.968034  0  0  1.3473  1.87101  0  4.005652  0
H  H8  1  0.39800512  0.33035375  0.95456706  1  0  0.126864  0  0.944313  0  0  0.13711  0  1.001137  0  0  0.14062  0  1.000126  0  0  0.113257  0.134589  0  1.002023  0
H  H9  1  0.10199582  0.66964727  0.45456700  1  0  0.126868  0  0.944298  0  0  0.137111  0  1.001122  0  0  0.140621  0  1.000112  0  0  0.11326  0.13459  0  1.002008  0
H  H10  1  0.60199627  0.83035455  0.54543212  1  0  0.126857  0  0.944346  0  0  0.137114  0  1.001146  0  0  0.140622  0  1.000138  0  0  0.113274  0.134593  0  1.002034  0
H  H11  1  0.89800315  0.16964577  0.04543225  1  0  0.126876  0  0.944324  0  0  0.137116  0  1.001142  0  0  0.140625  0  1.000132  0  0  0.113267  0.134596  0  1.002028  0
H  H12  1  0.98908987  0.70889092  0.11623537  1  0  0.092156  0  0.945948  0  0  0.100457  0  1.008029  0  0  0.103522  0  1.00527  0  0  0.123884  0.098212  0  1.010108  0
H  H13  1  0.51091100  0.29110918  0.61623496  1  0  0.092159  0  0.945956  0  0  0.100451  0  1.008037  0  0  0.103521  0  1.005281  0  0  0.123876  0.098206  0  1.010118  0
H  H14  1  0.01091206  0.20889074  0.38376386  1  0  0.092129  0  0.945945  0  0  0.100432  0  1.008028  0  0  0.103495  0  1.005269  0  0  0.123868  0.098188  0  1.010105  0
H  H15  1  0.48908893  0.79110908  0.88376424  1  0  0.092146  0  0.945918  0  0  0.100453  0  1.007998  0  0  0.103516  0  1.005239  0  0  0.123887  0.098209  0  1.010076  0
H  H16  1  0.89765167  0.70288399  0.98921474  1  0  0.108672  0  0.983504  0  0  0.116295  0  1.04666  0  0  0.118351  0  1.048439  0  0  0.108669  0.114794  0  1.045616  0
H  H17  1  0.60234890  0.29711641  0.48921484  1  0  0.108665  0  0.983507  0  0  0.116288  0  1.046664  0  0  0.118343  0  1.048447  0  0  0.108666  0.114787  0  1.045619  0
H  H18  1  0.10234987  0.20288342  0.51078397  1  0  0.108638  0  0.983506  0  0  0.116231  0  1.046688  0  0  0.118286  0  1.048471  0  0  0.108645  0.11473  0  1.045644  0
H  H19  1  0.39764993  0.79711469  0.01078488  1  0  0.108663  0  0.983466  0  0  0.116308  0  1.046606  0  0  0.118362  0  1.04839  0  0  0.108659  0.114807  0  1.045562  0
H  H20  1  0.47342635  0.35373689  0.08321548  1  0  0.087586  0  0.939459  0  0  0.094771  0  1.003866  0  0  0.097521  0  1.001777  0  0  0.125034  0.092695  0  1.005528  0
H  H21  1  0.02657488  0.64626383  0.58321595  1  0  0.087604  0  0.939448  0  0  0.09479  0  1.003845  0  0  0.097543  0  1.001758  0  0  0.125046  0.092716  0  1.0055  0
H  H22  1  0.52657541  0.85373665  0.41678318  1  0  0.087587  0  0.939473  0  0  0.094778  0  1.003861  0  0  0.097527  0  1.001783  0  0  0.125037  0.092708  0  1.005508  0
H  H23  1  0.97342372  0.14626397  0.91678330  1  0  0.087593  0  0.93946  0  0  0.094783  0  1.003848  0  0  0.097529  0  1.001779  0  0  0.125045  0.092712  0  1.005496  0
C  C24  1  0.30341298  0.41357068  0.98924303  1  0  -0.119767  0  3.669873  0  0  -0.140056  0  3.912513  0  0  -0.145229  0  3.932614  0  0  -0.071749  -0.13668  0  3.899096  0
C  C25  1  0.19658792  0.58642882  0.48924300  1  0  -0.119764  0  3.669863  0  0  -0.140028  0  3.912515  0  0  -0.145201  0  3.932619  0  0  -0.071745  -0.136653  0  3.899099  0
C  C26  1  0.69658981  0.91357149  0.51075769  1  0  -0.119705  0  3.669878  0  0  -0.139986  0  3.912519  0  0  -0.145155  0  3.932621  0  0  -0.071734  -0.136616  0  3.899108  0
C  C27  1  0.80341115  0.08642753  0.01075785  1  0  -0.119745  0  3.669855  0  0  -0.140024  0  3.912473  0  0  -0.145195  0  3.932574  0  0  -0.071745  -0.136653  0  3.89906  0
C  C28  1  0.07575332  0.62683754  0.07880104  1  0  0.136997  0  3.696196  0  0  0.111498  0  3.949755  0  0  0.117698  0  3.965176  0  0  0.055072  0.107428  0  3.939203  0
C  C29  1  0.42424642  0.37316320  0.57880107  1  0  0.136952  0  3.696229  0  0  0.111471  0  3.949772  0  0  0.117663  0  3.965197  0  0  0.055058  0.1074  0  3.939221  0
C  C30  1  0.92424870  0.12683630  0.42119771  1  0  0.136965  0  3.696246  0  0  0.111456  0  3.949806  0  0  0.117658  0  3.965228  0  0  0.055033  0.107385  0  3.939255  0
C  C31  1  0.57575192  0.87316289  0.92119861  1  0  0.136955  0  3.696184  0  0  0.111443  0  3.949762  0  0  0.117645  0  3.965185  0  0  0.055026  0.107372  0  3.939214  0
C  C32  1  0.02513744  0.62297457  0.00847303  1  0  -0.117471  0  3.695904  0  0  -0.136858  0  3.936072  0  0  -0.141674  0  3.956953  0  0  -0.074402  -0.133766  0  3.922219  0
C  C33  1  0.47486236  0.37702497  0.50847306  1  0  -0.117459  0  3.695889  0  0  -0.136833  0  3.936076  0  0  -0.141648  0  3.956958  0  0  -0.074396  -0.133742  0  3.922223  0
C  C34  1  0.97486459  0.12297447  0.49152520  1  0  -0.117409  0  3.695902  0  0  -0.136736  0  3.936066  0  0  -0.141552  0  3.956954  0  0  -0.07433  -0.133648  0  3.922214  0
C  C35  1  0.52513448  0.87702733  0.99152610  1  0  -0.117458  0  3.695921  0  0  -0.136853  0  3.93607  0  0  -0.141671  0  3.956958  0  0  -0.074382  -0.133763  0  3.922219  0
C  C36  1  0.34602378  0.42827500  0.06035908  1  0  0.141512  0  3.684584  0  0  0.112564  0  3.948805  0  0  0.118876  0  3.964857  0  0  0.058033  0.108437  0  3.937855  0
C  C37  1  0.15397747  0.57172579  0.56035906  1  0  0.141478  0  3.684577  0  0  0.112533  0  3.948794  0  0  0.118841  0  3.964847  0  0  0.058044  0.108407  0  3.937839  0
C  C38  1  0.65397789  0.92827456  0.43964006  1  0  0.141361  0  3.684612  0  0  0.112423  0  3.94882  0  0  0.11873  0  3.964875  0  0  0.057956  0.108298  0  3.937867  0
C  C39  1  0.84602121  0.07172458  0.93964023  1  0  0.141392  0  3.684574  0  0  0.112456  0  3.948777  0  0  0.118762  0  3.964832  0  0  0.057964  0.108331  0  3.937825  0
C  C40  1  0.14413090  0.51923666  0.96228452  1  0  -0.01109  0  3.707535  0  0  0.008582  0  3.93423  0  0  0.006016  0  3.953422  0  0  0.007937  0.010231  0  3.921484  0
C  C41  1  0.35586853  0.48076434  0.46228453  1  0  -0.011051  0  3.707476  0  0  0.008558  0  3.934256  0  0  0.005991  0  3.953449  0  0  0.007924  0.010208  0  3.921509  0
C  C42  1  0.85586934  0.01923664  0.53771426  1  0  -0.011058  0  3.707514  0  0  0.008554  0  3.934268  0  0  0.005981  0  3.953472  0  0  0.007915  0.010209  0  3.921522  0
C  C43  1  0.64413009  0.98076370  0.03771460  1  0  -0.011124  0  3.707593  0  0  0.008545  0  3.934288  0  0  0.005978  0  3.953482  0  0  0.007915  0.010198  0  3.921543  0
C  C44  1  0.10534183  0.53603713  0.88525736  1  0  0.722942  0  3.843774  0  0  0.676953  0  4.137385  0  0  0.712694  0  4.125225  0  0  0.245086  0.652613  0  4.144835  0
C  C45  1  0.39465766  0.46396268  0.38525737  1  0  0.722921  0  3.843764  0  0  0.67695  0  4.137375  0  0  0.712692  0  4.125216  0  0  0.245077  0.65261  0  4.144825  0
C  C46  1  0.89465689  0.03603826  0.61474089  1  0  0.722906  0  3.843652  0  0  0.67693  0  4.13728  0  0  0.712672  0  4.12512  0  0  0.245056  0.652585  0  4.144736  0
C  C47  1  0.60534248  0.96396185  0.11474177  1  0  0.723006  0  3.843595  0  0  0.677004  0  4.13723  0  0  0.712744  0  4.125072  0  0  0.245089  0.652662  0  4.144683  0
N  N48  1  0.23779533  0.53679477  0.10423515  1  0  -0.388663  0  3.232295  0  0  -0.339853  0  3.500379  0  0  -0.35389  0  3.516026  0  0  -0.372614  -0.329872  0  3.489601  0
N  N49  1  0.26220589  0.46320589  0.60423516  1  0  -0.388636  0  3.232302  0  0  -0.339829  0  3.500376  0  0  -0.353861  0  3.516026  0  0  -0.372622  -0.329848  0  3.489598  0
N  N50  1  0.76220679  0.03679377  0.39576416  1  0  -0.38854  0  3.232349  0  0  -0.339732  0  3.500418  0  0  -0.353772  0  3.516069  0  0  -0.372542  -0.329755  0  3.489638  0
N  N51  1  0.73779385  0.96320549  0.89576449  1  0  -0.388526  0  3.23228  0  0  -0.339723  0  3.500355  0  0  -0.353764  0  3.516006  0  0  -0.372542  -0.329745  0  3.489578  0
O  O52  1  0.03600891  0.69458961  0.86542466  1  0  -0.748232  0  2.086209  0  0  -0.708278  0  2.33967  0  0  -0.73712  0  2.330185  0  0  -0.398081  -0.68742  0  2.345702  0
O  O53  1  0.46399210  0.30541168  0.36542472  1  0  -0.748223  0  2.086201  0  0  -0.708265  0  2.339651  0  0  -0.737105  0  2.330168  0  0  -0.398068  -0.687409  0  2.345681  0
O  O54  1  0.96398963  0.19459201  0.63457406  1  0  -0.748248  0  2.086175  0  0  -0.708286  0  2.339626  0  0  -0.737116  0  2.330143  0  0  -0.398084  -0.687423  0  2.345663  0
O  O55  1  0.53600822  0.80541086  0.13457500  1  0  -0.748262  0  2.086162  0  0  -0.708299  0  2.339641  0  0  -0.737136  0  2.330157  0  0  -0.398073  -0.687439  0  2.345674  0
O  O56  1  0.14385817  0.39671419  0.84604011  1  0  -0.690508  0  2.026915  0  0  -0.650009  0  2.274845  0  0  -0.675634  0  2.262286  0  0  -0.367302  -0.631512  0  2.282936  0
O  O57  1  0.35614135  0.60328575  0.34604006  1  0  -0.690513  0  2.026951  0  0  -0.650011  0  2.274877  0  0  -0.675643  0  2.262315  0  0  -0.367306  -0.631514  0  2.282962  0
O  O58  1  0.85614313  0.89671580  0.65395905  1  0  -0.690494  0  2.026916  0  0  -0.649989  0  2.27482  0  0  -0.675631  0  2.262265  0  0  -0.367285  -0.63149  0  2.282897  0
O  O59  1  0.64385920  0.10328560  0.15395922  1  0  -0.690523  0  2.026838  0  0  -0.649999  0  2.274741  0  0  -0.675638  0  2.262186  0  0  -0.367299  -0.631501  0  2.282815  0
O  O60  1  0.68514842  0.81268795  0.27550205  1  0  -0.971841  0  1.694002  0  0  -0.977446  0  1.994112  0  0  -1.012888  0  1.987701  0  0  -0.628983  -0.951971  0  1.999025  0
O  O61  1  0.81485232  0.18731168  0.77550165  1  0  -0.971851  0  1.69398  0  0  -0.977466  0  1.994103  0  0  -1.012901  0  1.987691  0  0  -0.628993  -0.951987  0  1.999017  0
O  O62  1  0.31485489  0.31268652  0.22449923  1  0  -0.97188  0  1.693942  0  0  -0.977436  0  1.99401  0  0  -1.012876  0  1.987604  0  0  -0.629005  -0.951952  0  1.998925  0
O  O63  1  0.18514474  0.68731378  0.72449916  1  0  -0.971872  0  1.693949  0  0  -0.977441  0  1.994021  0  0  -1.012875  0  1.987613  0  0  -0.629  -0.951955  0  1.998927  0
O  O64  1  0.68088805  0.45640733  0.24047155  1  0  -1.00962  0  1.631451  0  0  -1.003386  0  1.914061  0  0  -1.038116  0  1.902511  0  0  -0.66863  -0.977992  0  1.922473  0
O  O65  1  0.81911122  0.54359240  0.74047100  1  0  -1.00965  0  1.631474  0  0  -1.003416  0  1.914076  0  0  -1.038134  0  1.90252  0  0  -0.668647  -0.978018  0  1.922491  0
O  O66  1  0.31911210  0.95640777  0.25953020  1  0  -1.00964  0  1.63142  0  0  -1.003393  0  1.914054  0  0  -1.038121  0  1.90251  0  0  -0.668645  -0.977994  0  1.92247  0
O  O67  1  0.18088900  0.04359242  0.75953091  1  0  -1.009654  0  1.631426  0  0  -1.003407  0  1.914043  0  0  -1.038131  0  1.902502  0  0  -0.668638  -0.978003  0  1.922452  0
O  O68  1  0.04021132  0.65205830  0.23577618  1  0  -0.845542  0  1.518919  0  0  -0.86692  0  1.820853  0  0  -0.898441  0  1.811663  0  0  -0.595938  -0.844629  0  1.828049  0
O  O69  1  0.45978680  0.34794056  0.73577622  1  0  -0.845559  0  1.518887  0  0  -0.866941  0  1.820811  0  0  -0.898457  0  1.811635  0  0  -0.59594  -0.844644  0  1.828008  0
O  O70  1  0.95978918  0.15206173  0.26422621  1  0  -0.845548  0  1.518875  0  0  -0.866921  0  1.820847  0  0  -0.898423  0  1.811622  0  0  -0.595958  -0.844626  0  1.828041  0
O  O71  1  0.54021157  0.84793794  0.76422661  1  0  -0.845523  0  1.51888  0  0  -0.866911  0  1.820853  0  0  -0.898417  0  1.811626  0  0  -0.595908  -0.844618  0  1.828041  0
O  O72  1  0.87490235  0.56142082  0.35870513  1  0  -0.616745  0  1.248322  0  0  -0.632687  0  1.485177  0  0  -0.653665  0  1.480485  0  0  -0.457515  -0.618479  0  1.489262  0
O  O73  1  0.62509832  0.43857856  0.85870516  1  0  -0.616711  0  1.248302  0  0  -0.632668  0  1.485161  0  0  -0.653644  0  1.480472  0  0  -0.457509  -0.618462  0  1.489247  0
O  O74  1  0.12509675  0.06141983  0.14129730  1  0  -0.616759  0  1.248413  0  0  -0.632687  0  1.485287  0  0  -0.653659  0  1.480597  0  0  -0.457499  -0.618475  0  1.489375  0
O  O75  1  0.37490444  0.93858354  0.64129815  1  0  -0.616726  0  1.248461  0  0  -0.632658  0  1.485338  0  0  -0.653628  0  1.480644  0  0  -0.45749  -0.618449  0  1.489419  0
