# generated using pymatgen
data_BiH10C5S2NCl2
_symmetry_space_group_name_H-M   'P 1'
_cell_length_a   7.70118386
_cell_length_b   9.68622795
_cell_length_c   14.77844942
_cell_angle_alpha   90.00033258
_cell_angle_beta   89.99985947
_cell_angle_gamma   93.52309710
_symmetry_Int_Tables_number   1
_chemical_formula_structural   BiH10C5S2NCl2
_chemical_formula_sum   'Bi4 H40 C20 S8 N4 Cl8'
_cell_volume   1100.32124944
_cell_formula_units_Z   4
loop_
 _symmetry_equiv_pos_site_id
 _symmetry_equiv_pos_as_xyz
  1  'x, y, z'
loop_
 _atom_site_type_symbol
 _atom_site_label
 _atom_site_symmetry_multiplicity
 _atom_site_fract_x
 _atom_site_fract_y
 _atom_site_fract_z
 _atom_site_occupancy
 _atom_site_hle17_bader_spin_density
 _atom_site_hle17_ddec_charge
 _atom_site_hle17_ddec_spin_density
 _atom_site_hle17_ddec_sum_bond_order
 _atom_site_hle17_magmom
 _atom_site_hse06_10hf_bader_spin_density
 _atom_site_hse06_10hf_ddec_charge
 _atom_site_hse06_10hf_ddec_spin_density
 _atom_site_hse06_10hf_ddec_sum_bond_order
 _atom_site_hse06_10hf_magmom
 _atom_site_hse06_bader_spin_density
 _atom_site_hse06_ddec_charge
 _atom_site_hse06_ddec_spin_density
 _atom_site_hse06_ddec_sum_bond_order
 _atom_site_hse06_magmom
 _atom_site_pbe_bader_spin_density
 _atom_site_pbe_cm5_charge
 _atom_site_pbe_ddec_charge
 _atom_site_pbe_ddec_spin_density
 _atom_site_pbe_ddec_sum_bond_order
 _atom_site_pbe_magmom
Bi  Bi0  1  0.76004384  0.21714850  0.21513819  1  0  1.090463  0  2.546468  0  0  0.943258  0  3.019708  0  0  0.995072  0  2.997333  0  0  0.533236  0.904162  0  3.040041  0
Bi  Bi1  1  0.73993515  0.78285785  0.71513084  1  0  1.09046  0  2.546536  0  0  0.943253  0  3.019784  0  0  0.995065  0  2.99741  0  0  0.533228  0.904156  0  3.040117  0
Bi  Bi2  1  0.23993223  0.78284235  0.78487055  1  0  1.0904  0  2.546511  0  0  0.943185  0  3.019761  0  0  0.994997  0  2.99739  0  0  0.533208  0.904081  0  3.040111  0
Bi  Bi3  1  0.26004344  0.21714747  0.28486166  1  0  1.090461  0  2.546494  0  0  0.943253  0  3.019738  0  0  0.995067  0  2.997364  0  0  0.533246  0.904158  0  3.04007  0
H  H4  1  0.30259968  0.15601238  0.86463885  1  0  0.067291  0  0.933309  0  0  0.085112  0  0.996999  0  0  0.085172  0  0.997658  0  0  0.102304  0.085059  0  0.996497  0
H  H5  1  0.19740457  0.84398214  0.36463919  1  0  0.067267  0  0.933275  0  0  0.085085  0  0.996992  0  0  0.085145  0  0.997651  0  0  0.102298  0.085035  0  0.996503  0
H  H6  1  0.69740304  0.84398662  0.13535974  1  0  0.067266  0  0.933302  0  0  0.085086  0  0.997011  0  0  0.085146  0  0.997669  0  0  0.102303  0.085036  0  0.996514  0
H  H7  1  0.80259695  0.15601790  0.63536008  1  0  0.067268  0  0.93332  0  0  0.085089  0  0.99703  0  0  0.085149  0  0.99769  0  0  0.102277  0.085046  0  0.99653  0
H  H8  1  0.29728808  0.08577478  0.97498521  1  0  0.074622  0  0.953542  0  0  0.087575  0  1.022216  0  0  0.088496  0  1.021752  0  0  0.093554  0.086825  0  1.02281  0
H  H9  1  0.20271590  0.91422277  0.47498580  1  0  0.074614  0  0.953526  0  0  0.087576  0  1.022192  0  0  0.088498  0  1.021726  0  0  0.093572  0.086834  0  1.022788  0
H  H10  1  0.70271352  0.91422629  0.02501406  1  0  0.074578  0  0.953565  0  0  0.087545  0  1.022242  0  0  0.088469  0  1.021772  0  0  0.093568  0.086801  0  1.022837  0
H  H11  1  0.79728562  0.08577727  0.52501414  1  0  0.074572  0  0.953582  0  0  0.087544  0  1.022227  0  0  0.088465  0  1.021766  0  0  0.09355  0.086803  0  1.022825  0
H  H12  1  0.15599621  0.29705193  0.03322113  1  0  0.097055  0  0.975228  0  0  0.111022  0  1.051803  0  0  0.112277  0  1.052017  0  0  0.072065  0.110109  0  1.051535  0
H  H13  1  0.34400471  0.70294594  0.53322349  1  0  0.097059  0  0.975214  0  0  0.111019  0  1.051788  0  0  0.112276  0  1.052002  0  0  0.072056  0.110103  0  1.05152  0
H  H14  1  0.84400530  0.70294811  0.96677745  1  0  0.097086  0  0.975215  0  0  0.111039  0  1.051795  0  0  0.112293  0  1.05201  0  0  0.072073  0.110128  0  1.051525  0
H  H15  1  0.65599569  0.29705618  0.46677848  1  0  0.097072  0  0.975117  0  0  0.11103  0  1.051695  0  0  0.112289  0  1.051906  0  0  0.072051  0.110114  0  1.051429  0
H  H16  1  0.15359178  0.36556277  0.92127790  1  0  0.098937  0  0.970411  0  0  0.117343  0  1.03847  0  0  0.118789  0  1.038318  0  0  0.076036  0.116137  0  1.038834  0
H  H17  1  0.34641121  0.63443535  0.42127995  1  0  0.098994  0  0.97043  0  0  0.117385  0  1.038493  0  0  0.118828  0  1.038344  0  0  0.076057  0.116178  0  1.038856  0
H  H18  1  0.84641095  0.63443623  0.07872069  1  0  0.098951  0  0.970395  0  0  0.117355  0  1.038456  0  0  0.118799  0  1.038304  0  0  0.076032  0.116148  0  1.038821  0
H  H19  1  0.65359178  0.36556675  0.57872202  1  0  0.098993  0  0.97042  0  0  0.117387  0  1.03848  0  0  0.11883  0  1.038331  0  0  0.076057  0.116181  0  1.038843  0
H  H20  1  0.03060730  0.20944805  0.94794218  1  0  0.108088  0  0.970523  0  0  0.127531  0  1.035365  0  0  0.128902  0  1.035456  0  0  0.079485  0.126409  0  1.03551  0
H  H21  1  0.46939688  0.79055030  0.44794332  1  0  0.108095  0  0.970524  0  0  0.127532  0  1.035367  0  0  0.128902  0  1.035462  0  0  0.079484  0.126411  0  1.035511  0
H  H22  1  0.96939699  0.79055405  0.05205641  1  0  0.108118  0  0.9705  0  0  0.127544  0  1.035348  0  0  0.128917  0  1.035437  0  0  0.07948  0.126422  0  1.035492  0
H  H23  1  0.53060481  0.20945181  0.55205797  1  0  0.108113  0  0.970549  0  0  0.127555  0  1.035384  0  0  0.128926  0  1.035476  0  0  0.079499  0.126434  0  1.035528  0
H  H24  1  0.43144591  0.39252377  0.84964847  1  0  0.066967  0  0.958012  0  0  0.079839  0  1.02963  0  0  0.08065  0  1.029359  0  0  0.097539  0.079061  0  1.030152  0
H  H25  1  0.06855746  0.60747476  0.34964740  1  0  0.066943  0  0.957997  0  0  0.079795  0  1.029623  0  0  0.080606  0  1.029354  0  0  0.097499  0.079016  0  1.030145  0
H  H26  1  0.56855578  0.60747834  0.15035147  1  0  0.067003  0  0.957969  0  0  0.079851  0  1.029616  0  0  0.080661  0  1.029346  0  0  0.097534  0.079071  0  1.030138  0
H  H27  1  0.93144666  0.39252527  0.65035322  1  0  0.066942  0  0.95803  0  0  0.079832  0  1.029628  0  0  0.080642  0  1.029359  0  0  0.09752  0.079054  0  1.03015  0
H  H28  1  0.62108280  0.43463569  0.91369168  1  0  0.073786  0  0.939263  0  0  0.089742  0  1.001958  0  0  0.090597  0  1.001498  0  0  0.098708  0.089003  0  1.002506  0
H  H29  1  0.87892160  0.56535985  0.41369141  1  0  0.073751  0  0.939291  0  0  0.089714  0  1.001947  0  0  0.09057  0  1.001488  0  0  0.098693  0.08897  0  1.002506  0
H  H30  1  0.37892002  0.56536435  0.08630894  1  0  0.073806  0  0.93925  0  0  0.089768  0  1.001928  0  0  0.090623  0  1.001472  0  0  0.098704  0.089026  0  1.00248  0
H  H31  1  0.12108364  0.43463811  0.58630921  1  0  0.073771  0  0.939216  0  0  0.089732  0  1.001911  0  0  0.090589  0  1.001448  0  0  0.098703  0.088989  0  1.002469  0
H  H32  1  0.76292788  0.22798827  0.84844958  1  0  0.106591  0  0.952607  0  0  0.125998  0  1.017128  0  0  0.127361  0  1.017427  0  0  0.082268  0.124892  0  1.016967  0
H  H33  1  0.73707020  0.77200569  0.34845027  1  0  0.106583  0  0.952652  0  0  0.125984  0  1.01719  0  0  0.127347  0  1.017488  0  0  0.08226  0.124879  0  1.017028  0
H  H34  1  0.23707251  0.77201385  0.15154833  1  0  0.106567  0  0.952618  0  0  0.12597  0  1.017141  0  0  0.127333  0  1.017439  0  0  0.082241  0.124863  0  1.016981  0
H  H35  1  0.26293097  0.22799021  0.65154900  1  0  0.106563  0  0.952652  0  0  0.125965  0  1.017179  0  0  0.127326  0  1.017478  0  0  0.082256  0.124861  0  1.017014  0
H  H36  1  0.57278597  0.18575448  0.78279388  1  0  0.10161  0  0.971437  0  0  0.1187  0  1.041861  0  0  0.120378  0  1.041567  0  0  0.076286  0.117335  0  1.042139  0
H  H37  1  0.92721126  0.81424098  0.28279449  1  0  0.101621  0  0.971445  0  0  0.118728  0  1.041858  0  0  0.120406  0  1.041562  0  0  0.076301  0.117362  0  1.042138  0
H  H38  1  0.42721322  0.81424867  0.21720471  1  0  0.101631  0  0.971354  0  0  0.118703  0  1.041806  0  0  0.120382  0  1.04151  0  0  0.076284  0.117338  0  1.042084  0
H  H39  1  0.07278870  0.18575596  0.71720545  1  0  0.101598  0  0.971443  0  0  0.118706  0  1.04185  0  0  0.120383  0  1.041556  0  0  0.076283  0.11734  0  1.04213  0
H  H40  1  0.69843405  0.34322603  0.76270877  1  0  0.108363  0  0.962343  0  0  0.131232  0  1.022683  0  0  0.132249  0  1.023435  0  0  0.082717  0.13035  0  1.022337  0
H  H41  1  0.80156577  0.65676821  0.26270962  1  0  0.108434  0  0.962333  0  0  0.131278  0  1.022682  0  0  0.132294  0  1.023436  0  0  0.082744  0.130402  0  1.022332  0
H  H42  1  0.30156514  0.65677712  0.23728914  1  0  0.108417  0  0.962361  0  0  0.131284  0  1.022685  0  0  0.132303  0  1.023439  0  0  0.082749  0.130404  0  1.022338  0
H  H43  1  0.19843800  0.34322768  0.73729032  1  0  0.108463  0  0.962318  0  0  0.131313  0  1.022656  0  0  0.132329  0  1.023409  0  0  0.082738  0.130435  0  1.022308  0
C  C44  1  0.55917069  0.24183670  0.03199128  1  0  0.232645  0  3.75573  0  0  0.199845  0  4.064041  0  0  0.224171  0  4.073231  0  0  0.136316  0.183314  0  4.057208  0
C  C45  1  0.94083076  0.75816381  0.53199237  1  0  0.232688  0  3.755674  0  0  0.199866  0  4.063971  0  0  0.224191  0  4.073161  0  0  0.136351  0.183336  0  4.057134  0
C  C46  1  0.44083083  0.75816334  0.96800934  1  0  0.232691  0  3.755658  0  0  0.199865  0  4.063964  0  0  0.224191  0  4.073148  0  0  0.136345  0.183336  0  4.057128  0
C  C47  1  0.05917093  0.24183830  0.46800825  1  0  0.232694  0  3.755744  0  0  0.199889  0  4.064077  0  0  0.224216  0  4.073264  0  0  0.136286  0.183359  0  4.057242  0
C  C48  1  0.30407022  0.18298347  0.93677299  1  0  0.040987  0  3.645187  0  0  -0.017723  0  3.90657  0  0  -0.013049  0  3.918699  0  0  -0.069068  -0.020805  0  3.89838  0
C  C49  1  0.19593271  0.81701479  0.43677323  1  0  0.041117  0  3.645227  0  0  -0.017627  0  3.906596  0  0  -0.012955  0  3.91873  0  0  -0.069025  -0.020741  0  3.898442  0
C  C50  1  0.69593398  0.81701760  0.06322695  1  0  0.04118  0  3.645177  0  0  -0.017582  0  3.906563  0  0  -0.012909  0  3.918697  0  0  -0.069043  -0.020687  0  3.898402  0
C  C51  1  0.80406898  0.18298732  0.56322739  1  0  0.041096  0  3.645178  0  0  -0.017635  0  3.906583  0  0  -0.012963  0  3.918716  0  0  -0.069019  -0.020752  0  3.898441  0
C  C52  1  0.15298505  0.26984077  0.96111951  1  0  -0.316331  0  3.707352  0  0  -0.39281  0  3.953186  0  0  -0.395909  0  3.963274  0  0  -0.257838  -0.390136  0  3.946254  0
C  C53  1  0.34701631  0.73015563  0.46111990  1  0  -0.316427  0  3.707486  0  0  -0.392887  0  3.953365  0  0  -0.39599  0  3.963453  0  0  -0.257857  -0.390201  0  3.946442  0
C  C54  1  0.84701777  0.73015926  0.03887907  1  0  -0.316452  0  3.707386  0  0  -0.392902  0  3.953269  0  0  -0.396001  0  3.963357  0  0  -0.257842  -0.390225  0  3.946341  0
C  C55  1  0.65298261  0.26984442  0.53888071  1  0  -0.316442  0  3.707453  0  0  -0.392914  0  3.953335  0  0  -0.396016  0  3.963419  0  0  -0.257879  -0.390226  0  3.946416  0
C  C56  1  0.54277819  0.34850993  0.88277628  1  0  0.039095  0  3.636438  0  0  -0.018427  0  3.896481  0  0  -0.013875  0  3.908208  0  0  -0.066498  -0.021348  0  3.888434  0
C  C57  1  0.95722383  0.65148638  0.38277623  1  0  0.039265  0  3.636478  0  0  -0.018211  0  3.896425  0  0  -0.013664  0  3.908161  0  0  -0.066352  -0.021134  0  3.888377  0
C  C58  1  0.45722480  0.65149217  0.11722366  1  0  0.039014  0  3.636504  0  0  -0.018522  0  3.896532  0  0  -0.01397  0  3.908259  0  0  -0.066504  -0.02144  0  3.888481  0
C  C59  1  0.04277881  0.34851158  0.61722439  1  0  0.039223  0  3.636473  0  0  -0.018302  0  3.896519  0  0  -0.013748  0  3.90825  0  0  -0.066425  -0.021225  0  3.888472  0
C  C60  1  0.65038226  0.27078149  0.81536304  1  0  -0.308566  0  3.675535  0  0  -0.383688  0  3.91637  0  0  -0.386932  0  3.926373  0  0  -0.251552  -0.380957  0  3.909279  0
C  C61  1  0.84961734  0.72921321  0.31536410  1  0  -0.308733  0  3.675677  0  0  -0.383863  0  3.91654  0  0  -0.387106  0  3.926545  0  0  -0.251658  -0.381134  0  3.909441  0
C  C62  1  0.34961814  0.72922062  0.18463555  1  0  -0.308598  0  3.675501  0  0  -0.383697  0  3.916333  0  0  -0.386943  0  3.926334  0  0  -0.251557  -0.380964  0  3.909228  0
C  C63  1  0.15038521  0.27078372  0.68463652  1  0  -0.308665  0  3.675622  0  0  -0.383779  0  3.916465  0  0  -0.387021  0  3.926467  0  0  -0.251584  -0.381052  0  3.909378  0
S  S64  1  0.48463945  0.12158745  0.11277765  1  0  -0.34729  0  2.187397  0  0  -0.315226  0  2.531317  0  0  -0.333859  0  2.530542  0  0  -0.107446  -0.301413  0  2.531698  0
S  S65  1  0.01536124  0.87841214  0.61277839  1  0  -0.347311  0  2.187378  0  0  -0.315251  0  2.5313  0  0  -0.333888  0  2.530528  0  0  -0.107468  -0.301436  0  2.531677  0
S  S66  1  0.51535532  0.87840951  0.88722161  1  0  -0.347315  0  2.187456  0  0  -0.315221  0  2.531318  0  0  -0.333856  0  2.530544  0  0  -0.10745  -0.301406  0  2.531698  0
S  S67  1  0.98463898  0.12158791  0.38722223  1  0  -0.347294  0  2.187396  0  0  -0.315218  0  2.531305  0  0  -0.333851  0  2.53053  0  0  -0.107433  -0.301404  0  2.531683  0
S  S68  1  0.75049019  0.33820614  0.05346788  1  0  -0.267737  0  2.111978  0  0  -0.240222  0  2.438741  0  0  -0.255229  0  2.436968  0  0  -0.082647  -0.229532  0  2.440008  0
S  S69  1  0.74951108  0.66179353  0.55346682  1  0  -0.267738  0  2.112053  0  0  -0.240225  0  2.438821  0  0  -0.255229  0  2.437047  0  0  -0.08265  -0.229534  0  2.440089  0
S  S70  1  0.24950977  0.66179081  0.94653680  1  0  -0.26767  0  2.11193  0  0  -0.240126  0  2.438642  0  0  -0.25515  0  2.436908  0  0  -0.082595  -0.229436  0  2.439909  0
S  S71  1  0.25049043  0.33820651  0.44653312  1  0  -0.267754  0  2.112019  0  0  -0.240218  0  2.438757  0  0  -0.255234  0  2.437004  0  0  -0.082635  -0.229528  0  2.440025  0
N  N72  1  0.47313873  0.25673169  0.95522286  1  0  -0.097192  0  3.40304  0  0  0.001607  0  3.62317  0  0  -0.015954  0  3.646355  0  0  -0.246562  0.013108  0  3.607542  0
N  N73  1  0.02686542  0.74326672  0.45522236  1  0  -0.0973  0  3.403137  0  0  0.001566  0  3.623183  0  0  -0.015989  0  3.646366  0  0  -0.24664  0.013077  0  3.60756  0
N  N74  1  0.52686408  0.74326834  0.04477573  1  0  -0.097286  0  3.403137  0  0  0.001602  0  3.623183  0  0  -0.015954  0  3.646362  0  0  -0.246598  0.013108  0  3.60756  0
N  N75  1  0.97313870  0.25673331  0.54477691  1  0  -0.097281  0  3.403124  0  0  0.001506  0  3.623292  0  0  -0.016054  0  3.646477  0  0  -0.246576  0.013019  0  3.607672  0
Cl  Cl76  1  0.05663626  0.41543920  0.21439401  1  0  -0.475559  0  0.993277  0  0  -0.41717  0  1.238092  0  0  -0.436403  0  1.227202  0  0  -0.212594  -0.402767  0  1.246137  0
Cl  Cl77  1  0.44336532  0.58456127  0.71439648  1  0  -0.475565  0  0.993272  0  0  -0.417164  0  1.238059  0  0  -0.436397  0  1.22717  0  0  -0.212596  -0.402768  0  1.246125  0
Cl  Cl78  1  0.94336379  0.58455878  0.78560660  1  0  -0.475586  0  0.993245  0  0  -0.417199  0  1.238048  0  0  -0.436434  0  1.22716  0  0  -0.212614  -0.402795  0  1.246099  0
Cl  Cl79  1  0.55663369  0.41543981  0.28560347  1  0  -0.475577  0  0.993277  0  0  -0.417178  0  1.238068  0  0  -0.436412  0  1.22718  0  0  -0.212599  -0.402782  0  1.246126  0
Cl  Cl80  1  0.00789670  0.04283460  0.16389548  1  0  -0.493813  0  0.92402  0  0  -0.433543  0  1.156554  0  0  -0.452901  0  1.145479  0  0  -0.236307  -0.418806  0  1.164314  0
Cl  Cl81  1  0.49210629  0.95716440  0.66389524  1  0  -0.493795  0  0.924093  0  0  -0.433534  0  1.156641  0  0  -0.452882  0  1.145553  0  0  -0.236294  -0.418796  0  1.164402  0
Cl  Cl82  1  0.99210101  0.95716650  0.83610649  1  0  -0.493826  0  0.924046  0  0  -0.433565  0  1.156587  0  0  -0.452918  0  1.145508  0  0  -0.236326  -0.418827  0  1.164349  0
Cl  Cl83  1  0.50789800  0.04283770  0.33610471  1  0  -0.493825  0  0.924035  0  0  -0.433557  0  1.156573  0  0  -0.452921  0  1.145511  0  0  -0.236316  -0.41882  0  1.164334  0
