# generated using pymatgen
data_CuH10C18I3N3O4
_symmetry_space_group_name_H-M   'P 1'
_cell_length_a   8.98263585
_cell_length_b   9.48906545
_cell_length_c   14.25047658
_cell_angle_alpha   90.00008928
_cell_angle_beta   89.99982720
_cell_angle_gamma   107.49534782
_symmetry_Int_Tables_number   1
_chemical_formula_structural   CuH10C18I3N3O4
_chemical_formula_sum   'Cu2 H20 C36 I6 N6 O8'
_cell_volume   1158.47654021
_cell_formula_units_Z   2
loop_
 _symmetry_equiv_pos_site_id
 _symmetry_equiv_pos_as_xyz
  1  'x, y, z'
loop_
 _atom_site_type_symbol
 _atom_site_label
 _atom_site_symmetry_multiplicity
 _atom_site_fract_x
 _atom_site_fract_y
 _atom_site_fract_z
 _atom_site_occupancy
 _atom_site_hle17_ddec_charge
 _atom_site_hle17_ddec_spin_density
 _atom_site_hle17_ddec_sum_bond_order
 _atom_site_hle17_magmom
 _atom_site_hse06_10hf_ddec_charge
 _atom_site_hse06_10hf_ddec_spin_density
 _atom_site_hse06_10hf_ddec_sum_bond_order
 _atom_site_hse06_10hf_magmom
 _atom_site_hse06_ddec_charge
 _atom_site_hse06_ddec_spin_density
 _atom_site_hse06_ddec_sum_bond_order
 _atom_site_hse06_magmom
 _atom_site_pbe_cm5_charge
 _atom_site_pbe_ddec_charge
 _atom_site_pbe_ddec_spin_density
 _atom_site_pbe_ddec_sum_bond_order
 _atom_site_pbe_magmom
Cu  Cu0  1  0.18798436  0.23901621  0.57304889  1  0.84582  -0.700507  1.766068  -0.486  0.825221  -0.796109  2.157959  -0.612  0.920907  -0.878103  2.084007  -0.702  0.730345  0.765642  -0.734903  2.211662  -0.552
Cu  Cu1  1  0.81201539  0.76098548  0.07304711  1  0.845765  0.700508  1.766107  0.486  0.825217  0.796116  2.157973  0.612  0.920879  0.878101  2.084007  0.702  0.730358  0.765642  0.734908  2.21165  0.552
H  H2  1  0.08022092  0.98848161  0.71141683  1  0.089933  -0.001111  0.945086  -0.002  0.097088  -0.001073  1.009408  -0.002  0.099459  -0.000791  1.007366  -0.002  0.116717  0.095086  -0.001286  1.011157  -0.002
H  H3  1  0.91978851  0.01153108  0.21141096  1  0.090037  0.001111  0.944893  0.002  0.097139  0.001073  1.009284  0.002  0.099496  0.000791  1.007253  0.002  0.11673  0.095131  0.001286  1.011035  0.002
H  H4  1  0.86015981  0.75160285  0.71403895  1  0.093547  -0.000365  0.994136  0.0  0.10325  -0.000421  1.058015  0.0  0.105561  -0.000308  1.058522  0.0  0.094652  0.101485  -0.000503  1.058012  -0.001
H  H5  1  0.13986111  0.24839749  0.21402727  1  0.093688  0.000364  0.994026  0.0  0.103332  0.000421  1.057946  0.0  0.105644  0.000308  1.05845  0.0  0.09464  0.101565  0.000503  1.057948  0.001
H  H6  1  0.65541868  0.70642968  0.58618235  1  0.100676  -0.000203  0.944742  0.0  0.113179  -2.5e-05  1.001621  0.0  0.116097  3e-06  0.998905  0.0  0.103337  0.110794  -5.8e-05  1.003991  0.0
H  H7  1  0.34459620  0.29356073  0.08616540  1  0.100638  0.000197  0.944685  0.0  0.113147  2.5e-05  1.001577  0.0  0.116064  -3e-06  0.998864  0.0  0.103317  0.110763  5.8e-05  1.003943  0.0
H  H8  1  0.68098607  0.89744259  0.46310938  1  0.121462  -0.00055  0.922495  -0.001  0.137569  -0.000546  0.968624  -0.001  0.140768  -0.000389  0.967534  -0.001  0.119879  0.135028  -0.000664  0.969902  -0.001
H  H9  1  0.31900829  0.10254480  0.96309175  1  0.1214  0.000551  0.922479  0.001  0.137463  0.000546  0.968672  0.001  0.140653  0.000389  0.96759  0.001  0.119809  0.134918  0.000665  0.969962  0.001
H  H10  1  0.70909603  0.08291194  0.37351247  1  0.12306  -0.000639  0.925737  -0.001  0.137132  -0.000646  0.975434  -0.001  0.140953  -0.000458  0.973153  -0.001  0.118249  0.13422  -0.000787  0.977422  -0.001
H  H11  1  0.29088986  0.91707554  0.87350238  1  0.122944  0.000639  0.925923  0.001  0.137087  0.000645  0.975544  0.001  0.140908  0.000457  0.973266  0.001  0.118234  0.134175  0.000787  0.977524  0.001
H  H12  1  0.79037015  0.28955870  0.25698100  1  0.104523  -0.000261  0.931013  0.0  0.115047  -3e-05  0.988495  0.0  0.118398  2e-06  0.985738  0.0  0.108809  0.112474  -6.7e-05  0.99067  0.0
H  H13  1  0.20961408  0.71042214  0.75697709  1  0.104544  0.000261  0.931042  0.0  0.115063  3e-05  0.98849  0.0  0.118402  -2e-06  0.985765  0.0  0.108826  0.112496  6.7e-05  0.990651  0.0
H  H14  1  0.05113391  0.47745212  0.27421217  1  0.090617  -0.000465  1.021419  -0.001  0.09223  -0.000483  1.099872  -0.001  0.096534  -0.000349  1.097104  0.0  0.088002  0.088935  -0.000583  1.102202  -0.001
H  H15  1  0.94885914  0.52252194  0.77421774  1  0.090653  0.000462  1.021785  0.001  0.092304  0.000483  1.100096  0.001  0.096585  0.000349  1.097338  0.0  0.088072  0.08901  0.000583  1.102429  0.001
H  H16  1  0.22534647  0.45240324  0.40810154  1  0.082664  -0.001284  0.953128  -0.002  0.087523  -0.001237  1.021976  -0.002  0.090574  -0.000893  1.018465  -0.002  0.111185  0.085027  -0.001505  1.024731  -0.002
H  H17  1  0.77464559  0.54757640  0.90810679  1  0.08268  0.001284  0.953004  0.002  0.087537  0.001237  1.021845  0.002  0.090589  0.000893  1.018333  0.002  0.111171  0.085041  0.001504  1.024614  0.002
H  H18  1  0.87560793  0.32975400  0.02891839  1  0.298928  -2.6e-05  0.925323  0.0  0.289682  2e-06  0.981914  0.0  0.296291  2e-06  0.976505  0.0  0.285731  0.285087  -0.0  0.985549  0.0
H  H19  1  0.12439719  0.67024651  0.52890968  1  0.298915  2.6e-05  0.925257  0.0  0.289666  -2e-06  0.981847  0.0  0.296276  -2e-06  0.976436  0.0  0.285726  0.285068  0.0  0.985481  0.0
H  H20  1  0.96659288  0.47226018  0.10318539  1  0.335694  6.8e-05  0.927067  0.0  0.31911  4.8e-05  0.992919  0.0  0.326532  3.2e-05  0.986505  0.0  0.286745  0.313819  6.6e-05  0.99747  0.0
H  H21  1  0.03341038  0.52775256  0.60318087  1  0.335829  -7e-05  0.926891  0.0  0.319207  -4.8e-05  0.99282  0.0  0.326632  -3.2e-05  0.986391  0.0  0.286785  0.313914  -6.6e-05  0.997377  0.0
C  C22  1  0.98961251  0.96212301  0.65773700  1  0.137792  0.006046  3.695332  0.007  0.10811  0.000657  3.951403  0.002  0.118456  0.001573  3.968258  0.003  0.049458  0.101326  -3e-05  3.940949  0.001
C  C23  1  0.01039868  0.03788077  0.15772878  1  0.137645  -0.006043  3.695159  -0.007  0.108013  -0.00066  3.951211  -0.002  0.11837  -0.001568  3.968072  -0.003  0.049386  0.101234  3e-05  3.940751  -0.001
C  C24  1  0.86583371  0.83205936  0.65880787  1  -0.105613  -0.007839  3.718363  -0.008  -0.118247  -0.003914  3.963836  -0.005  -0.124609  -0.003472  3.982577  -0.004  -0.08806  -0.114518  -0.004214  3.951967  -0.005
C  C25  1  0.13418119  0.16793882  0.15879889  1  -0.105875  0.007832  3.718575  0.008  -0.1184  0.003915  3.963983  0.005  -0.124761  0.003466  3.982721  0.004  -0.088056  -0.114673  0.004213  3.952111  0.005
C  C26  1  0.75296985  0.80780676  0.58837383  1  0.005061  0.006795  3.70573  0.006  -0.010209  0.002375  3.948768  0.002  -0.004321  0.00254  3.963338  0.003  -0.06616  -0.014558  0.002226  3.939931  0.002
C  C27  1  0.24703985  0.19218483  0.08835974  1  0.005085  -0.006771  3.705756  -0.006  -0.010235  -0.002375  3.948775  -0.002  -0.004344  -0.002537  3.963342  -0.003  -0.066216  -0.014581  -0.002225  3.939932  -0.002
C  C28  1  0.76716738  0.91390552  0.51892078  1  -0.119397  -0.005468  3.682333  -0.005  -0.138164  -0.002359  3.924888  -0.002  -0.144669  -0.002176  3.94285  -0.002  -0.070386  -0.134259  -0.002478  3.913625  -0.002
C  C29  1  0.23283118  0.08608176  0.01890656  1  -0.119147  0.005457  3.682161  0.005  -0.137808  0.00236  3.924711  0.002  -0.144308  0.002175  3.942682  0.002  -0.070202  -0.133906  0.002478  3.913452  0.002
C  C30  1  0.89596852  0.04043444  0.52063014  1  0.162194  0.003023  3.811624  0.003  0.155446  -0.000453  4.06512  0.0  0.164348  0.000532  4.085254  0.001  0.1118  0.149611  -0.001198  4.051802  -0.001
C  C31  1  0.10402707  0.95955732  0.02062165  1  0.162208  -0.003024  3.811569  -0.003  0.155334  0.000452  4.065331  0.0  0.164232  -0.000531  4.085465  -0.001  0.111772  0.149494  0.001199  4.052018  0.001
C  C32  1  0.92795706  0.15644099  0.44893926  1  0.165418  0.003044  3.788525  0.003  0.158107  -0.000692  4.042031  0.0  0.165952  0.000476  4.063363  0.001  0.113367  0.153068  -0.001567  4.027889  -0.001
C  C33  1  0.07203514  0.84354975  0.94893441  1  0.165349  -0.003036  3.788444  -0.003  0.15802  0.000694  4.042018  0.0  0.165867  -0.000479  4.06335  -0.001  0.113227  0.152984  0.001567  4.027873  0.001
C  C34  1  0.82422679  0.16375324  0.37737123  1  -0.12088  -0.006341  3.666071  -0.006  -0.139284  -0.002824  3.910936  -0.003  -0.145463  -0.002578  3.929134  -0.003  -0.069404  -0.135543  -0.002988  3.899293  -0.003
C  C35  1  0.17575760  0.83623648  0.87736196  1  -0.120714  0.006327  3.665935  0.006  -0.139172  0.002823  3.910844  0.003  -0.145341  0.00258  3.929018  0.003  -0.069312  -0.135428  0.002988  3.899199  0.003
C  C36  1  0.86863501  0.27955172  0.31328990  1  0.015468  0.007485  3.678596  0.007  -0.001457  0.002538  3.924327  0.002  0.003405  0.002769  3.940521  0.003  -0.060327  -0.004969  0.002322  3.914136  0.002
C  C37  1  0.13134896  0.72043245  0.81328476  1  0.015563  -0.007474  3.678307  -0.007  -0.001349  -0.002538  3.924083  -0.002  0.003514  -0.002768  3.94026  -0.003  -0.060309  -0.004861  -0.002322  3.913895  -0.002
C  C38  1  0.01394875  0.38540520  0.32307226  1  -0.114237  -0.009021  3.727749  -0.009  -0.12456  -0.004423  3.974156  -0.005  -0.131675  -0.00387  3.993395  -0.005  -0.085376  -0.120287  -0.004841  3.962092  -0.006
C  C39  1  0.98604369  0.61457443  0.82307438  1  -0.11444  0.009022  3.728183  0.009  -0.124806  0.004426  3.974679  0.005  -0.131891  0.003869  3.993921  0.005  -0.085541  -0.120536  0.004841  3.962625  0.006
C  C40  1  0.11107410  0.37259285  0.39669215  1  0.132132  0.006739  3.705927  0.008  0.102842  0.000678  3.962515  0.002  0.113174  0.001769  3.979383  0.003  0.04526  0.096054  -0.000143  3.951915  0.001
C  C41  1  0.88892170  0.62738785  0.89669518  1  0.132201  -0.006737  3.705903  -0.008  0.102945  -0.00068  3.96242  -0.002  0.113276  -0.001766  3.979282  -0.003  0.045311  0.096155  0.000144  3.951843  -0.001
C  C42  1  0.19918305  0.35418465  0.73977531  1  0.631982  0.005537  3.946623  0.008  0.586766  0.000777  4.253817  0.003  0.62296  0.001078  4.247705  0.003  0.182398  0.562032  0.000524  4.257218  0.003
C  C43  1  0.80081595  0.64581708  0.23977410  1  0.631675  -0.00554  3.947255  -0.008  0.586476  -0.000777  4.254445  -0.003  0.622671  -0.001077  4.248335  -0.003  0.182171  0.561734  -0.000523  4.257852  -0.003
C  C44  1  0.21968658  0.40422132  0.84146947  1  -0.068575  -0.010876  3.770341  -0.011  -0.064778  -0.00408  4.018294  -0.005  -0.06283  -0.002826  4.034366  -0.003  -0.029908  -0.065595  -0.00513  4.006841  -0.006
C  C45  1  0.78031672  0.59579146  0.34146542  1  -0.06847  0.010872  3.770433  0.011  -0.064723  0.004078  4.018373  0.005  -0.062781  0.002826  4.034457  0.003  -0.029942  -0.065545  0.005128  4.006927  0.006
C  C46  1  0.09810744  0.36001741  0.90680913  1  -0.114485  0.011314  3.598523  0.01  -0.097432  0.001384  3.865001  0.001  -0.10189  0.000901  3.888767  0.001  -0.061164  -0.094548  0.002247  3.848684  0.002
C  C47  1  0.90188967  0.63999435  0.40680630  1  -0.114462  -0.011314  3.598426  -0.01  -0.097325  -0.001383  3.864904  -0.001  -0.101797  -0.000901  3.88866  -0.001  -0.061086  -0.094436  -0.002247  3.84859  -0.002
C  C48  1  0.10150870  0.43357393  0.99419012  1  0.270579  -0.001976  3.887186  -0.002  0.247893  -0.000272  4.15624  0.0  0.259027  -0.000295  4.179324  0.0  0.08747  0.240682  -0.000267  4.139936  0.0
C  C49  1  0.89849318  0.56643999  0.49418789  1  0.270551  0.001979  3.887201  0.002  0.247704  0.000272  4.156455  0.0  0.258881  0.000295  4.179474  0.0  0.087306  0.240482  0.000267  4.140167  0.0
C  C50  1  0.24268262  0.54513450  0.01651468  1  -0.106455  -0.005348  3.582471  -0.005  -0.089296  0.000575  3.847954  0.001  -0.093538  0.000716  3.870643  0.001  -0.061674  -0.086402  -9.5e-05  3.832195  0.0
C  C51  1  0.75731991  0.45488158  0.51651282  1  -0.106359  0.005354  3.58237  0.005  -0.089124  -0.000574  3.84791  -0.001  -0.093376  -0.000715  3.870585  -0.001  -0.06153  -0.086228  9.6e-05  3.832158  0.0
C  C52  1  0.37130301  0.58225109  0.95645086  1  -0.053166  0.009877  3.764086  0.01  -0.048132  0.003728  4.009052  0.004  -0.04593  0.002264  4.025162  0.003  -0.026359  -0.049273  0.005022  3.997667  0.006
C  C53  1  0.62869793  0.41776284  0.45645318  1  -0.053081  -0.009877  3.76379  -0.01  -0.048143  -0.003726  4.008919  -0.004  -0.045941  -0.002266  4.025031  -0.003  -0.026369  -0.049276  -0.005023  3.997526  -0.006
C  C54  1  0.35542131  0.51556495  0.86769310  1  -0.040628  -0.000615  3.654873  0.0  -0.031308  0.000123  3.918721  0.0  -0.033897  0.000296  3.941538  0.0  -0.063168  -0.02961  -0.000367  3.902972  0.0
C  C55  1  0.64457742  0.48445454  0.36769056  1  -0.040617  0.000606  3.654646  0.0  -0.031195  -0.000124  3.918435  0.0  -0.033789  -0.000296  3.941263  0.0  -0.063111  -0.029493  0.000367  3.902679  0.0
C  C56  1  0.52459559  0.69263553  0.98734309  1  0.624099  -0.003575  3.977173  -0.006  0.582892  0.000558  4.286017  -0.002  0.618886  0.000167  4.279166  -0.001  0.176567  0.55832  0.000863  4.290046  -0.002
C  C57  1  0.47540265  0.30737067  0.48734204  1  0.6241  0.003576  3.976929  0.006  0.582845  -0.000559  4.285922  0.002  0.618839  -0.000165  4.279073  0.001  0.17651  0.558262  -0.000863  4.289965  0.002
I  I58  1  0.25652800  0.66814015  0.14145935  1  0.049368  -0.001023  1.468745  0.0  0.031381  -0.00011  1.780444  0.0  0.028683  -7.7e-05  1.771416  0.0  0.121206  0.034103  -0.000267  1.786738  0.0
I  I59  1  0.74347360  0.33187485  0.64145734  1  0.049349  0.001021  1.468685  0.0  0.031344  0.000108  1.780369  0.0  0.02865  7.8e-05  1.771337  0.0  0.121179  0.03407  0.000268  1.786671  0.0
I  I60  1  0.89566907  0.18388333  0.87357704  1  0.065038  0.001787  1.317013  0.001  0.061627  9.6e-05  1.58447  0.0  0.058018  -1.6e-05  1.57599  0.0  0.134519  0.064731  0.000361  1.590444  0.0
I  I61  1  0.10433373  0.81612835  0.37357185  1  0.065044  -0.00179  1.316922  -0.001  0.061634  -9.5e-05  1.584349  0.0  0.058022  1.7e-05  1.575871  0.0  0.134537  0.064737  -0.000362  1.590315  0.0
I  I62  1  0.52974270  0.60072635  0.76682688  1  0.02534  -0.001505  1.489363  -0.001  0.006138  7.5e-05  1.800043  0.0  0.002892  0.000107  1.789811  0.0  0.114324  0.008957  -0.000194  1.807514  0.0
I  I63  1  0.47025684  0.39929423  0.26682598  1  0.025312  0.001501  1.489376  0.001  0.00609  -7.7e-05  1.800049  0.0  0.002842  -0.000107  1.789812  0.0  0.114327  0.008909  0.000192  1.807512  0.0
N  N64  1  0.00462573  0.06274425  0.58965681  1  -0.347252  -0.066316  3.369128  -0.08  -0.30482  -0.052039  3.674122  -0.067  -0.335321  -0.044368  3.691952  -0.06  -0.352406  -0.287327  -0.055282  3.665125  -0.069
N  N65  1  0.99537986  0.93725515  0.08964931  1  -0.347199  0.066312  3.36899  0.08  -0.304789  0.052037  3.674053  0.067  -0.33528  0.044363  3.691865  0.06  -0.352359  -0.287294  0.055279  3.665043  0.069
N  N66  1  0.06884228  0.26034485  0.45766481  1  -0.32664  -0.077865  3.317429  -0.094  -0.282765  -0.061344  3.613611  -0.08  -0.313725  -0.051482  3.633002  -0.071  -0.344646  -0.264787  -0.066199  3.603307  -0.083
N  N67  1  0.93115729  0.73964136  0.95766511  1  -0.326684  0.077866  3.31757  0.094  -0.282774  0.061345  3.613684  0.08  -0.313731  0.051482  3.633069  0.071  -0.344567  -0.264803  0.066198  3.60339  0.083
N  N68  1  0.97792521  0.39695385  0.05453222  1  -0.65083  -0.001884  3.163679  -0.002  -0.614221  -3.9e-05  3.389925  0.0  -0.635162  -5.3e-05  3.392132  0.0  -0.597576  -0.599027  -0.00011  3.387546  0.0
N  N69  1  0.02208197  0.60305663  0.55452783  1  -0.650991  0.001881  3.16352  0.002  -0.614302  3.8e-05  3.389814  0.0  -0.63525  5.3e-05  3.391983  0.0  -0.59758  -0.599103  0.00011  3.387436  0.0
O  O70  1  0.24535947  0.24484842  0.71328344  1  -0.578754  -0.094169  1.963032  -0.12  -0.553078  -0.05996  2.220085  -0.084  -0.595736  -0.044805  2.212603  -0.067  -0.32456  -0.523986  -0.069494  2.225034  -0.093
O  O71  1  0.75463745  0.75515000  0.21327827  1  -0.578683  0.094174  1.963206  0.12  -0.552997  0.059957  2.220218  0.084  -0.595652  0.044803  2.212728  0.067  -0.324512  -0.523893  0.069494  2.22515  0.093
O  O72  1  0.13967195  0.42697785  0.68565934  1  -0.626973  7.9e-05  2.012011  -0.001  -0.587866  0.00045  2.26125  -0.001  -0.617395  0.001347  2.253135  0.001  -0.317168  -0.566771  -0.000635  2.266446  -0.002
O  O73  1  0.86033944  0.57303703  0.18565650  1  -0.626796  -7.3e-05  2.012219  0.001  -0.587725  -0.000449  2.261509  0.001  -0.617224  -0.001348  2.253332  -0.001  -0.317048  -0.566634  0.000636  2.266712  0.002
O  O74  1  0.61315781  0.62696603  0.03022970  1  -0.59081  0.096406  2.031411  0.123  -0.56975  0.05348  2.314823  0.075  -0.614889  0.040375  2.306964  0.06  -0.341059  -0.539399  0.060962  2.320275  0.082
O  O75  1  0.38684359  0.37304008  0.53023408  1  -0.590918  -0.096403  2.031323  -0.123  -0.569812  -0.05348  2.314743  -0.075  -0.614955  -0.040375  2.306889  -0.06  -0.341113  -0.539456  -0.060962  2.320201  -0.082
O  O76  1  0.55378005  0.82682728  0.97175631  1  -0.606736  -0.001073  1.887393  -0.001  -0.582907  -0.00056  2.103196  0.0  -0.606881  -0.001112  2.093508  -0.001  -0.340619  -0.565666  1.4e-05  2.109373  0.0
O  O77  1  0.44621900  0.17318113  0.47174811  1  -0.606701  0.001073  1.887316  0.001  -0.582844  0.000559  2.103161  0.0  -0.606817  0.001112  2.093476  0.001  -0.34054  -0.565598  -1.4e-05  2.109341  0.0
