# generated using pymatgen
data_Cu4H40C44N12O11
_symmetry_space_group_name_H-M   'P 1'
_cell_length_a   16.36884619
_cell_length_b   16.54033791
_cell_length_c   16.53930603
_cell_angle_alpha   89.99884737
_cell_angle_beta   90.00132830
_cell_angle_gamma   90.00016029
_symmetry_Int_Tables_number   1
_chemical_formula_structural   Cu4H40C44N12O11
_chemical_formula_sum   'Cu8 H80 C88 N24 O22'
_cell_volume   4477.95503783
_cell_formula_units_Z   2
loop_
 _symmetry_equiv_pos_site_id
 _symmetry_equiv_pos_as_xyz
  1  'x, y, z'
loop_
 _atom_site_type_symbol
 _atom_site_label
 _atom_site_symmetry_multiplicity
 _atom_site_fract_x
 _atom_site_fract_y
 _atom_site_fract_z
 _atom_site_occupancy
 _atom_site_pbe_bader_charge
 _atom_site_pbe_bader_spin_density
 _atom_site_pbe_cm5_charge
 _atom_site_pbe_ddec_charge
 _atom_site_pbe_ddec_spin_density
 _atom_site_pbe_ddec_sum_bond_order
 _atom_site_pbe_magmom
Cu  Cu0  1  0.41925374  0.42216614  0.53986122  1  1.097962  0  0.733768  0.883752  0  2.536438  0
Cu  Cu1  1  0.41922641  0.57781293  0.46008398  1  1.098623  0  0.733658  0.883836  0  2.536235  0
Cu  Cu2  1  0.58062604  0.53997747  0.57782708  1  1.098552  0  0.734299  0.884111  0  2.536715  0
Cu  Cu3  1  0.58065573  0.46002093  0.42212560  1  1.099236  0  0.734289  0.883888  0  2.537119  0
Cu  Cu4  1  0.08064060  0.07787052  0.03991090  1  1.098304  0  0.73435  0.883814  0  2.537056  0
Cu  Cu5  1  0.08063422  0.92213336  0.96011248  1  1.09877  0  0.734283  0.883994  0  2.53729  0
Cu  Cu6  1  0.91931077  0.96002111  0.07786032  1  1.09911  0  0.73419  0.883858  0  2.537564  0
Cu  Cu7  1  0.91929181  0.03994883  0.92221734  1  1.097918  0  0.733873  0.884028  0  2.53648  0
H  H8  1  0.19626997  0.18315403  0.51451440  1  0.08089  0  0.10657  0.111086  0  0.996024  0
H  H9  1  0.10532761  0.10032910  0.60610276  1  0.065857  0  0.108425  0.115058  0  0.98635  0
H  H10  1  0.20062501  0.22695386  0.81323657  1  0.130304  0  0.116317  0.139424  0  0.983595  0
H  H11  1  0.28779252  0.31114661  0.72086070  1  0.092715  0  0.104863  0.103726  0  1.027971  0
H  H12  1  0.24351434  0.02845367  0.74774014  1  0.077515  0  0.106769  0.153855  0  0.98083  0
H  H13  1  0.18339286  0.95617430  0.69529328  1  0.058992  0  0.100796  0.142397  0  0.980587  0
H  H14  1  0.20796496  0.94038835  0.79979838  1  0.121107  0  0.110957  0.174678  0  1.007623  0
H  H15  1  0.93430800  0.20348792  0.84220470  1  0.141447  0  0.107027  0.160009  0  1.029235  0
H  H16  1  0.97565949  0.22788203  0.74483445  1  0.05258  0  0.104864  0.152409  0  0.973908  0
H  H17  1  0.03106321  0.25262896  0.83431128  1  0.068227  0  0.109144  0.162933  0  0.968174  0
H  H18  1  0.19630277  0.81687986  0.48546255  1  0.081014  0  0.106596  0.110879  0  0.996107  0
H  H19  1  0.10533921  0.89969469  0.39388001  1  0.065693  0  0.108496  0.115129  0  0.986278  0
H  H20  1  0.20057020  0.77306037  0.18673763  1  0.129758  0  0.116358  0.13952  0  0.983526  0
H  H21  1  0.28775584  0.68882843  0.27910312  1  0.092673  0  0.104815  0.103434  0  1.027803  0
H  H22  1  0.24344012  0.97151985  0.25225069  1  0.073851  0  0.106769  0.153909  0  0.980949  0
H  H23  1  0.18335826  0.04382006  0.30471913  1  0.058195  0  0.100932  0.142563  0  0.980755  0
H  H24  1  0.20790813  0.05960174  0.20020245  1  0.121246  0  0.111023  0.175032  0  1.007434  0
H  H25  1  0.93426431  0.79649179  0.15782766  1  0.145019  0  0.107042  0.160132  0  1.029273  0
H  H26  1  0.97565292  0.77210908  0.25518686  1  0.052441  0  0.10494  0.152531  0  0.973906  0
H  H27  1  0.03103358  0.74737863  0.16569295  1  0.06836  0  0.109109  0.162893  0  0.968101  0
H  H28  1  0.80392821  0.51444479  0.81676424  1  0.079332  0  0.10663  0.111157  0  0.995849  0
H  H29  1  0.89487823  0.60604544  0.89959179  1  0.065693  0  0.108582  0.115116  0  0.98637  0
H  H30  1  0.79936076  0.81318580  0.77304155  1  0.131311  0  0.11637  0.139243  0  0.983615  0
H  H31  1  0.71220991  0.72076720  0.68889205  1  0.094455  0  0.104819  0.103513  0  1.027947  0
H  H32  1  0.75651413  0.74759661  0.97152222  1  0.077081  0  0.106833  0.154005  0  0.980818  0
H  H33  1  0.81667719  0.69517555  0.04380637  1  0.056726  0  0.100758  0.142414  0  0.980822  0
H  H34  1  0.79206865  0.79967267  0.05957187  1  0.123165  0  0.110764  0.174968  0  1.007629  0
H  H35  1  0.06573567  0.84221298  0.79652552  1  0.140241  0  0.107004  0.160061  0  1.029788  0
H  H36  1  0.02440162  0.74484217  0.77212947  1  0.052621  0  0.104919  0.152766  0  0.973744  0
H  H37  1  0.96896940  0.83428911  0.74740897  1  0.069188  0  0.109246  0.16334  0  0.967846  0
H  H38  1  0.80391162  0.48558098  0.18323467  1  0.078643  0  0.106606  0.111111  0  0.995767  0
H  H39  1  0.89485774  0.39398922  0.10039405  1  0.065525  0  0.108638  0.115335  0  0.986335  0
H  H40  1  0.79939290  0.18683366  0.22693172  1  0.131738  0  0.116459  0.139325  0  0.983337  0
H  H41  1  0.71223824  0.27923462  0.31110246  1  0.0945  0  0.104839  0.103642  0  1.027881  0
H  H42  1  0.75658169  0.25240491  0.02846886  1  0.073967  0  0.10694  0.154002  0  0.980795  0
H  H43  1  0.81674966  0.30483172  0.95619518  1  0.057149  0  0.100775  0.142403  0  0.980876  0
H  H44  1  0.79211282  0.20034795  0.94039228  1  0.122998  0  0.110783  0.175056  0  1.007658  0
H  H45  1  0.06571726  0.15778778  0.20353831  1  0.141048  0  0.107036  0.160165  0  1.029439  0
H  H46  1  0.02438208  0.25516592  0.22793574  1  0.05398  0  0.10491  0.152605  0  0.973727  0
H  H47  1  0.96896822  0.16572970  0.25266848  1  0.06773  0  0.10911  0.16294  0  0.968062  0
H  H48  1  0.30378795  0.31679806  0.01447503  1  0.080164  0  0.106451  0.110952  0  0.995759  0
H  H49  1  0.39475405  0.39960621  0.10607151  1  0.066114  0  0.108498  0.115106  0  0.986769  0
H  H50  1  0.29941000  0.27303894  0.31319875  1  0.131223  0  0.116246  0.139129  0  0.98377  0
H  H51  1  0.21222354  0.18884626  0.22081535  1  0.093219  0  0.104816  0.103411  0  1.028039  0
H  H52  1  0.25650265  0.47146312  0.24773259  1  0.072634  0  0.106654  0.153776  0  0.980994  0
H  H53  1  0.31657315  0.54375656  0.19525096  1  0.05761  0  0.100859  0.142634  0  0.980994  0
H  H54  1  0.29203068  0.55954740  0.29975463  1  0.122818  0  0.110957  0.17511  0  1.007409  0
H  H55  1  0.56576754  0.29650553  0.34218715  1  0.144784  0  0.107061  0.160257  0  1.029328  0
H  H56  1  0.52440564  0.27212019  0.24482189  1  0.052758  0  0.104936  0.152648  0  0.973939  0
H  H57  1  0.46901172  0.24735774  0.33428723  1  0.068111  0  0.109271  0.163216  0  0.967913  0
H  H58  1  0.30381032  0.68322535  0.98548031  1  0.080938  0  0.106428  0.110861  0  0.996129  0
H  H59  1  0.39477458  0.60041218  0.89390522  1  0.066378  0  0.108542  0.115151  0  0.986544  0
H  H60  1  0.29939413  0.72695397  0.68677386  1  0.130456  0  0.116272  0.139358  0  0.983552  0
H  H61  1  0.21219139  0.81114835  0.77914949  1  0.092904  0  0.104819  0.105825  0  1.02547  0
H  H62  1  0.25650740  0.52854509  0.75226509  1  0.072449  0  0.106648  0.153784  0  0.980927  0
H  H63  1  0.31659810  0.45625681  0.80475055  1  0.057214  0  0.100858  0.142618  0  0.980851  0
H  H64  1  0.29202531  0.44045936  0.70024515  1  0.121041  0  0.110935  0.175057  0  1.00737  0
H  H65  1  0.56576259  0.70347100  0.65780296  1  0.144367  0  0.107086  0.160204  0  1.029475  0
H  H66  1  0.52440638  0.72786973  0.75516234  1  0.052725  0  0.104903  0.152677  0  0.973797  0
H  H67  1  0.46899286  0.75262122  0.66569887  1  0.06826  0  0.10917  0.163156  0  0.967808  0
H  H68  1  0.69608631  0.98556460  0.31680960  1  0.079016  0  0.106673  0.111163  0  0.995811  0
H  H69  1  0.60513632  0.89395152  0.39961536  1  0.065039  0  0.108561  0.115119  0  0.986127  0
H  H70  1  0.70061588  0.68680358  0.27303527  1  0.131193  0  0.11639  0.139293  0  0.98348  0
H  H71  1  0.78777264  0.77922048  0.18889597  1  0.09434  0  0.104822  0.103746  0  1.02804  0
H  H72  1  0.74343737  0.75237596  0.47153136  1  0.074156  0  0.106819  0.153897  0  0.980641  0
H  H73  1  0.68326879  0.80480505  0.54379837  1  0.057214  0  0.100732  0.14239  0  0.980816  0
H  H74  1  0.70787809  0.70031184  0.55959767  1  0.122498  0  0.110761  0.174853  0  1.007854  0
H  H75  1  0.43429622  0.65775576  0.29644923  1  0.140892  0  0.106979  0.160032  0  1.029781  0
H  H76  1  0.47562048  0.75513423  0.27203972  1  0.053471  0  0.104805  0.152476  0  0.973758  0
H  H77  1  0.53105043  0.66567865  0.24734586  1  0.06754  0  0.109063  0.162834  0  0.968321  0
H  H78  1  0.69609139  0.01445536  0.68317528  1  0.079049  0  0.106579  0.110996  0  0.995907  0
H  H79  1  0.60514769  0.10607768  0.60036385  1  0.06486  0  0.108614  0.115108  0  0.986251  0
H  H80  1  0.70061744  0.31321605  0.72690935  1  0.131298  0  0.116288  0.139225  0  0.983496  0
H  H81  1  0.78778513  0.22080106  0.81109029  1  0.093951  0  0.104818  0.103603  0  1.027797  0
H  H82  1  0.74342447  0.24765556  0.52847163  1  0.074385  0  0.106919  0.153986  0  0.98081  0
H  H83  1  0.68329135  0.19521950  0.45617782  1  0.057135  0  0.100793  0.142542  0  0.980971  0
H  H84  1  0.70789627  0.29972356  0.44039174  1  0.122098  0  0.110934  0.175166  0  1.007486  0
H  H85  1  0.43430029  0.34222399  0.70351356  1  0.14112  0  0.107033  0.160015  0  1.029584  0
H  H86  1  0.47562755  0.24484485  0.72792652  1  0.052989  0  0.104821  0.1524  0  0.97374  0
H  H87  1  0.53104231  0.33429928  0.75264088  1  0.068013  0  0.109044  0.162821  0  0.968126  0
C  C88  1  0.30185355  0.29985390  0.55605861  1  1.590655  0  0.196985  0.562744  0  4.227976  0
C  C89  1  0.24664964  0.25223336  0.61220228  1  -0.081228  0  -0.010647  -0.015522  0  3.92818  0
C  C90  1  0.19550471  0.19268556  0.57974447  1  0.001124  0  -0.080366  -0.080056  0  3.984492  0
C  C91  1  0.14574074  0.14686485  0.63033109  1  0.01444  0  -0.089961  -0.174094  0  4.008992  0
C  C92  1  0.14814377  0.16014688  0.71380713  1  0.230988  0  0.089424  0.175323  0  4.042955  0
C  C93  1  0.19877926  0.21901978  0.74765430  1  -0.028662  0  -0.083096  -0.165882  0  3.96428  0
C  C94  1  0.24742581  0.26516050  0.69606893  1  0.020623  0  -0.08163  -0.082415  0  3.972363  0
C  C95  1  0.19243996  0.98595808  0.75413223  1  -0.07739  0  -0.22332  -0.460793  0  3.92493  0
C  C96  1  0.11783078  0.02881323  0.78151732  1  0.972622  0  0.236504  0.354475  0  3.942861  0
C  C97  1  0.02984723  0.12726270  0.80543480  1  1.026745  0  0.243809  0.363856  0  3.921403  0
C  C98  1  0.99032515  0.20771156  0.80649600  1  -0.078064  0  -0.225093  -0.470811  0  3.943476  0
C  C99  1  0.30186296  0.70017932  0.44392953  1  1.590079  0  0.196799  0.562518  0  4.228535  0
C  C100  1  0.24664553  0.74777741  0.38777621  1  -0.081123  0  -0.010565  -0.015305  0  3.927831  0
C  C101  1  0.19550836  0.80732844  0.42023617  1  0.000858  0  -0.080397  -0.079973  0  3.984838  0
C  C102  1  0.14574424  0.85315107  0.36965278  1  0.013944  0  -0.090027  -0.174036  0  4.009175  0
C  C103  1  0.14813629  0.83985133  0.28618139  1  0.217884  0  0.089464  0.175087  0  4.043415  0
C  C104  1  0.19875595  0.78097221  0.25232608  1  -0.029367  0  -0.083125  -0.165925  0  3.964258  0
C  C105  1  0.24740886  0.73482905  0.30390830  1  0.021736  0  -0.081598  -0.082048  0  3.971488  0
C  C106  1  0.19239062  0.01404164  0.24587887  1  -0.072822  0  -0.223623  -0.461389  0  3.925013  0
C  C107  1  0.11776328  0.97120115  0.21853644  1  0.973287  0  0.236452  0.35479  0  3.942734  0
C  C108  1  0.02980650  0.87273773  0.19460036  1  1.0271  0  0.243863  0.363798  0  3.921523  0
C  C109  1  0.99029538  0.79228389  0.19352176  1  -0.082352  0  -0.225196  -0.471019  0  3.943487  0
C  C110  1  0.69819063  0.55602762  0.70014708  1  1.590287  0  0.197156  0.563451  0  4.227873  0
C  C111  1  0.75342341  0.61214933  0.74777060  1  -0.079785  0  -0.010619  -0.015782  0  3.928102  0
C  C112  1  0.80461757  0.57968059  0.80728644  1  -0.00453  0  -0.080515  -0.079905  0  3.984291  0
C  C113  1  0.85438292  0.63027204  0.85311013  1  0.018517  0  -0.089905  -0.174168  0  4.008874  0
C  C114  1  0.85192108  0.71374877  0.83984858  1  0.236622  0  0.089208  0.174955  0  4.042287  0
C  C115  1  0.80124813  0.74760853  0.78100403  1  -0.03646  0  -0.083035  -0.165325  0  3.963387  0
C  C116  1  0.75260742  0.69600924  0.73487120  1  0.02034  0  -0.081598  -0.082231  0  3.97255  0
C  C117  1  0.80759523  0.75399520  0.01401411  1  -0.076292  0  -0.223173  -0.461197  0  3.925016  0
C  C118  1  0.88221954  0.78139778  0.97119930  1  0.971684  0  0.236638  0.355105  0  3.942792  0
C  C119  1  0.97019121  0.80541001  0.87276489  1  1.026774  0  0.24385  0.364267  0  3.921075  0
C  C120  1  0.00972510  0.80649271  0.79231871  1  -0.078514  0  -0.225305  -0.472026  0  3.943768  0
C  C121  1  0.69817735  0.44396376  0.29984187  1  1.589637  0  0.196973  0.563215  0  4.227817  0
C  C122  1  0.75341723  0.38786512  0.25221105  1  -0.079646  0  -0.010609  -0.015802  0  3.927927  0
C  C123  1  0.80460842  0.42034332  0.19270275  1  -0.004324  0  -0.080454  -0.079879  0  3.984401  0
C  C124  1  0.85437666  0.36975418  0.14687762  1  0.018654  0  -0.089974  -0.174365  0  4.008944  0
C  C125  1  0.85192795  0.28627703  0.16013453  1  0.236143  0  0.089111  0.174609  0  4.042368  0
C  C126  1  0.80126389  0.25241140  0.21898239  1  -0.03652  0  -0.083254  -0.16556  0  3.963336  0
C  C127  1  0.75261796  0.30400224  0.26511414  1  0.020882  0  -0.081525  -0.082097  0  3.972005  0
C  C128  1  0.80765073  0.24600490  0.98596577  1  -0.072726  0  -0.223146  -0.461152  0  3.925157  0
C  C129  1  0.88225014  0.21858282  0.02880686  1  0.970926  0  0.236537  0.354953  0  3.942497  0
C  C130  1  0.97018946  0.19458030  0.12728103  1  1.026324  0  0.243993  0.36399  0  3.921549  0
C  C131  1  0.00971199  0.19351466  0.20774037  1  -0.079546  0  -0.225124  -0.471262  0  3.943817  0
C  C132  1  0.19811186  0.20017386  0.05604678  1  1.588798  0  0.196936  0.562664  0  4.228863  0
C  C133  1  0.25335215  0.24777577  0.11217021  1  -0.080679  0  -0.010785  -0.015907  0  3.928699  0
C  C134  1  0.30452965  0.30729122  0.07970691  1  -0.001127  0  -0.080242  -0.079502  0  3.984496  0
C  C135  1  0.35429937  0.35310578  0.13029503  1  0.016537  0  -0.089984  -0.17459  0  4.010073  0
C  C136  1  0.35188607  0.33983714  0.21376917  1  0.236926  0  0.089393  0.175718  0  4.042772  0
C  C137  1  0.30124201  0.28097502  0.24761952  1  -0.034943  0  -0.083126  -0.165743  0  3.964232  0
C  C138  1  0.25258591  0.23484134  0.19603551  1  0.019704  0  -0.081517  -0.08195  0  3.972429  0
C  C139  1  0.30756155  0.51397876  0.25409288  1  -0.072516  0  -0.223299  -0.461433  0  3.925496  0
C  C140  1  0.38219963  0.47116575  0.28146007  1  0.972525  0  0.236877  0.355428  0  3.942589  0
C  C141  1  0.47019718  0.37273113  0.30539828  1  1.026937  0  0.243812  0.363827  0  3.921526  0
C  C142  1  0.50974224  0.29228797  0.30648354  1  -0.08274  0  -0.225267  -0.47155  0  3.943697  0
C  C143  1  0.19814471  0.79977585  0.94399048  1  1.587994  0  0.196604  0.562605  0  4.228888  0
C  C144  1  0.25336241  0.75223329  0.88779810  1  -0.080312  0  -0.0106  -0.015761  0  3.929235  0
C  C145  1  0.30455254  0.69272548  0.92025018  1  -0.001819  0  -0.080308  -0.079731  0  3.984851  0
C  C146  1  0.35432252  0.64691202  0.86967273  1  0.015344  0  -0.08992  -0.173961  0  4.009609  0
C  C147  1  0.35188637  0.66017842  0.78620120  1  0.233024  0  0.089392  0.175005  0  4.043786  0
C  C148  1  0.30123007  0.71903347  0.75235597  1  -0.029499  0  -0.083292  -0.166224  0  3.965426  0
C  C149  1  0.25256959  0.76516838  0.80393527  1  0.020379  0  -0.081554  -0.083774  0  3.971895  0
C  C150  1  0.30756444  0.48602683  0.74590751  1  -0.070054  0  -0.223237  -0.461293  0  3.925194  0
C  C151  1  0.38220444  0.52883242  0.71854060  1  0.97288  0  0.236763  0.355124  0  3.942615  0
C  C152  1  0.47019181  0.62726709  0.69459438  1  1.027114  0  0.243823  0.363949  0  3.921734  0
C  C153  1  0.50973662  0.70770305  0.69350183  1  -0.082413  0  -0.225196  -0.471567  0  3.943662  0
C  C154  1  0.80181227  0.94396104  0.20014611  1  1.590969  0  0.197148  0.563423  0  4.227383  0
C  C155  1  0.74658060  0.88785459  0.24779080  1  -0.079566  0  -0.010682  -0.015847  0  3.927761  0
C  C156  1  0.69538903  0.92032670  0.30731200  1  -0.003747  0  -0.080524  -0.079924  0  3.983713  0
C  C157  1  0.64562029  0.86972384  0.35312395  1  0.018349  0  -0.089841  -0.174001  0  4.008189  0
C  C158  1  0.64807679  0.78624429  0.33985174  1  0.223193  0  0.08922  0.174811  0  4.042003  0
C  C159  1  0.69874234  0.75238459  0.28100211  1  -0.036569  0  -0.083162  -0.165571  0  3.963375  0
C  C160  1  0.74738824  0.80398934  0.23488198  1  0.020764  0  -0.081463  -0.082362  0  3.972579  0
C  C161  1  0.69235677  0.74597466  0.51402344  1  -0.07313  0  -0.223072  -0.460889  0  3.924549  0
C  C162  1  0.61775025  0.71855312  0.47117831  1  0.972619  0  0.236577  0.354883  0  3.94205  0
C  C163  1  0.52979918  0.69456569  0.37271389  1  1.027778  0  0.243972  0.363957  0  3.921782  0
C  C164  1  0.49029710  0.69348933  0.29224818  1  -0.079563  0  -0.224849  -0.470721  0  3.944292  0
C  C165  1  0.80183850  0.05604857  0.79985719  1  1.591717  0  0.197093  0.563157  0  4.227285  0
C  C166  1  0.74659873  0.11215916  0.75220408  1  -0.079543  0  -0.010588  -0.015678  0  3.927511  0
C  C167  1  0.69540190  0.07969089  0.69268078  1  -0.002819  0  -0.080499  -0.079964  0  3.983977  0
C  C168  1  0.64562911  0.13029145  0.64686664  1  0.018273  0  -0.089972  -0.173852  0  4.008643  0
C  C169  1  0.64808743  0.21377020  0.66013140  1  0.222998  0  0.089398  0.174743  0  4.042872  0
C  C170  1  0.69875400  0.24762912  0.71897893  1  -0.03625  0  -0.083068  -0.165412  0  3.963456  0
C  C171  1  0.74739963  0.19602798  0.76510679  1  0.021053  0  -0.081602  -0.08228  0  3.972377  0
C  C172  1  0.69236592  0.25405224  0.48595387  1  -0.073101  0  -0.223391  -0.461401  0  3.924852  0
C  C173  1  0.61775544  0.28144853  0.52879388  1  0.972694  0  0.236371  0.35466  0  3.942271  0
C  C174  1  0.52980712  0.30543229  0.62725905  1  1.027245  0  0.243823  0.363811  0  3.921247  0
C  C175  1  0.49030059  0.30649348  0.70772236  1  -0.079035  0  -0.225078  -0.470827  0  3.943673  0
N  N176  1  0.05989946  0.99906577  0.82809009  1  -0.701418  0  -0.232087  -0.273268  0  3.304438  0
N  N177  1  0.00534724  0.06055767  0.84268537  1  -0.753911  0  -0.271015  -0.263416  0  3.616652  0
N  N178  1  0.10073226  0.10886780  0.76517355  1  -1.265658  0  -0.216495  -0.139148  0  3.689195  0
N  N179  1  0.05979332  0.00096806  0.17202921  1  -0.700511  0  -0.23177  -0.273061  0  3.304494  0
N  N180  1  0.00526700  0.93946212  0.15741638  1  -0.755241  0  -0.271408  -0.263466  0  3.618083  0
N  N181  1  0.10070910  0.89112731  0.23483013  1  -1.252051  0  -0.216653  -0.139276  0  3.68935  0
N  N182  1  0.94013337  0.82796520  0.00098922  1  -0.699909  0  -0.232249  -0.273909  0  3.305255  0
N  N183  1  0.99466659  0.84262603  0.93949628  1  -0.754233  0  -0.271116  -0.263006  0  3.617793  0
N  N184  1  0.89932438  0.76511459  0.89113461  1  -1.264903  0  -0.216621  -0.139434  0  3.68925  0
N  N185  1  0.94014593  0.17197658  0.99905599  1  -0.700858  0  -0.232068  -0.273746  0  3.305279  0
N  N186  1  0.99466438  0.15733282  0.06056286  1  -0.752929  0  -0.271531  -0.263324  0  3.618553  0
N  N187  1  0.89934380  0.23490100  0.10886842  1  -1.263962  0  -0.216468  -0.138742  0  3.688674  0
N  N188  1  0.44012357  0.50093678  0.32802697  1  -0.70116  0  -0.232269  -0.27378  0  3.304816  0
N  N189  1  0.49468109  0.43945443  0.34262243  1  -0.753551  0  -0.271245  -0.263081  0  3.618049  0
N  N190  1  0.39931136  0.39111166  0.26512834  1  -1.265636  0  -0.216738  -0.139699  0  3.689041  0
N  N191  1  0.44014268  0.49905221  0.67200066  1  -0.700837  0  -0.232096  -0.273527  0  3.304348  0
N  N192  1  0.49468631  0.56054376  0.65738527  1  -0.753985  0  -0.271299  -0.263352  0  3.617975  0
N  N193  1  0.39930099  0.60889551  0.73484803  1  -1.266715  0  -0.216811  -0.139345  0  3.689269  0
N  N194  1  0.55983165  0.67196852  0.50093175  1  -0.70118  0  -0.231807  -0.273456  0  3.304767  0
N  N195  1  0.50529859  0.65732497  0.43942764  1  -0.754972  0  -0.271156  -0.263566  0  3.616702  0
N  N196  1  0.60066222  0.73486245  0.39111536  1  -1.250324  0  -0.216742  -0.139001  0  3.689264  0
N  N197  1  0.55982227  0.32800544  0.49903161  1  -0.700772  0  -0.232017  -0.273489  0  3.304686  0
N  N198  1  0.50529510  0.34265127  0.56053268  1  -0.754692  0  -0.27074  -0.262781  0  3.616257  0
N  N199  1  0.60067980  0.26515197  0.60886238  1  -1.251317  0  -0.216625  -0.139077  0  3.68944  0
O  O200  1  0.33425161  0.36227429  0.59186771  1  -1.096969  0  -0.32739  -0.532062  0  2.394777  0
O  O201  1  0.31312753  0.27754614  0.48522958  1  -1.164457  0  -0.3436  -0.56306  0  2.060739  0
O  O202  1  0.33423672  0.63775046  0.40811309  1  -1.096888  0  -0.327574  -0.532147  0  2.394579  0
O  O203  1  0.31316480  0.72248866  0.51475285  1  -1.163585  0  -0.343295  -0.562843  0  2.061165  0
O  O204  1  0.66572224  0.59183276  0.63775415  1  -1.096801  0  -0.327696  -0.532807  0  2.394812  0
O  O205  1  0.68696292  0.48520039  0.72246552  1  -1.163773  0  -0.34377  -0.563353  0  2.06071  0
O  O206  1  0.66573157  0.40812358  0.36222339  1  -1.096387  0  -0.327672  -0.532742  0  2.394859  0
O  O207  1  0.68691111  0.51479788  0.27756117  1  -1.163754  0  -0.343628  -0.563264  0  2.060616  0
O  O208  1  0.16568103  0.13778182  0.09187310  1  -1.096897  0  -0.327563  -0.532172  0  2.394967  0
O  O209  1  0.18683442  0.22247014  0.98521353  1  -1.162765  0  -0.34345  -0.562948  0  2.06109  0
O  O210  1  0.16570291  0.86220841  0.90824406  1  -1.09593  0  -0.327276  -0.532238  0  2.3951  0
O  O211  1  0.18691475  0.77738187  0.01479678  1  -1.163351  0  -0.343475  -0.56309  0  2.061625  0
O  O212  1  0.83421844  0.90813824  0.13773090  1  -1.096483  0  -0.327676  -0.532513  0  2.394613  0
O  O213  1  0.81310062  0.01478229  0.22244892  1  -1.164595  0  -0.343724  -0.563381  0  2.060513  0
O  O214  1  0.83427990  0.09188102  0.86225297  1  -1.097054  0  -0.327539  -0.532511  0  2.394114  0
O  O215  1  0.81309603  0.98521376  0.77758858  1  -1.165043  0  -0.343774  -0.56328  0  2.060606  0
O  O216  1  0.50000050  0.49999316  0.49995799  1  -0.81946  0  -0.488996  -0.746454  0  2.42764  0
O  O217  1  0.99994851  0.99998981  0.00001792  1  -0.818918  0  -0.489006  -0.746389  0  2.428633  0
O  O218  1  0.35236212  0.50001743  0.50005137  1  -0.785135  0  -0.538788  -0.698189  0  1.724082  0
O  O219  1  0.64743484  0.49984251  0.50006594  1  -0.785684  0  -0.538308  -0.697204  0  1.72302  0
O  O220  1  0.14743944  0.99992324  0.00017722  1  -0.786032  0  -0.538554  -0.697597  0  1.723714  0
O  O221  1  0.85246103  0.99995302  0.00004477  1  -0.785104  0  -0.538587  -0.697618  0  1.723471  0
