# generated using pymatgen
data_ZnH24C32(N2O3)2
_symmetry_space_group_name_H-M   'P 1'
_cell_length_a   9.03201109
_cell_length_b   13.00718096
_cell_length_c   13.01553771
_cell_angle_alpha   109.67439698
_cell_angle_beta   105.39822864
_cell_angle_gamma   89.55330292
_symmetry_Int_Tables_number   1
_chemical_formula_structural   ZnH24C32(N2O3)2
_chemical_formula_sum   'Zn2 H48 C64 N8 O12'
_cell_volume   1382.50944563
_cell_formula_units_Z   2
loop_
 _symmetry_equiv_pos_site_id
 _symmetry_equiv_pos_as_xyz
  1  'x, y, z'
loop_
 _atom_site_type_symbol
 _atom_site_label
 _atom_site_symmetry_multiplicity
 _atom_site_fract_x
 _atom_site_fract_y
 _atom_site_fract_z
 _atom_site_occupancy
 _atom_site_hle17_bader_spin_density
 _atom_site_hle17_ddec_charge
 _atom_site_hle17_ddec_spin_density
 _atom_site_hle17_ddec_sum_bond_order
 _atom_site_hle17_magmom
 _atom_site_hse06_10hf_bader_spin_density
 _atom_site_hse06_10hf_ddec_charge
 _atom_site_hse06_10hf_ddec_spin_density
 _atom_site_hse06_10hf_ddec_sum_bond_order
 _atom_site_hse06_10hf_magmom
 _atom_site_hse06_bader_spin_density
 _atom_site_hse06_ddec_charge
 _atom_site_hse06_ddec_spin_density
 _atom_site_hse06_ddec_sum_bond_order
 _atom_site_hse06_magmom
 _atom_site_pbe_bader_spin_density
 _atom_site_pbe_cm5_charge
 _atom_site_pbe_ddec_charge
 _atom_site_pbe_ddec_spin_density
 _atom_site_pbe_ddec_sum_bond_order
 _atom_site_pbe_magmom
Zn  Zn0  1  0.85174952  0.06353905  0.12827680  1  0  1.048342  0  1.782565  0  0  0.857147  0  2.243245  0  0  0.905728  0  2.188587  0  0  0.710228  0.822892  0  2.281682  0
Zn  Zn1  1  0.14825309  0.93645891  0.87172191  1  0  1.048454  0  1.782662  0  0  0.857204  0  2.243386  0  0  0.905759  0  2.188742  0  0  0.710244  0.822969  0  2.281799  0
H  H2  1  0.37935531  0.50622321  0.23020601  1  0  0.106764  0  0.952171  0  0  0.119616  0  1.008499  0  0  0.122913  0  1.006842  0  0  0.105276  0.117373  0  1.009755  0
H  H3  1  0.62060622  0.49376767  0.76978582  1  0  0.106839  0  0.952147  0  0  0.119677  0  1.008489  0  0  0.122976  0  1.006832  0  0  0.10532  0.117433  0  1.009745  0
H  H4  1  0.32371993  0.43428608  0.01924684  1  0  0.069571  0  0.972403  0  0  0.081092  0  1.035457  0  0  0.084235  0  1.032709  0  0  0.089221  0.078962  0  1.037186  0
H  H5  1  0.67627770  0.56571842  0.98074933  1  0  0.069564  0  0.972381  0  0  0.081078  0  1.035434  0  0  0.084218  0  1.03269  0  0  0.089223  0.078944  0  1.03717  0
H  H6  1  0.34521436  0.23553214  0.91934040  1  0  0.081108  0  0.983098  0  0  0.092216  0  1.047016  0  0  0.094118  0  1.047952  0  0  0.094502  0.091088  0  1.045951  0
H  H7  1  0.65480719  0.76447371  0.08065021  1  0  0.08112  0  0.983102  0  0  0.092268  0  1.046982  0  0  0.094176  0  1.047901  0  0  0.094524  0.091137  0  1.04592  0
H  H8  1  0.42249043  0.11266394  0.03017154  1  0  0.123012  0  0.955773  0  0  0.130109  0  1.020379  0  0  0.134256  0  1.016781  0  0  0.108818  0.127029  0  1.02324  0
H  H9  1  0.57752080  0.88733533  0.96980904  1  0  0.123022  0  0.955889  0  0  0.130171  0  1.020412  0  0  0.134323  0  1.016798  0  0  0.108898  0.127078  0  1.023291  0
H  H10  1  0.52178833  0.17736733  0.43809668  1  0  0.100694  0  0.957331  0  0  0.107458  0  1.023457  0  0  0.110083  0  1.022675  0  0  0.110091  0.105545  0  1.024186  0
H  H11  1  0.47821428  0.82263297  0.56189434  1  0  0.1007  0  0.957332  0  0  0.107428  0  1.023482  0  0  0.110055  0  1.022699  0  0  0.110046  0.105516  0  1.024213  0
H  H12  1  0.20810236  0.22163250  0.30086621  1  0  0.103183  0  0.939606  0  0  0.109047  0  1.005737  0  0  0.112044  0  1.004514  0  0  0.111146  0.106795  0  1.006869  0
H  H13  1  0.79188256  0.77835994  0.69913542  1  0  0.103169  0  0.939601  0  0  0.109016  0  1.005768  0  0  0.112012  0  1.004546  0  0  0.11115  0.106765  0  1.006897  0
H  H14  1  0.30471601  0.85170387  0.44993200  1  0  0.108073  0  0.956362  0  0  0.118003  0  1.018936  0  0  0.121969  0  1.016003  0  0  0.104246  0.115205  0  1.020964  0
H  H15  1  0.69528923  0.14828245  0.55005412  1  0  0.108154  0  0.956339  0  0  0.117999  0  1.019008  0  0  0.121959  0  1.016094  0  0  0.104247  0.115201  0  1.021037  0
H  H16  1  0.44172175  0.70778814  0.34130021  1  0  0.098753  0  0.989405  0  0  0.104964  0  1.05554  0  0  0.108963  0  1.051999  0  0  0.096166  0.101893  0  1.058296  0
H  H17  1  0.55829606  0.29220473  0.65869477  1  0  0.098673  0  0.989428  0  0  0.104914  0  1.055527  0  0  0.108912  0  1.051987  0  0  0.096114  0.10185  0  1.058287  0
H  H18  1  0.52857649  0.73393812  0.18327477  1  0  0.074859  0  0.978514  0  0  0.085501  0  1.042081  0  0  0.088372  0  1.041331  0  0  0.08959  0.083262  0  1.042798  0
H  H19  1  0.47145016  0.26606123  0.81672150  1  0  0.074865  0  0.978555  0  0  0.085592  0  1.042029  0  0  0.088468  0  1.041269  0  0  0.089644  0.083352  0  1.042742  0
H  H20  1  0.48007175  0.90596525  0.13968866  1  0  0.110834  0  0.966867  0  0  0.118642  0  1.032576  0  0  0.122119  0  1.029904  0  0  0.104942  0.115976  0  1.034704  0
H  H21  1  0.51995427  0.09403740  0.86031012  1  0  0.110978  0  0.966859  0  0  0.118775  0  1.032524  0  0  0.122256  0  1.02985  0  0  0.105009  0.116108  0  1.034655  0
H  H22  1  0.72754137  0.21135806  0.01252481  1  0  0.085634  0  0.961226  0  0  0.092274  0  1.029869  0  0  0.094235  0  1.028638  0  0  0.118643  0.090942  0  1.030667  0
H  H23  1  0.27244640  0.78865644  0.98747912  1  0  0.085593  0  0.961284  0  0  0.092293  0  1.029867  0  0  0.094279  0  1.028581  0  0  0.118642  0.090965  0  1.030654  0
H  H24  1  0.71116452  0.41034332  0.04527007  1  0  0.096649  0  0.958098  0  0  0.108164  0  1.018458  0  0  0.110916  0  1.018114  0  0  0.103619  0.106296  0  1.018728  0
H  H25  1  0.28881456  0.58967140  0.95474478  1  0  0.096707  0  0.958184  0  0  0.108183  0  1.018573  0  0  0.110935  0  1.018231  0  0  0.103622  0.106313  0  1.018851  0
H  H26  1  0.98210861  0.47490454  0.39160812  1  0  0.108199  0  0.938571  0  0  0.121842  0  0.991027  0  0  0.124885  0  0.990611  0  0  0.111322  0.11983  0  0.991348  0
H  H27  1  0.01783203  0.52510242  0.60841160  1  0  0.108041  0  0.938498  0  0  0.12171  0  0.990924  0  0  0.124757  0  0.990499  0  0  0.11127  0.119697  0  0.991247  0
H  H28  1  0.98121619  0.27300728  0.34693587  1  0  0.089254  0  0.956423  0  0  0.094861  0  1.025135  0  0  0.097824  0  1.021644  0  0  0.117318  0.092751  0  1.027616  0
H  H29  1  0.01876449  0.72699664  0.65306650  1  0  0.08919  0  0.956563  0  0  0.094812  0  1.025265  0  0  0.097782  0  1.02176  0  0  0.117272  0.092697  0  1.027758  0
H  H30  1  0.75667231  0.59396533  0.17259645  1  0  0.072588  0  0.943646  0  0  0.091092  0  1.003901  0  0  0.09191  0  1.003817  0  0  0.093308  0.090518  0  1.003925  0
H  H31  1  0.24332356  0.40604913  0.82741036  1  0  0.072624  0  0.943675  0  0  0.091024  0  1.003985  0  0  0.091859  0  1.003885  0  0  0.093257  0.090451  0  1.004015  0
H  H32  1  0.81430984  0.62443136  0.32132115  1  0  0.10453  0  0.918277  0  0  0.122664  0  0.972336  0  0  0.124211  0  0.971747  0  0  0.10588  0.121591  0  0.97276  0
H  H33  1  0.18567893  0.37558973  0.67868741  1  0  0.104713  0  0.918091  0  0  0.122802  0  0.972139  0  0  0.124349  0  0.971551  0  0  0.105955  0.121742  0  0.972553  0
H  H34  1  0.05371322  0.57811108  0.18595187  1  0  0.074558  0  0.928587  0  0  0.092802  0  0.986695  0  0  0.094361  0  0.986175  0  0  0.093767  0.091517  0  0.987469  0
H  H35  1  0.94627238  0.42188550  0.81405430  1  0  0.074546  0  0.928469  0  0  0.092796  0  0.986579  0  0  0.094356  0  0.98606  0  0  0.093754  0.091541  0  0.987317  0
H  H36  1  0.08420304  0.64728967  0.33340889  1  0  0.098757  0  0.904711  0  0  0.119785  0  0.954674  0  0  0.120929  0  0.954851  0  0  0.107123  0.118946  0  0.954615  0
H  H37  1  0.91580034  0.35270113  0.66660375  1  0  0.098499  0  0.904926  0  0  0.119551  0  0.954873  0  0  0.12069  0  0.955052  0  0  0.107018  0.118709  0  0.954817  0
H  H38  1  0.06061452  0.68927657  0.07529647  1  0  0.098158  0  0.955043  0  0  0.109454  0  1.014141  0  0  0.112306  0  1.014439  0  0  0.103174  0.107429  0  1.013992  0
H  H39  1  0.93939122  0.31071658  0.92471041  1  0  0.098147  0  0.955051  0  0  0.109424  0  1.014165  0  0  0.112276  0  1.014462  0  0  0.103124  0.107399  0  1.014016  0
H  H40  1  0.00363560  0.86273186  0.03653954  1  0  0.089344  0  0.983  0  0  0.096703  0  1.047525  0  0  0.099714  0  1.04481  0  0  0.11668  0.09433  0  1.049815  0
H  H41  1  0.99638193  0.13726287  0.96347214  1  0  0.089309  0  0.983099  0  0  0.096633  0  1.047694  0  0  0.099643  0  1.044975  0  0  0.116692  0.094317  0  1.04991  0
H  H42  1  0.85078625  0.99327565  0.32272107  1  0  0.085445  0  0.984019  0  0  0.091945  0  1.051403  0  0  0.095789  0  1.047204  0  0  0.111851  0.089158  0  1.054037  0
H  H43  1  0.14924689  0.00673290  0.67729543  1  0  0.085482  0  0.983989  0  0  0.092017  0  1.051341  0  0  0.095865  0  1.047134  0  0  0.111868  0.089227  0  1.053979  0
H  H44  1  0.90131319  0.82340028  0.37489688  1  0  0.119716  0  0.981385  0  0  0.125678  0  1.046248  0  0  0.130322  0  1.043527  0  0  0.103188  0.121982  0  1.048934  0
H  H45  1  0.09872539  0.17661400  0.62512393  1  0  0.119792  0  0.981326  0  0  0.125644  0  1.046343  0  0  0.130294  0  1.04362  0  0  0.103169  0.121939  0  1.04904  0
H  H46  1  0.46722272  0.48103794  0.40172327  1  0  0.306038  0  0.95223  0  0  0.283716  0  1.02058  0  0  0.29397  0  1.011855  0  0  0.299918  0.276575  0  1.026545  0
H  H47  1  0.53273742  0.51895285  0.59826215  1  0  0.306299  0  0.952036  0  0  0.283893  0  1.020521  0  0  0.294144  0  1.011792  0  0  0.299921  0.276749  0  1.026494  0
H  H48  1  0.21251579  0.02023820  0.48633001  1  0  0.306107  0  0.853384  0  0  0.299013  0  0.898205  0  0  0.305533  0  0.894177  0  0  0.332836  0.294377  0  0.901243  0
H  H49  1  0.78749825  0.97974403  0.51366086  1  0  0.306054  0  0.853351  0  0  0.298965  0  0.898177  0  0  0.305484  0  0.89415  0  0  0.332885  0.294332  0  0.901214  0
C  C50  1  0.42542920  0.34889543  0.24671708  1  0  0.21474  0  3.782331  0  0  0.204219  0  4.032759  0  0  0.211949  0  4.055746  0  0  0.094855  0.198967  0  4.018018  0
C  C51  1  0.57455336  0.65110012  0.75327211  1  0  0.214869  0  3.782516  0  0  0.204258  0  4.033003  0  0  0.211989  0  4.055989  0  0  0.094814  0.199002  0  4.018265  0
C  C52  1  0.38632283  0.41975112  0.18468603  1  0  -0.177436  0  3.760235  0  0  -0.196368  0  4.00958  0  0  -0.201507  0  4.02975  0  0  -0.105202  -0.19347  0  3.997314  0
C  C53  1  0.61367025  0.58024599  0.81530466  1  0  -0.177674  0  3.760493  0  0  -0.196544  0  4.009852  0  0  -0.201685  0  4.030022  0  0  -0.105239  -0.193641  0  3.997581  0
C  C54  1  0.35662879  0.37910524  0.06708567  1  0  -0.071305  0  3.851237  0  0  -0.085902  0  4.106719  0  0  -0.085057  0  4.127026  0  0  -0.104374  -0.086294  0  4.093109  0
C  C55  1  0.64335998  0.62089356  0.93290639  1  0  -0.071229  0  3.851222  0  0  -0.08583  0  4.106671  0  0  -0.084986  0  4.126981  0  0  -0.104376  -0.086223  0  4.09306  0
C  C56  1  0.36927263  0.26846423  0.01141943  1  0  -0.096953  0  3.807327  0  0  -0.114616  0  4.067124  0  0  -0.119124  0  4.090785  0  0  -0.107766  -0.111499  0  4.050852  0
C  C57  1  0.63072433  0.73153691  0.98857015  1  0  -0.096851  0  3.807299  0  0  -0.114536  0  4.067073  0  0  -0.119044  0  4.090737  0  0  -0.10778  -0.11142  0  4.050808  0
C  C58  1  0.40986373  0.19845754  0.07335892  1  0  -0.081105  0  3.710037  0  0  -0.107043  0  3.969048  0  0  -0.106111  0  3.987557  0  0  -0.089766  -0.107284  0  3.956203  0
C  C59  1  0.59014662  0.80154183  0.92662848  1  0  -0.081239  0  3.710505  0  0  -0.107246  0  3.969529  0  0  -0.106308  0  3.98805  0  0  -0.08992  -0.107481  0  3.956674  0
C  C60  1  0.43455342  0.23626089  0.19142512  1  0  -0.027919  0  3.668997  0  0  -0.016213  0  3.90387  0  0  -0.020723  0  3.92896  0  0  -0.011644  -0.013299  0  3.887013  0
C  C61  1  0.56542354  0.76373631  0.80856136  1  0  -0.027989  0  3.668909  0  0  -0.016194  0  3.903692  0  0  -0.020709  0  3.928779  0  0  -0.011627  -0.013276  0  3.886832  0
C  C62  1  0.47167730  0.16089660  0.26033431  1  0  -0.042163  0  3.475573  0  0  -0.029559  0  3.697561  0  0  -0.032216  0  3.710759  0  0  0.006308  -0.028017  0  3.689265  0
C  C63  1  0.52831557  0.83910709  0.73965926  1  0  -0.042122  0  3.475416  0  0  -0.029585  0  3.697545  0  0  -0.032231  0  3.710723  0  0  0.006291  -0.028044  0  3.689248  0
C  C64  1  0.45397718  0.21637637  0.38107187  1  0  -0.157277  0  3.617244  0  0  -0.1708  0  3.848025  0  0  -0.174753  0  3.857595  0  0  -0.081072  -0.167903  0  3.841194  0
C  C65  1  0.54601859  0.78362321  0.61892161  1  0  -0.157353  0  3.617089  0  0  -0.1708  0  3.847756  0  0  -0.174756  0  3.857324  0  0  -0.081021  -0.1679  0  3.840929  0
C  C66  1  0.48234775  0.33760429  0.43596018  1  0  0.593908  0  3.774038  0  0  0.546423  0  4.067425  0  0  0.576646  0  4.064392  0  0  0.249519  0.52611  0  4.068649  0
C  C67  1  0.51763068  0.66239379  0.56403222  1  0  0.594168  0  3.773508  0  0  0.546676  0  4.066864  0  0  0.576904  0  4.063828  0  0  0.249645  0.526346  0  4.068119  0
C  C68  1  0.28286580  0.16768718  0.33575895  1  0  -0.159581  0  3.599863  0  0  -0.173321  0  3.831185  0  0  -0.177503  0  3.841363  0  0  -0.079658  -0.170357  0  3.823926  0
C  C69  1  0.71713492  0.83230585  0.66423629  1  0  -0.159445  0  3.599778  0  0  -0.173215  0  3.83108  0  0  -0.177394  0  3.841261  0  0  -0.079689  -0.170249  0  3.82381  0
C  C70  1  0.21898611  0.14017390  0.41927414  1  0  0.581734  0  3.796896  0  0  0.537243  0  4.095137  0  0  0.56617  0  4.093162  0  0  0.242525  0.517699  0  4.096216  0
C  C71  1  0.78103097  0.85981990  0.58072871  1  0  0.581486  0  3.796989  0  0  0.537047  0  4.095156  0  0  0.565971  0  4.093182  0  0  0.24244  0.517519  0  4.096224  0
C  C72  1  0.32099078  0.95989062  0.35868655  1  0  0.208406  0  3.789964  0  0  0.196678  0  4.046392  0  0  0.204644  0  4.069591  0  0  0.091631  0.190809  0  4.030985  0
C  C73  1  0.67903642  0.04010149  0.64131821  1  0  0.208402  0  3.789749  0  0  0.196714  0  4.046145  0  0  0.204689  0  4.06933  0  0  0.091666  0.190853  0  4.030739  0
C  C74  1  0.34597970  0.86277010  0.38228149  1  0  -0.176048  0  3.75039  0  0  -0.198405  0  4.013294  0  0  -0.204143  0  4.033566  0  0  -0.10368  -0.194677  0  3.999248  0
C  C75  1  0.65404287  0.13721616  0.61771059  1  0  -0.176159  0  3.750466  0  0  -0.198448  0  4.013385  0  0  -0.204193  0  4.033656  0  0  -0.103804  -0.194719  0  3.999337  0
C  C76  1  0.42029756  0.78146522  0.31947637  1  0  -0.056596  0  3.794175  0  0  -0.073444  0  4.049879  0  0  -0.072297  0  4.069422  0  0  -0.100591  -0.073309  0  4.0361  0
C  C77  1  0.57972772  0.21852506  0.68051363  1  0  -0.056559  0  3.794351  0  0  -0.073416  0  4.050059  0  0  -0.072268  0  4.069601  0  0  -0.100448  -0.073295  0  4.03629  0
C  C78  1  0.46924777  0.79698166  0.23222424  1  0  -0.10631  0  3.818094  0  0  -0.120922  0  4.075202  0  0  -0.125956  0  4.098  0  0  -0.11134  -0.11728  0  4.058226  0
C  C79  1  0.53078482  0.20301928  0.76777277  1  0  -0.10627  0  3.818348  0  0  -0.12097  0  4.075472  0  0  -0.126003  0  4.098263  0  0  -0.111409  -0.117327  0  4.058497  0
C  C80  1  0.44263670  0.89310369  0.20762678  1  0  -0.088353  0  3.744343  0  0  -0.11355  0  4.003357  0  0  -0.112209  0  4.022875  0  0  -0.094084  -0.114671  0  3.988504  0
C  C81  1  0.55738454  0.10689737  0.79237144  1  0  -0.088533  0  3.744473  0  0  -0.11366  0  4.003487  0  0  -0.112319  0  4.023002  0  0  -0.094191  -0.11478  0  3.988633  0
C  C82  1  0.36759590  0.97602964  0.26960991  1  0  -0.035849  0  3.691065  0  0  -0.024633  0  3.92822  0  0  -0.029925  0  3.954195  0  0  -0.016648  -0.021124  0  3.911237  0
C  C83  1  0.63242123  0.02396497  0.73039166  1  0  -0.035984  0  3.691059  0  0  -0.024859  0  3.92834  0  0  -0.030153  0  3.954314  0  0  -0.016692  -0.021348  0  3.911354  0
C  C84  1  0.32688082  0.07694898  0.23876717  1  0  -0.051296  0  3.493475  0  0  -0.036922  0  3.71335  0  0  -0.039759  0  3.726774  0  0  0.005033  -0.035038  0  3.704966  0
C  C85  1  0.67312074  0.92304159  0.76122818  1  0  -0.051204  0  3.493603  0  0  -0.036839  0  3.713497  0  0  -0.039679  0  3.726927  0  0  0.005004  -0.034956  0  3.705119  0
C  C86  1  0.20936263  0.04754514  0.12142159  1  0  0.668064  0  3.850051  0  0  0.606336  0  4.161124  0  0  0.640358  0  4.15383  0  0  0.219621  0.58263  0  4.165969  0
C  C87  1  0.79064013  0.95244700  0.87856986  1  0  0.66808  0  3.849753  0  0  0.60643  0  4.160759  0  0  0.640451  0  4.153469  0  0  0.219737  0.58272  0  4.165601  0
C  C88  1  0.62860883  0.11497989  0.25705101  1  0  0.635311  0  3.905473  0  0  0.578624  0  4.220282  0  0  0.611057  0  4.215297  0  0  0.198914  0.556554  0  4.222986  0
C  C89  1  0.37138756  0.88502536  0.74293981  1  0  0.635192  0  3.905513  0  0  0.578446  0  4.220414  0  0  0.610873  0  4.215436  0  0  0.198903  0.556376  0  4.223119  0
C  C90  1  0.78272591  0.27272025  0.09529760  1  0  0.139782  0  3.689546  0  0  0.108922  0  3.93696  0  0  0.116696  0  3.956288  0  0  0.050802  0.104053  0  3.923653  0
C  C91  1  0.21728534  0.72729154  0.90470246  1  0  0.140031  0  3.689333  0  0  0.109075  0  3.936738  0  0  0.116846  0  3.956084  0  0  0.050932  0.104209  0  3.923432  0
C  C92  1  0.77543707  0.38407961  0.11438009  1  0  -0.183575  0  3.73466  0  0  -0.199996  0  3.979677  0  0  -0.209705  0  4.003352  0  0  -0.087165  -0.194031  0  3.964449  0
C  C93  1  0.22452795  0.61593198  0.88563523  1  0  -0.183821  0  3.734794  0  0  -0.200169  0  3.979887  0  0  -0.209882  0  4.003571  0  0  -0.087303  -0.19421  0  3.964663  0
C  C94  1  0.84781407  0.46085622  0.22156329  1  0  0.15946  0  3.729928  0  0  0.174519  0  3.969449  0  0  0.179933  0  3.992731  0  0  0.015253  0.171151  0  3.954183  0
C  C95  1  0.15216538  0.53915355  0.77844770  1  0  0.159551  0  3.729759  0  0  0.174442  0  3.969428  0  0  0.179846  0  3.99274  0  0  0.015309  0.171082  0  3.954153  0
C  C96  1  0.92397356  0.41946711  0.30609574  1  0  -0.169874  0  3.695357  0  0  -0.187223  0  3.938967  0  0  -0.196226  0  3.961154  0  0  -0.082746  -0.18174  0  3.924938  0
C  C97  1  0.07601478  0.58054172  0.69391181  1  0  -0.169417  0  3.694888  0  0  -0.186744  0  3.938463  0  0  -0.195746  0  3.960656  0  0  -0.082594  -0.181262  0  3.924428  0
C  C98  1  0.92546768  0.30678806  0.28157466  1  0  0.140716  0  3.68543  0  0  0.106635  0  3.939734  0  0  0.114591  0  3.957431  0  0  0.051757  0.101472  0  3.927917  0
C  C99  1  0.07448332  0.69322118  0.71843986  1  0  0.140548  0  3.68564  0  0  0.106462  0  3.939851  0  0  0.114419  0  3.957548  0  0  0.051724  0.101298  0  3.928037  0
C  C100  1  0.84579786  0.58166832  0.24251227  1  0  -0.15547  0  3.666517  0  0  -0.198325  0  3.916901  0  0  -0.199704  0  3.928192  0  0  -0.150904  -0.197154  0  3.908673  0
C  C101  1  0.15419076  0.41834216  0.75749741  1  0  -0.155764  0  3.666655  0  0  -0.198408  0  3.916924  0  0  -0.1998  0  3.928208  0  0  -0.15089  -0.197266  0  3.908726  0
C  C102  1  0.00345665  0.63441160  0.24933197  1  0  -0.144687  0  3.660436  0  0  -0.190174  0  3.914368  0  0  -0.191984  0  3.925719  0  0  -0.148758  -0.188863  0  3.906319  0
C  C103  1  0.99654327  0.36558820  0.75067995  1  0  -0.144324  0  3.660343  0  0  -0.189805  0  3.914213  0  0  -0.191623  0  3.925553  0  0  -0.148612  -0.188509  0  3.906167  0
C  C104  1  0.98492627  0.74129853  0.22846405  1  0  0.156459  0  3.72147  0  0  0.1728  0  3.959445  0  0  0.178562  0  3.982621  0  0  0.015807  0.169553  0  3.942894  0
C  C105  1  0.01508322  0.25869781  0.77154066  1  0  0.156258  0  3.721504  0  0  0.172497  0  3.959561  0  0  0.178309  0  3.982672  0  0  0.015691  0.169251  0  3.943013  0
C  C106  1  0.01600584  0.75468230  0.13389522  1  0  -0.17513  0  3.722776  0  0  -0.192258  0  3.970038  0  0  -0.202123  0  3.993486  0  0  -0.085201  -0.185547  0  3.953301  0
C  C107  1  0.98400272  0.24531569  0.86610987  1  0  -0.174994  0  3.722778  0  0  -0.192041  0  3.970026  0  0  -0.201922  0  3.993456  0  0  -0.085142  -0.185338  0  3.953306  0
C  C108  1  0.98637149  0.85130733  0.11185043  1  0  0.142787  0  3.686803  0  0  0.110129  0  3.937368  0  0  0.11833  0  3.955527  0  0  0.04701  0.104483  0  3.925026  0
C  C109  1  0.01364485  0.14869561  0.88816296  1  0  0.142672  0  3.686814  0  0  0.11  0  3.937479  0  0  0.118208  0  3.95563  0  0  0.046993  0.10432  0  3.925121  0
C  C110  1  0.89893374  0.92321397  0.27193652  1  0  0.12346  0  3.709665  0  0  0.088796  0  3.965556  0  0  0.096674  0  3.983437  0  0  0.038472  0.083934  0  3.951495  0
C  C111  1  0.10109293  0.07678813  0.72808140  1  0  0.123288  0  3.7099  0  0  0.088587  0  3.965755  0  0  0.096463  0  3.98364  0  0  0.038362  0.083726  0  3.951688  0
C  C112  1  0.92679130  0.82914418  0.29932127  1  0  -0.18083  0  3.689664  0  0  -0.196945  0  3.939486  0  0  -0.206677  0  3.961026  0  0  -0.08931  -0.190366  0  3.923585  0
C  C113  1  0.07324572  0.17085863  0.70069630  1  0  -0.180721  0  3.689722  0  0  -0.196688  0  3.939552  0  0  -0.206443  0  3.961084  0  0  -0.089181  -0.190104  0  3.923647  0
N  N114  1  0.45858350  0.39515813  0.36522739  1  0  -0.447729  0  3.355936  0  0  -0.391492  0  3.592604  0  0  -0.414269  0  3.599681  0  0  -0.397075  -0.376232  0  3.587994  0
N  N115  1  0.54138734  0.60483507  0.63476138  1  0  -0.448064  0  3.356045  0  0  -0.391799  0  3.592838  0  0  -0.414574  0  3.599906  0  0  -0.397091  -0.376531  0  3.588243  0
N  N116  1  0.24615576  0.03906518  0.42562403  1  0  -0.438037  0  3.35634  0  0  -0.38728  0  3.597745  0  0  -0.40911  0  3.607267  0  0  -0.395066  -0.372318  0  3.591384  0
N  N117  1  0.75385684  0.96092282  0.57437002  1  0  -0.437679  0  3.356227  0  0  -0.386974  0  3.597611  0  0  -0.408804  0  3.607134  0  0  -0.394951  -0.372036  0  3.591256  0
N  N118  1  0.85737214  0.23414981  0.17710876  1  0  -0.317886  0  3.272502  0  0  -0.23338  0  3.538107  0  0  -0.253156  0  3.553672  0  0  -0.32251  -0.21985  0  3.527184  0
N  N119  1  0.14261831  0.76585894  0.82289451  1  0  -0.318054  0  3.272516  0  0  -0.233498  0  3.538097  0  0  -0.253277  0  3.553664  0  0  -0.322616  -0.21997  0  3.527177  0
N  N120  1  0.92746559  0.93434245  0.17920194  1  0  -0.344841  0  3.297805  0  0  -0.260178  0  3.577567  0  0  -0.281195  0  3.592332  0  0  -0.333459  -0.245752  0  3.56758  0
N  N121  1  0.07253871  0.06565646  0.82080812  1  0  -0.344704  0  3.297896  0  0  -0.260085  0  3.577718  0  0  -0.281097  0  3.592478  0  0  -0.333457  -0.245665  0  3.567753  0
O  O122  1  0.73302664  0.13796553  0.34885896  1  0  -0.614426  0  1.889417  0  0  -0.573797  0  2.113452  0  0  -0.59619  0  2.104855  0  0  -0.332324  -0.557862  0  2.119176  0
O  O123  1  0.26697061  0.86203806  0.65112993  1  0  -0.614361  0  1.889372  0  0  -0.573684  0  2.113403  0  0  -0.59608  0  2.104812  0  0  -0.332324  -0.557751  0  2.119128  0
O  O124  1  0.63968067  0.05864471  0.15773816  1  0  -0.644802  0  2.067421  0  0  -0.572944  0  2.336867  0  0  -0.601959  0  2.325611  0  0  -0.324009  -0.552222  0  2.343883  0
O  O125  1  0.36031939  0.94135239  0.84225599  1  0  -0.644806  0  2.067564  0  0  -0.572897  0  2.336967  0  0  -0.601901  0  2.325708  0  0  -0.323979  -0.552177  0  2.343985  0
O  O126  1  0.24763578  0.97751223  0.03927827  1  0  -0.620348  0  2.106813  0  0  -0.541807  0  2.381483  0  0  -0.570231  0  2.367857  0  0  -0.306309  -0.522409  0  2.391019  0
O  O127  1  0.75236467  0.02249047  0.96070779  1  0  -0.620285  0  2.106498  0  0  -0.541904  0  2.381257  0  0  -0.570326  0  2.367628  0  0  -0.306452  -0.522491  0  2.390788  0
O  O128  1  0.08778356  0.09594109  0.11418429  1  0  -0.646923  0  2.08732  0  0  -0.591274  0  2.360373  0  0  -0.616726  0  2.348819  0  0  -0.314435  -0.572905  0  2.367992  0
O  O129  1  0.91222688  0.90406339  0.88581862  1  0  -0.646977  0  2.087275  0  0  -0.591271  0  2.36022  0  0  -0.61672  0  2.34867  0  0  -0.314392  -0.572912  0  2.367868  0
O  O130  1  0.52179844  0.38338568  0.54207381  1  0  -0.56161  0  1.946502  0  0  -0.514251  0  2.160647  0  0  -0.535833  0  2.152043  0  0  -0.295773  -0.499186  0  2.166027  0
O  O131  1  0.47815544  0.61660771  0.45791833  1  0  -0.561729  0  1.946239  0  0  -0.514292  0  2.160277  0  0  -0.535886  0  2.151673  0  0  -0.29583  -0.499219  0  2.165666  0
O  O132  1  0.15044734  0.20559366  0.48078956  1  0  -0.550713  0  1.878798  0  0  -0.512105  0  2.088305  0  0  -0.530977  0  2.080225  0  0  -0.299443  -0.49903  0  2.094129  0
O  O133  1  0.84957049  0.79439688  0.51921388  1  0  -0.550698  0  1.878999  0  0  -0.512082  0  2.088432  0  0  -0.530955  0  2.08035  0  0  -0.299416  -0.499018  0  2.09425  0
