# generated using pymatgen
data_Zn4H34C63N16
_symmetry_space_group_name_H-M   'P 1'
_cell_length_a   19.16518458
_cell_length_b   20.22258184
_cell_length_c   20.32422809
_cell_angle_alpha   106.70023896
_cell_angle_beta   109.38461966
_cell_angle_gamma   110.50900269
_symmetry_Int_Tables_number   1
_chemical_formula_structural   Zn4H34C63N16
_chemical_formula_sum   'Zn4 H34 C63 N16'
_cell_volume   6190.77007092
_cell_formula_units_Z   1
loop_
 _symmetry_equiv_pos_site_id
 _symmetry_equiv_pos_as_xyz
  1  'x, y, z'
loop_
 _atom_site_type_symbol
 _atom_site_label
 _atom_site_symmetry_multiplicity
 _atom_site_fract_x
 _atom_site_fract_y
 _atom_site_fract_z
 _atom_site_occupancy
 _atom_site_pbe_bader_charge
 _atom_site_pbe_bader_spin_density
 _atom_site_pbe_cm5_charge
 _atom_site_pbe_ddec_charge
 _atom_site_pbe_ddec_spin_density
 _atom_site_pbe_ddec_sum_bond_order
 _atom_site_pbe_magmom
Zn  Zn0  1  0.09826607  0.50335948  0.09913538  1  1.187445  0  0.76239  0.676565  0  2.281564  0
Zn  Zn1  1  0.89034838  0.49986696  0.88651286  1  1.200979  0  0.744983  0.639358  0  2.342086  0
Zn  Zn2  1  0.88012812  0.38931342  0.98910732  1  1.184308  0  0.76021  0.658663  0  2.335952  0
Zn  Zn3  1  0.10823317  0.61218445  0.99180750  1  1.19947  0  0.758373  0.662222  0  2.331302  0
H  H4  1  0.12893439  0.36669282  0.14637368  1  0.10215  0  0.125651  0.115603  0  0.982336  0
H  H5  1  0.14834315  0.45587904  0.47701025  1  0.064959  0  0.10518  0.108491  0  0.989396  0
H  H6  1  0.87488838  0.46438712  0.70270052  1  0.120309  0  0.127536  0.118868  0  0.973482  0
H  H7  1  0.14819473  0.45974688  0.60021833  1  0.071136  0  0.106218  0.109472  0  0.98756  0
H  H8  1  0.50773211  0.85788471  0.48233094  1  0.061678  0  0.104782  0.107772  0  0.989055  0
H  H9  1  0.63431921  0.97257147  0.60397927  1  0.079632  0  0.10512  0.108406  0  0.98985  0
H  H10  1  0.66307006  0.11065674  0.47830363  1  0.08192  0  0.104679  0.108216  0  0.989838  0
H  H11  1  0.53643738  0.99596914  0.35660520  1  0.0611  0  0.1044  0.107079  0  0.990818  0
H  H12  1  0.12829549  0.14031702  0.15934875  1  0.072485  0  0.105341  0.108822  0  0.988129  0
H  H13  1  0.13034777  0.02073196  0.16723936  1  0.074645  0  0.104542  0.107838  0  0.991698  0
H  H14  1  0.85650593  0.89617281  0.05794526  1  0.07486  0  0.106748  0.111247  0  0.987579  0
H  H15  1  0.71229081  0.51579835  0.88029573  1  0.103811  0  0.12968  0.121136  0  0.97369  0
H  H16  1  0.85463113  0.01583697  0.05005605  1  0.065616  0  0.104862  0.107215  0  0.99068  0
H  H17  1  0.74813591  0.20505598  0.83261073  1  0.085852  0  0.124628  0.113564  0  0.983281  0
H  H18  1  0.29608178  0.62940627  0.99791687  1  0.0752  0  0.128327  0.118818  0  0.977366  0
H  H19  1  0.86471053  0.35258790  0.74045732  1  0.119653  0  0.11621  0.105548  0  1.044806  0
H  H20  1  0.20122686  0.42875533  0.04435296  1  0.088039  0  0.123199  0.116615  0  0.994685  0
H  H21  1  0.12188376  0.50159181  0.85097324  1  0.096631  0  0.122547  0.115901  0  1.000525  0
H  H22  1  0.87903559  0.22372069  0.94142660  1  0.104906  0  0.117271  0.106556  0  1.008452  0
H  H23  1  0.26555812  0.64335080  0.26947981  1  0.08379  0  0.123013  0.111401  0  0.98862  0
H  H24  1  0.22727149  0.97388035  0.06624775  1  0.030087  0  0.083683  0.107333  0  1.007254  0
H  H25  1  0.24205774  0.91417420  0.99465242  1  0.016052  0  0.08265  0.105986  0  1.006178  0
H  H26  1  0.85780980  0.33259769  0.12570733  1  0.126904  0  0.125954  0.117009  0  0.979544  0
H  H27  1  0.17760902  0.95706505  0.96771113  1  0.029424  0  0.089945  0.118117  0  0.997236  0
H  H28  1  0.08511170  0.81213032  0.92423598  1  0.016325  0  0.089898  0.08067  0  0.967665  0
H  H29  1  0.07114211  0.87222912  0.99545125  1  0.039287  0  0.091451  0.087625  0  0.988138  0
H  H30  1  0.17331290  0.86015243  0.09999811  1  0.047844  0  0.098821  0.099867  0  0.972067  0
H  H31  1  0.18532665  0.79754318  0.02806675  1  0.017234  0  0.09258  0.085826  0  0.986218  0
H  H32  1  0.88135031  0.63761429  0.01020514  1  0.12777  0  0.118296  0.109692  0  1.024833  0
H  H33  1  0.10344162  0.54723160  0.26132091  1  0.086398  0  0.120133  0.112769  0  0.992636  0
H  H34  1  0.22662085  0.77977863  0.14522351  1  0.098002  0  0.116706  0.104725  0  1.027946  0
H  H35  1  0.81025449  0.47701909  0.08279112  1  0.11742  0  0.126999  0.123008  0  0.985319  0
H  H36  1  0.87526790  0.31254580  0.47310102  1  0.079353  0  0.105423  0.108056  0  0.988865  0
H  H37  1  0.87553491  0.30845834  0.34988030  1  0.058597  0  0.105857  0.109027  0  0.987959  0
C  C38  1  0.06936934  0.34333942  0.09434608  1  0.401125  0  0.020405  -0.04268  0  3.943729  0
C  C39  1  0.04123374  0.49702890  0.21651175  1  0.413028  0  0.008577  -0.055686  0  3.958341  0
C  C40  1  0.22281867  0.73440343  0.16441636  1  0.405531  0  0.011948  -0.04804  0  3.939788  0
C  C41  1  0.93430110  0.47997568  0.75057678  1  0.416532  0  0.020767  -0.041905  0  3.952318  0
C  C42  1  0.79586955  0.48347177  0.02941149  1  0.449692  0  0.02316  -0.029954  0  3.922457  0
C  C43  1  0.28122160  0.74127664  0.23391457  1  0.099715  0  -0.028897  0.04698  0  4.199498  0
C  C44  1  0.73552482  0.50308128  0.99132811  1  0.072448  0  -0.027454  0.02652  0  4.209459  0
C  C45  1  0.98763474  0.43267682  0.22239037  1  0.158549  0  -0.028196  0.047699  0  4.194642  0
C  C46  1  0.99858764  0.74529171  0.04018552  1  0.13369  0  -0.027098  -0.013899  0  4.147961  0
C  C47  1  0.35260328  0.51934953  0.02898706  1  -0.033293  0  -0.028901  -0.062172  0  4.083478  0
C  C48  1  0.41851528  0.52041183  0.03292879  1  -0.143578  0  -0.049486  -0.062437  0  4.340765  0
C  C49  1  0.00146304  0.46797986  0.74694112  1  0.107975  0  -0.026178  0.043292  0  4.18323  0
C  C50  1  0.48903340  0.52141511  0.03370520  1  -0.036209  0  -0.029515  -0.019912  0  4.259185  0
C  C51  1  0.55285889  0.52232754  0.03095142  1  -0.056911  0  -0.030748  -0.022766  0  4.259401  0
C  C52  1  0.61847508  0.52006458  0.02239801  1  0.202961  0  -0.048568  -0.060418  0  4.345434  0
C  C53  1  0.78222460  0.25302622  0.82219078  1  0.465306  0  0.020484  -0.037631  0  3.948411  0
C  C54  1  0.67566820  0.51462976  0.01059301  1  -0.381846  0  -0.029563  -0.064404  0  4.084029  0
C  C55  1  0.93504832  0.34162406  0.40494469  1  -0.02108  0  -0.085177  -0.125301  0  3.969132  0
C  C56  1  0.01139964  0.38610876  0.40591434  1  0.112104  0  -0.002414  0.139918  0  4.122531  0
C  C57  1  0.08868026  0.42464870  0.47646834  1  -0.040714  0  -0.086507  -0.129203  0  3.972915  0
C  C58  1  0.08860255  0.42674858  0.54527250  1  -0.031082  0  -0.084347  -0.122799  0  3.968231  0
C  C59  1  0.01125187  0.39061529  0.54612440  1  0.104489  0  -0.00405  0.134964  0  4.117983  0
C  C60  1  0.79297864  0.24873344  0.75607565  1  0.095473  0  -0.025798  0.047075  0  4.182279  0
C  C61  1  0.93496209  0.34393372  0.47375899  1  -0.00455  0  -0.085312  -0.124977  0  3.970173  0
C  C62  1  0.00836855  0.39792856  0.33996896  1  0.073599  0  -0.054322  -0.124102  0  4.139769  0
C  C63  1  0.00909723  0.40870008  0.61788321  1  -0.139632  0  -0.051806  -0.11872  0  4.137484  0
C  C64  1  0.00717516  0.43491473  0.67909147  1  -0.243979  0  -0.056361  -0.105269  0  4.166551  0
C  C65  1  0.26101920  0.58239124  0.00885502  1  0.46472  0  0.026417  -0.035078  0  3.9391  0
C  C66  1  0.00060671  0.41525904  0.28607191  1  -0.454971  0  -0.055298  -0.101157  0  4.174747  0
C  C67  1  0.61266371  0.97744601  0.54966231  1  -0.059903  0  -0.086428  -0.1277  0  3.974204  0
C  C68  1  0.65513697  0.05094173  0.55057037  1  0.125148  0  -0.002563  0.139823  0  4.116945  0
C  C69  1  0.62883305  0.05516431  0.47891004  1  0.003336  0  -0.08559  -0.126119  0  3.972892  0
C  C70  1  0.55794408  0.99112101  0.41095125  1  -0.090137  0  -0.086405  -0.127634  0  3.975012  0
C  C71  1  0.28056310  0.52520033  0.02362999  1  0.137121  0  -0.029018  0.025766  0  4.21543  0
C  C72  1  0.51073099  0.92008292  0.41178686  1  0.145274  0  -0.004607  0.138539  0  4.12341  0
C  C73  1  0.54189481  0.91343751  0.48175815  1  -0.053288  0  -0.086187  -0.125884  0  3.971079  0
C  C74  1  0.71528953  0.12001214  0.62272422  1  -0.183433  0  -0.054854  -0.125885  0  4.140647  0
C  C75  1  0.43194189  0.85837754  0.34641517  1  -0.214097  0  -0.054601  -0.12562  0  4.152221  0
C  C76  1  0.36088886  0.80583212  0.29379876  1  -0.156296  0  -0.05693  -0.102823  0  4.180434  0
C  C77  1  0.84178341  0.32898088  0.77524016  1  0.443985  0  0.017917  -0.028112  0  3.917226  0
C  C78  1  0.75574127  0.18042864  0.68510123  1  -0.185732  0  -0.054283  -0.099888  0  4.16616  0
C  C79  1  0.07002253  0.01981008  0.14150865  1  -0.034217  0  -0.086998  -0.129689  0  3.973998  0
C  C80  1  0.99322840  0.94864868  0.10936452  1  0.077397  0  -0.003025  0.137177  0  4.120859  0
C  C81  1  0.91589860  0.94976967  0.08012068  1  -0.093928  0  -0.085889  -0.127942  0  3.97335  0
C  C82  1  0.24306246  0.66495365  0.22834119  1  0.468317  0  0.018422  -0.045073  0  3.945545  0
C  C83  1  0.91486763  0.01659021  0.07557486  1  -0.00394  0  -0.085327  -0.123887  0  3.973593  0
C  C84  1  0.99107034  0.08503840  0.10046356  1  0.059286  0  -0.004398  0.136249  0  4.127365  0
C  C85  1  0.06894979  0.08662406  0.13711040  1  0.02534  0  -0.085393  -0.12488  0  3.97035  0
C  C86  1  0.99380468  0.87642150  0.09771550  1  -0.139269  0  -0.052428  -0.131368  0  4.128925  0
C  C87  1  0.99016000  0.14844573  0.08460775  1  0.055189  0  -0.054497  -0.124106  0  4.152644  0
C  C88  1  0.99239102  0.20111284  0.06589228  1  -0.379803  0  -0.056135  -0.102731  0  4.181828  0
C  C89  1  0.21242127  0.47952317  0.03257283  1  0.435448  0  0.017826  -0.037672  0  3.937693  0
C  C90  1  0.99299938  0.81311393  0.07423317  1  -0.195208  0  -0.050908  -0.085245  0  4.166543  0
C  C91  1  0.06051227  0.49853418  0.82641592  1  0.435617  0  0.020258  -0.029702  0  3.921831  0
C  C92  1  0.94127129  0.27049183  0.98971394  1  0.403509  0  0.009471  -0.053653  0  3.956564  0
C  C93  1  0.74524143  0.50261531  0.92520622  1  0.462454  0  0.026795  -0.035591  0  3.942902  0
C  C94  1  0.99967176  0.26553558  0.04979706  1  0.123867  0  -0.028886  0.046767  0  4.199381  0
C  C95  1  0.14037395  0.81590990  0.03790459  1  -0.016492  0  -0.153178  -0.209439  0  3.979805  0
C  C96  1  0.11739281  0.85581538  0.98630343  1  0.013578  0  -0.161784  -0.084834  0  3.942047  0
C  C97  1  0.19533405  0.92916846  0.00467024  1  -0.082028  0  -0.2437  -0.355147  0  3.990121  0
C  C98  1  0.91536988  0.38738357  0.14740797  1  0.401404  0  0.022112  -0.039704  0  3.937038  0
C  C99  1  0.06437369  0.74590849  0.02258049  1  0.448945  0  0.105065  0.177222  0  3.946495  0
C  C100  1  0.94097422  0.66418835  0.00962879  1  0.389413  0  0.018031  -0.020052  0  3.936508  0
N  N101  1  0.05212048  0.38928758  0.06285151  1  -0.816209  0  -0.286426  -0.175698  0  3.679997  0
N  N102  1  0.81996710  0.32939232  0.87462153  1  -0.805584  0  -0.289707  -0.18636  0  3.63403  0
N  N103  1  0.18844932  0.57111930  0.00999812  1  -0.797936  0  -0.280204  -0.169669  0  3.658463  0
N  N104  1  0.85749984  0.37698037  0.84613621  1  -0.80287  0  -0.267095  -0.207729  0  3.505478  0
N  N105  1  0.15780856  0.50793935  0.02463423  1  -0.775201  0  -0.267016  -0.217992  0  3.484755  0
N  N106  1  0.03073157  0.52631755  0.87286075  1  -0.808145  0  -0.274744  -0.215172  0  3.550609  0
N  N107  1  0.97305843  0.34536282  0.99845562  1  -0.753513  0  -0.269895  -0.221229  0  3.448604  0
N  N108  1  0.16953898  0.61784376  0.16068962  1  -0.791258  0  -0.286748  -0.173487  0  3.670482  0
N  N109  1  0.80495053  0.48297588  0.92421745  1  -0.805316  0  -0.278681  -0.171462  0  3.603282  0
N  N110  1  0.92659451  0.42245619  0.10205251  1  -0.829829  0  -0.285217  -0.175478  0  3.663153  0
N  N111  1  0.04501180  0.67036451  0.98343989  1  -0.807737  0  -0.29092  -0.248825  0  3.561482  0
N  N112  1  0.96885369  0.61939871  0.97540439  1  -0.802428  0  -0.278663  -0.222698  0  3.553147  0
N  N113  1  0.00452235  0.49004568  0.14368245  1  -0.751921  0  -0.27311  -0.234631  0  3.440209  0
N  N114  1  0.15636738  0.65991677  0.12046918  1  -0.764055  0  -0.264102  -0.207476  0  3.453295  0
N  N115  1  0.83660058  0.47128442  0.98852751  1  -0.794157  0  -0.273839  -0.21215  0  3.542515  0
N  N116  1  0.95259988  0.51488540  0.82580307  1  -0.801065  0  -0.285566  -0.184135  0  3.5798  0
