# generated using pymatgen
data_Al2H15C26S2ClO10
_symmetry_space_group_name_H-M   'P 1'
_cell_length_a   7.30126673
_cell_length_b   12.60781278
_cell_length_c   15.13045892
_cell_angle_alpha   83.07605583
_cell_angle_beta   76.01039795
_cell_angle_gamma   75.06043325
_symmetry_Int_Tables_number   1
_chemical_formula_structural   Al2H15C26S2ClO10
_chemical_formula_sum   'Al2 H15 C26 S2 Cl1 O10'
_cell_volume   1303.28926948
_cell_formula_units_Z   1
loop_
 _symmetry_equiv_pos_site_id
 _symmetry_equiv_pos_as_xyz
  1  'x, y, z'
loop_
 _atom_site_type_symbol
 _atom_site_label
 _atom_site_symmetry_multiplicity
 _atom_site_fract_x
 _atom_site_fract_y
 _atom_site_fract_z
 _atom_site_occupancy
 _atom_site_pbe_bader_charge
 _atom_site_pbe_bader_spin_density
 _atom_site_pbe_cm5_charge
 _atom_site_pbe_ddec_charge
 _atom_site_pbe_ddec_spin_density
 _atom_site_pbe_ddec_sum_bond_order
 _atom_site_pbe_magmom
Al  Al0  1  0.50473085  0.49480078  0.49866434  1  2.508316  0  0.425424  1.641895  0  2.498408  0
Al  Al1  1  0.00198311  0.49869439  0.49960039  1  2.51156  0  0.424413  1.648386  0  2.496334  0
H  H2  1  0.24178812  0.40778767  0.60041137  1  0.598096  0  0.32405  0.399908  0  0.896649  0
H  H3  1  0.72160506  0.62642313  0.43802995  1  0.607389  0  0.317451  0.39336  0  0.911948  0
H  H4  1  0.87363005  0.55248126  0.76784291  1  0.090804  0  0.106304  0.118327  0  1.000548  0
H  H5  1  0.35100512  0.45120344  0.77284882  1  0.071083  0  0.104265  0.114321  0  1.006979  0
H  H6  1  0.08110552  0.54553565  0.22841165  1  0.093615  0  0.107938  0.12071  0  0.999821  0
H  H7  1  0.69048104  0.44615292  0.23052915  1  0.091214  0  0.109495  0.12302  0  0.996009  0
H  H8  1  0.73591438  0.62700347  0.99911479  1  0.037379  0  0.099592  0.103101  0  0.964716  0
H  H9  1  0.94893323  0.56449562  0.92304111  1  0.05601  0  0.099847  0.104841  0  1.030003  0
H  H10  1  0.25404560  0.37542332  0.00928121  1  0.046615  0  0.099314  0.102879  0  0.964076  0
H  H11  1  0.11735417  0.44114102  0.92890513  1  0.044337  0  0.099284  0.104585  0  1.03307  0
H  H12  1  0.14926854  0.62716757  0.99145747  1  0.042797  0  0.0995  0.102403  0  0.965279  0
H  H13  1  0.99231588  0.56047602  0.07211394  1  0.022414  0  0.099454  0.105821  0  1.027656  0
H  H14  1  0.84552700  0.37591264  0.99874672  1  0.049059  0  0.099252  0.101902  0  0.965117  0
H  H15  1  0.92962524  0.43712710  0.07442227  1  0.045052  0  0.099797  0.105818  0  1.030103  0
H  H16  1  0.64428082  0.13539835  0.49074519  1  0.158347  0  0.118301  0.143036  0  0.985694  0
C  C17  1  0.84538526  0.30582152  0.49008045  1  1.627156  0  0.264808  0.658466  0  4.11219  0
C  C18  1  0.67155587  0.49777284  0.65964187  1  1.57022  0  0.267384  0.653515  0  4.056473  0
C  C19  1  0.16791189  0.68938677  0.50635007  1  1.639379  0  0.260144  0.672947  0  4.10041  0
C  C20  1  0.33255364  0.49526053  0.34004048  1  1.582181  0  0.27165  0.65679  0  4.058519  0
C  C21  1  0.81045869  0.55144133  0.96295562  1  -0.026796  0  -0.159929  -0.209085  0  3.957617  0
C  C22  1  0.21709909  0.45280781  0.96774806  1  -0.045551  0  -0.159503  -0.208921  0  3.960442  0
C  C23  1  0.14102395  0.54962925  0.03293702  1  -2.2e-05  0  -0.158866  -0.208128  0  3.956487  0
C  C24  1  0.81851179  0.45122584  0.03500814  1  -0.027594  0  -0.15958  -0.209547  0  3.958166  0
C  C25  1  0.74060616  0.53099123  0.80723433  1  0.026695  0  -0.088591  -0.162882  0  3.957517  0
C  C26  1  0.69155742  0.53174741  0.90195359  1  -0.085801  0  -0.00822  0.086562  0  4.010494  0
C  C27  1  0.44459849  0.47364716  0.81006938  1  -0.023379  0  -0.090325  -0.164322  0  3.961315  0
C  C28  1  0.39661554  0.47463837  0.90477471  1  -0.011305  0  -0.008242  0.085678  0  4.009054  0
C  C29  1  0.23159076  0.52536890  0.19029706  1  -0.033775  0  -0.086907  -0.161766  0  3.954523  0
C  C30  1  0.27793508  0.52789171  0.09542027  1  -0.039083  0  -0.008494  0.083659  0  4.009896  0
C  C31  1  0.57703577  0.46868386  0.19155147  1  0.051258  0  -0.086888  -0.161625  0  3.955085  0
C  C32  1  0.62177046  0.47107694  0.09669010  1  -0.121423  0  -0.010706  0.082298  0  4.010666  0
C  C33  1  0.61738007  0.50143962  0.76099357  1  -0.055551  0  -0.020179  -0.038841  0  4.006195  0
C  C34  1  0.52066406  0.50317712  0.94991008  1  -0.051366  0  -0.010638  -0.02404  0  3.991884  0
C  C35  1  0.38150809  0.49614018  0.23848117  1  -0.033891  0  -0.01853  -0.041259  0  4.010667  0
C  C36  1  0.47227281  0.50112038  0.04952024  1  0.003545  0  -0.009689  -0.017593  0  3.987905  0
C  C37  1  0.21890200  0.88688231  0.50342894  1  0.148305  0  0.003486  0.099102  0  4.099776  0
C  C38  1  0.79748600  0.11036507  0.49270007  1  0.057533  0  -0.087763  -0.130945  0  3.956923  0
C  C39  1  0.11146831  0.81008686  0.50485835  1  -0.158174  0  -0.027477  -0.194556  0  3.950966  0
C  C40  1  0.90779848  0.18502519  0.49139493  1  -0.224274  0  -0.01664  -0.119358  0  3.961809  0
C  C41  1  0.91136428  0.00144937  0.49694696  1  -0.159946  0  -0.022897  0.000821  0  4.072776  0
C  C42  1  0.10554871  0.99600607  0.49887728  1  -0.183986  0  -0.030098  -0.086245  0  4.093946  0
S  S43  1  0.87189454  0.87202024  0.50080253  1  0.290697  0  0.082753  0.137865  0  2.970037  0
S  S44  1  0.14913613  0.12419608  0.49523815  1  0.290113  0  0.089292  0.137984  0  2.788192  0
Cl  Cl45  1  0.45840322  0.85845880  0.50684300  1  -0.175972  0  0.014172  -0.046388  0  1.716797  0
O  O46  1  0.66765402  0.34903507  0.48889978  1  -1.255089  0  -0.231189  -0.574605  0  2.305664  0
O  O47  1  0.84776843  0.49963098  0.62161426  1  -1.267021  0  -0.240349  -0.607959  0  2.337288  0
O  O48  1  0.02782651  0.64474824  0.50713915  1  -1.253646  0  -0.242092  -0.603844  0  2.335052  0
O  O49  1  0.47164983  0.49283247  0.37842794  1  -1.265251  0  -0.234905  -0.594589  0  2.342277  0
O  O50  1  0.34544646  0.64291190  0.50550393  1  -1.247063  0  -0.235469  -0.591406  0  2.35135  0
O  O51  1  0.15545380  0.49845766  0.37915617  1  -1.264817  0  -0.234879  -0.594601  0  2.344856  0
O  O52  1  0.97918857  0.35376036  0.49158783  1  -1.255825  0  -0.233881  -0.589707  0  2.354354  0
O  O53  1  0.53734184  0.49155535  0.62079225  1  -1.261749  0  -0.238134  -0.607086  0  2.340346  0
O  O54  1  0.25510487  0.44623947  0.54051933  1  -1.412795  0  -0.463462  -0.971916  0  2.017269  0
O  O55  1  0.74910875  0.54930716  0.45926200  1  -1.420024  0  -0.462848  -0.968785  0  2.011959  0
