# generated using pymatgen
data_NiH5C7NO5
_symmetry_space_group_name_H-M   'P 1'
_cell_length_a   6.24421063
_cell_length_b   7.76463430
_cell_length_c   15.13414212
_cell_angle_alpha   89.99995963
_cell_angle_beta   89.99986415
_cell_angle_gamma   107.74994944
_symmetry_Int_Tables_number   1
_chemical_formula_structural   NiH5C7NO5
_chemical_formula_sum   'Ni4 H20 C28 N4 O20'
_cell_volume   698.83388131
_cell_formula_units_Z   4
loop_
 _symmetry_equiv_pos_site_id
 _symmetry_equiv_pos_as_xyz
  1  'x, y, z'
loop_
 _atom_site_type_symbol
 _atom_site_label
 _atom_site_symmetry_multiplicity
 _atom_site_fract_x
 _atom_site_fract_y
 _atom_site_fract_z
 _atom_site_occupancy
 _atom_site_hle17_ddec_charge
 _atom_site_hle17_ddec_spin_density
 _atom_site_hle17_ddec_sum_bond_order
 _atom_site_hle17_magmom
 _atom_site_hse06_10hf_ddec_charge
 _atom_site_hse06_10hf_ddec_spin_density
 _atom_site_hse06_10hf_ddec_sum_bond_order
 _atom_site_hse06_10hf_magmom
 _atom_site_hse06_ddec_charge
 _atom_site_hse06_ddec_spin_density
 _atom_site_hse06_ddec_sum_bond_order
 _atom_site_hse06_magmom
 _atom_site_pbe_cm5_charge
 _atom_site_pbe_ddec_charge
 _atom_site_pbe_ddec_spin_density
 _atom_site_pbe_ddec_sum_bond_order
 _atom_site_pbe_magmom
Ni  Ni0  1  0.25957519  0.72253259  0.41766795  1  0.9135  1.767311  1.834582  1.512  0.921503  1.827006  2.221091  1.645  1.018056  1.881628  2.145125  1.735  0.637406  0.843955  1.776931  2.285887  1.565
Ni  Ni1  1  0.24042447  0.27746839  0.91766731  1  0.913516  1.767312  1.834629  1.512  0.921487  1.827002  2.221126  1.645  1.018013  1.881627  2.145223  1.735  0.637397  0.84393  1.776929  2.285941  1.565
Ni  Ni2  1  0.74042257  0.27746657  0.58233256  1  0.913516  1.767308  1.834614  1.512  0.921492  1.827003  2.221093  1.645  1.018028  1.881629  2.145203  1.735  0.637405  0.843944  1.776931  2.28591  1.565
Ni  Ni3  1  0.75957912  0.72253346  0.08233188  1  0.913507  1.767313  1.834592  1.512  0.921514  1.827004  2.221078  1.645  1.018025  1.881628  2.145183  1.735  0.637402  0.843955  1.776924  2.2859  1.565
H  H4  1  0.66780290  0.90487501  0.47008562  1  0.434778  -0.000411  0.865861  -0.001  0.406462  0.000159  0.926195  0.0  0.41856  -4.5e-05  0.909106  0.0  0.297949  0.397752  0.000375  0.938344  0.0
H  H5  1  0.83219503  0.09512518  0.97008429  1  0.434781  -0.000411  0.865861  -0.001  0.406451  0.000159  0.926219  0.0  0.418551  -4.5e-05  0.909129  0.0  0.297942  0.397738  0.000375  0.938378  0.0
H  H6  1  0.33219486  0.09512414  0.52991555  1  0.43477  -0.000411  0.865873  -0.001  0.406433  0.000159  0.926242  0.0  0.418532  -4.5e-05  0.909153  0.0  0.297943  0.397722  0.000375  0.938395  0.0
H  H7  1  0.16780645  0.90487533  0.02991357  1  0.434802  -0.000411  0.865831  -0.001  0.406528  0.000159  0.926125  0.0  0.418627  -4.5e-05  0.909034  0.0  0.297964  0.397814  0.000375  0.938282  0.0
H  H8  1  0.69836835  0.75976368  0.40382287  1  0.419646  -0.000374  0.858332  -0.001  0.396933  0.000236  0.925006  0.0  0.406657  7e-05  0.911114  0.0  0.300296  0.389894  0.000391  0.934417  0.0
H  H9  1  0.80163061  0.24023401  0.90382152  1  0.41968  -0.000374  0.858272  -0.001  0.396968  0.000236  0.924955  0.0  0.406695  7e-05  0.91106  0.0  0.300311  0.389932  0.000391  0.934353  0.0
H  H10  1  0.30162890  0.24023412  0.59617830  1  0.419649  -0.000374  0.858315  -0.001  0.396938  0.000236  0.924996  0.0  0.406665  7e-05  0.911101  0.0  0.300298  0.389899  0.000391  0.934398  0.0
H  H11  1  0.19837458  0.75976785  0.09617767  1  0.419648  -0.000374  0.858295  -0.001  0.396943  0.000236  0.924985  0.0  0.406668  7e-05  0.911092  0.0  0.300321  0.38991  0.000391  0.934359  0.0
H  H12  1  0.34277993  0.67864452  0.23751829  1  0.115697  0.000418  0.950986  0.002  0.119723  0.000326  1.018654  0.002  0.12393  0.000163  1.01385  0.001  0.128447  0.11626  0.000502  1.022564  0.002
H  H13  1  0.15721623  0.32135296  0.73752036  1  0.1156  0.000418  0.951044  0.002  0.119625  0.000326  1.018733  0.002  0.123829  0.000163  1.01392  0.001  0.12842  0.116161  0.000502  1.022637  0.002
H  H14  1  0.65721731  0.32135328  0.76248090  1  0.115683  0.000419  0.951003  0.002  0.119699  0.000326  1.018699  0.002  0.123908  0.000163  1.013892  0.001  0.128439  0.116232  0.000502  1.022609  0.002
H  H15  1  0.84277673  0.67864620  0.26248147  1  0.115685  0.000418  0.950952  0.002  0.119702  0.000326  1.018624  0.002  0.123912  0.000163  1.013814  0.001  0.128435  0.116238  0.000502  1.022536  0.002
H  H16  1  0.22459943  0.11043158  0.18365746  1  0.133838  0.000757  0.93279  0.001  0.139489  0.000372  0.998551  0.0  0.144473  0.000219  0.993225  0.0  0.118204  0.135414  0.00054  1.00299  0.0
H  H17  1  0.27540350  0.88956606  0.68365722  1  0.133855  0.000757  0.932795  0.001  0.139507  0.000372  0.998558  0.0  0.144493  0.000219  0.993227  0.0  0.118211  0.135435  0.00054  1.002998  0.0
H  H18  1  0.77540102  0.88956622  0.81634173  1  0.133836  0.000758  0.932874  0.001  0.139483  0.000372  0.998645  0.0  0.144468  0.000219  0.993317  0.0  0.118192  0.135408  0.00054  1.003082  0.0
H  H19  1  0.72459797  0.11043445  0.31634263  1  0.133839  0.000757  0.932838  0.001  0.139486  0.000372  0.998611  0.0  0.144471  0.000219  0.99328  0.0  0.1182  0.135413  0.00054  1.003047  0.0
H  H20  1  0.22865902  0.32151229  0.44829680  1  0.104043  0.000856  0.960973  0.002  0.106695  0.000525  1.031326  0.001  0.110951  0.000297  1.025869  0.001  0.124724  0.103281  0.000766  1.035754  0.002
H  H21  1  0.27133403  0.67848860  0.94829730  1  0.104046  0.000855  0.960955  0.002  0.106731  0.000525  1.031276  0.001  0.110985  0.000297  1.025819  0.001  0.124744  0.103319  0.000766  1.035699  0.002
H  H22  1  0.77133874  0.67848686  0.55170239  1  0.104034  0.000856  0.960927  0.002  0.106702  0.000525  1.031272  0.001  0.110957  0.000297  1.025814  0.001  0.124719  0.10329  0.000766  1.035701  0.002
H  H23  1  0.72866476  0.32151326  0.05170255  1  0.104039  0.000856  0.960925  0.002  0.106716  0.000525  1.031264  0.001  0.110972  0.000297  1.025805  0.001  0.124734  0.103303  0.000766  1.035693  0.002
C  C24  1  0.30631711  0.53886497  0.25884495  1  0.128584  -0.019066  3.635319  -0.012  0.086254  -0.004234  3.896756  -0.002  0.099079  -0.004867  3.912119  -0.003  0.055341  0.077442  -0.004256  3.88681  -0.002
C  C25  1  0.19367782  0.46113380  0.75884693  1  0.128675  -0.019068  3.635418  -0.012  0.086327  -0.004234  3.896761  -0.002  0.099163  -0.004868  3.91211  -0.003  0.055395  0.077524  -0.004256  3.886803  -0.002
C  C26  1  0.69368065  0.46113419  0.74115424  1  0.12862  -0.019076  3.635406  -0.012  0.08625  -0.004234  3.89679  -0.002  0.099077  -0.004865  3.912147  -0.003  0.055374  0.077448  -0.004256  3.886829  -0.002
C  C27  1  0.80631674  0.53886536  0.24115424  1  0.128607  -0.019073  3.635447  -0.012  0.086295  -0.004235  3.89677  -0.002  0.099122  -0.004868  3.912128  -0.003  0.055371  0.077483  -0.004256  3.886825  -0.002
C  C28  1  0.28090527  0.39963833  0.19766346  1  -0.128653  0.014432  3.758935  0.019  -0.100092  0.005383  3.98876  0.008  -0.115905  0.004261  4.012221  0.006  -0.015137  -0.089941  0.006554  3.974217  0.009
C  C29  1  0.21908585  0.60035793  0.69766404  1  -0.128627  0.014433  3.758893  0.019  -0.099932  0.005384  3.9885  0.008  -0.115763  0.004261  4.012016  0.006  -0.015104  -0.089805  0.006553  3.973997  0.009
C  C30  1  0.71908826  0.60035813  0.80233640  1  -0.128613  0.014436  3.758966  0.019  -0.09992  0.005383  3.988569  0.008  -0.115725  0.00426  4.012017  0.006  -0.015096  -0.089789  0.006553  3.974055  0.009
C  C31  1  0.78090871  0.39964123  0.30233581  1  -0.128649  0.014436  3.758944  0.019  -0.099969  0.005384  3.988569  0.008  -0.115805  0.004261  4.0121  0.006  -0.015107  -0.089841  0.006554  3.974084  0.009
C  C32  1  0.24386457  0.22361163  0.22894575  1  -0.003348  -0.019947  3.632124  -0.013  -0.041202  -0.005294  3.872653  -0.003  -0.029772  -0.004965  3.884303  -0.003  -0.047765  -0.049434  -0.006559  3.866602  -0.004
C  C33  1  0.25613587  0.77638858  0.72894558  1  -0.003464  -0.019949  3.632137  -0.013  -0.041355  -0.005294  3.872676  -0.003  -0.029925  -0.004966  3.884324  -0.003  -0.047804  -0.049585  -0.006559  3.86663  -0.004
C  C34  1  0.75613639  0.77638752  0.77105476  1  -0.003428  -0.019957  3.632251  -0.013  -0.041334  -0.005293  3.872766  -0.003  -0.029905  -0.004965  3.884415  -0.003  -0.047799  -0.049566  -0.006559  3.866716  -0.004
C  C35  1  0.74386560  0.22361193  0.27105493  1  -0.003399  -0.019955  3.63216  -0.013  -0.041323  -0.005295  3.872657  -0.003  -0.029892  -0.004967  3.884304  -0.003  -0.047789  -0.049554  -0.00656  3.866609  -0.004
C  C36  1  0.23539047  0.19448681  0.32030410  1  -0.106366  0.011431  3.718252  0.014  -0.076127  0.003861  3.948116  0.005  -0.089464  0.003126  3.96687  0.004  -0.006682  -0.068652  0.004684  3.938063  0.006
C  C37  1  0.26461095  0.80551311  0.82030324  1  -0.106248  0.011433  3.718092  0.014  -0.076077  0.003861  3.948088  0.005  -0.08941  0.003126  3.966839  0.004  -0.006678  -0.068605  0.004684  3.938031  0.006
C  C38  1  0.76461100  0.80551369  0.67969641  1  -0.106359  0.011436  3.718187  0.014  -0.076143  0.003861  3.948095  0.005  -0.089479  0.003126  3.966847  0.004  -0.006703  -0.068667  0.004684  3.938038  0.006
C  C39  1  0.73539425  0.19448874  0.17969595  1  -0.106347  0.011435  3.718155  0.014  -0.076016  0.003861  3.947926  0.005  -0.089351  0.003127  3.966679  0.004  -0.006652  -0.068539  0.004684  3.937866  0.006
C  C40  1  0.24879531  0.33944630  0.37709024  1  0.146555  -0.020953  3.61384  -0.014  0.105135  -0.005706  3.874005  -0.003  0.119528  -0.006106  3.886274  -0.004  0.06095  0.09476  -0.006078  3.866871  -0.003
C  C41  1  0.25120303  0.66055481  0.87709077  1  0.146531  -0.020956  3.613727  -0.014  0.105078  -0.005706  3.87394  -0.003  0.119472  -0.006108  3.886204  -0.004  0.06091  0.094703  -0.006077  3.866798  -0.003
C  C42  1  0.75120297  0.66055421  0.62290961  1  0.146589  -0.020964  3.613738  -0.014  0.105138  -0.005706  3.87392  -0.003  0.119532  -0.006105  3.886188  -0.004  0.060954  0.094757  -0.006077  3.866788  -0.003
C  C43  1  0.74879896  0.33944705  0.12290974  1  0.146613  -0.020959  3.61372  -0.014  0.105118  -0.005707  3.873896  -0.003  0.119511  -0.006108  3.886162  -0.004  0.060945  0.094748  -0.006077  3.866755  -0.003
C  C44  1  0.29681098  0.44476056  0.10071774  1  0.655001  -0.008333  3.883813  -0.007  0.60768  0.002469  4.191071  0.002  0.646294  0.001528  4.184567  0.002  0.217147  0.579883  0.00313  4.19436  0.002
C  C45  1  0.20318344  0.55523869  0.60071836  1  0.655092  -0.008333  3.883747  -0.007  0.607768  0.002469  4.190969  0.002  0.646384  0.001528  4.18446  0.002  0.217216  0.579981  0.003131  4.194249  0.002
C  C46  1  0.70318678  0.55523859  0.89928277  1  0.655008  -0.008333  3.883971  -0.007  0.607704  0.00247  4.191146  0.002  0.646316  0.001528  4.184638  0.002  0.217157  0.579922  0.003131  4.194411  0.002
C  C47  1  0.79681112  0.44476047  0.39928216  1  0.655137  -0.008333  3.883727  -0.007  0.607762  0.002469  4.191001  0.002  0.646378  0.001528  4.184491  0.002  0.217217  0.579968  0.003131  4.194284  0.002
C  C48  1  0.22432404  0.01363861  0.35666761  1  0.646818  -0.012307  3.854365  -0.011  0.597789  -0.00363  4.15393  -0.004  0.63494  -0.003172  4.151665  -0.003  0.212211  0.57185  -0.003936  4.153626  -0.005
C  C49  1  0.27567976  0.98636391  0.85666536  1  0.646696  -0.012307  3.854616  -0.011  0.597677  -0.003629  4.154203  -0.004  0.634827  -0.003171  4.151931  -0.003  0.212141  0.571741  -0.003935  4.153885  -0.005
C  C50  1  0.77567846  0.98636460  0.64333422  1  0.646727  -0.012308  3.854584  -0.011  0.597713  -0.003629  4.15414  -0.004  0.634865  -0.003172  4.151869  -0.003  0.212159  0.571774  -0.003935  4.153835  -0.005
C  C51  1  0.72433127  0.01364065  0.14333251  1  0.646721  -0.012308  3.85436  -0.011  0.597683  -0.003629  4.153918  -0.004  0.634835  -0.003171  4.151648  -0.003  0.212165  0.571754  -0.003936  4.153596  -0.005
N  N52  1  0.28278431  0.50857819  0.34665371  1  -0.329021  0.055283  3.343757  0.088  -0.288561  0.033382  3.653213  0.055  -0.322198  0.025535  3.672155  0.045  -0.338313  -0.264434  0.039886  3.640513  0.062
N  N53  1  0.21721053  0.49142166  0.84665500  1  -0.329084  0.055283  3.343838  0.088  -0.288596  0.033382  3.653299  0.055  -0.32223  0.025536  3.67224  0.045  -0.338359  -0.26447  0.039886  3.640591  0.062
N  N54  1  0.71721236  0.49142232  0.65334548  1  -0.32905  0.055285  3.343794  0.088  -0.288553  0.033381  3.653241  0.055  -0.322192  0.025534  3.672197  0.045  -0.338335  -0.264432  0.039886  3.640543  0.062
N  N55  1  0.78278666  0.50858020  0.15334551  1  -0.329096  0.055286  3.343797  0.088  -0.288609  0.033382  3.653242  0.055  -0.32224  0.025536  3.67218  0.045  -0.338337  -0.26448  0.039886  3.640541  0.062
O  O56  1  0.38762646  0.60960049  0.07753498  1  -0.645433  0.023386  2.060196  0.039  -0.610763  0.014044  2.326824  0.023  -0.643452  0.009689  2.314414  0.018  -0.309704  -0.585401  0.018796  2.334731  0.029
O  O57  1  0.11237349  0.39039612  0.57753575  1  -0.645472  0.02339  2.060234  0.039  -0.610809  0.014045  2.326866  0.023  -0.643496  0.009691  2.314442  0.018  -0.309726  -0.585424  0.018799  2.334708  0.029
O  O58  1  0.61237398  0.39039731  0.92246553  1  -0.645442  0.023388  2.060324  0.039  -0.610784  0.014045  2.326933  0.023  -0.643487  0.00969  2.314554  0.018  -0.309692  -0.585418  0.018799  2.33482  0.029
O  O59  1  0.88762427  0.60960303  0.42246410  1  -0.645523  0.023388  2.060156  0.039  -0.610829  0.014044  2.326783  0.023  -0.64352  0.00969  2.314359  0.018  -0.309746  -0.585452  0.018798  2.334653  0.029
O  O60  1  0.21401424  0.31354095  0.04866134  1  -0.563887  0.05808  2.097765  0.097  -0.540351  0.036261  2.383844  0.062  -0.580071  0.025909  2.373552  0.047  -0.291712  -0.509281  0.046659  2.389942  0.077
O  O61  1  0.28598002  0.68645712  0.54866248  1  -0.563912  0.058075  2.097684  0.097  -0.540424  0.036258  2.383797  0.062  -0.580152  0.025907  2.373511  0.047  -0.29177  -0.509359  0.046657  2.389883  0.077
O  O62  1  0.78598243  0.68645956  0.95133786  1  -0.563915  0.058078  2.097847  0.097  -0.540395  0.036259  2.383903  0.062  -0.580119  0.025908  2.373624  0.047  -0.291756  -0.509328  0.046658  2.389992  0.077
O  O63  1  0.71401671  0.31353934  0.45133671  1  -0.563962  0.058076  2.097845  0.097  -0.540416  0.036259  2.38393  0.062  -0.580137  0.025907  2.373646  0.047  -0.291763  -0.509346  0.046657  2.390022  0.077
O  O64  1  0.22124562  0.98719948  0.44040129  1  -0.586788  0.044854  2.011673  0.073  -0.543398  0.027951  2.251194  0.047  -0.581844  0.019742  2.243716  0.035  -0.295641  -0.514033  0.035674  2.255173  0.057
O  O65  1  0.27875440  0.01280278  0.94040004  1  -0.586854  0.044856  2.01176  0.073  -0.543434  0.027952  2.251222  0.047  -0.581874  0.019743  2.243747  0.035  -0.295658  -0.514068  0.035677  2.255197  0.057
O  O66  1  0.77875368  0.01280373  0.55959988  1  -0.586816  0.044856  2.011766  0.073  -0.5434  0.027952  2.251217  0.047  -0.581845  0.019743  2.243745  0.035  -0.295647  -0.514039  0.035675  2.255198  0.057
O  O67  1  0.72124330  0.98720044  0.05959783  1  -0.586755  0.044854  2.011591  0.073  -0.543392  0.027951  2.251126  0.047  -0.581832  0.019742  2.243649  0.035  -0.295622  -0.514029  0.035675  2.255106  0.057
O  O68  1  0.22681780  0.88659515  0.30418479  1  -0.558124  0.058121  1.964272  0.094  -0.534272  0.034351  2.223493  0.058  -0.574697  0.023468  2.219815  0.042  -0.288004  -0.502238  0.044987  2.223748  0.073
O  O69  1  0.27319385  0.11340617  0.80418220  1  -0.557987  0.058113  1.964475  0.094  -0.534128  0.034348  2.223653  0.058  -0.574556  0.023465  2.220006  0.042  -0.287908  -0.502093  0.044984  2.223905  0.073
O  O70  1  0.77318848  0.11340535  0.69581836  1  -0.55801  0.058117  1.964445  0.094  -0.534156  0.03435  2.223639  0.058  -0.574581  0.023467  2.219978  0.042  -0.287921  -0.502122  0.044985  2.223892  0.073
O  O71  1  0.72682998  0.88659838  0.19581501  1  -0.558079  0.058117  1.964311  0.094  -0.534248  0.03435  2.223556  0.058  -0.574659  0.023467  2.219865  0.042  -0.288006  -0.502214  0.044986  2.223808  0.073
O  O72  1  0.61054415  0.84462889  0.41244381  1  -0.776799  0.046475  1.903701  0.077  -0.752871  0.032541  2.114418  0.055  -0.785024  0.023521  2.080907  0.043  -0.559692  -0.727056  0.040954  2.137538  0.066
O  O73  1  0.88945635  0.15536878  0.91244306  1  -0.776832  0.046475  1.903656  0.077  -0.752891  0.032541  2.114387  0.055  -0.785039  0.023522  2.080879  0.043  -0.5597  -0.727071  0.040955  2.137502  0.066
O  O74  1  0.38945521  0.15537027  0.58755671  1  -0.776802  0.046474  1.903703  0.077  -0.752862  0.032541  2.114443  0.055  -0.785013  0.023521  2.080941  0.043  -0.559694  -0.727045  0.040953  2.137557  0.066
O  O75  1  0.11054673  0.84463173  0.08755481  1  -0.776815  0.046475  1.903658  0.077  -0.752947  0.032541  2.114305  0.055  -0.785095  0.023522  2.080798  0.043  -0.559733  -0.727126  0.040955  2.137402  0.066
