# generated using pymatgen
data_NaH7C6(NO3)2
_symmetry_space_group_name_H-M   'P 1'
_cell_length_a   7.55373822
_cell_length_b   7.83460242
_cell_length_c   8.39373907
_cell_angle_alpha   69.41560713
_cell_angle_beta   71.29177257
_cell_angle_gamma   85.42501559
_symmetry_Int_Tables_number   1
_chemical_formula_structural   NaH7C6(NO3)2
_chemical_formula_sum   'Na2 H14 C12 N4 O12'
_cell_volume   440.15582217
_cell_formula_units_Z   2
loop_
 _symmetry_equiv_pos_site_id
 _symmetry_equiv_pos_as_xyz
  1  'x, y, z'
loop_
 _atom_site_type_symbol
 _atom_site_label
 _atom_site_symmetry_multiplicity
 _atom_site_fract_x
 _atom_site_fract_y
 _atom_site_fract_z
 _atom_site_occupancy
 _atom_site_pbe_bader_charge
 _atom_site_pbe_bader_spin_density
 _atom_site_pbe_cm5_charge
 _atom_site_pbe_ddec_charge
 _atom_site_pbe_ddec_spin_density
 _atom_site_pbe_ddec_sum_bond_order
 _atom_site_pbe_magmom
Na  Na0  1  0.22124936  0.02133257  0.35861334  1  0.876355  0  0.681138  0.809939  0  0.608039  0
Na  Na1  1  0.77875226  0.97866784  0.64138564  1  0.876362  0  0.681134  0.809943  0  0.608032  0
H  H2  1  0.68900188  0.43944775  0.32864784  1  0.138816  0  0.125614  0.096236  0  1.014585  0
H  H3  1  0.31099689  0.56055130  0.67135598  1  0.138857  0  0.125613  0.096218  0  1.014589  0
H  H4  1  0.87603692  0.66823655  0.03338078  1  0.135704  0  0.128058  0.110304  0  0.996894  0
H  H5  1  0.12396331  0.33176386  0.96662217  1  0.135702  0  0.128055  0.110295  0  0.99692  0
H  H6  1  0.92763014  0.78871171  0.36184714  1  0.645907  0  0.303306  0.382692  0  0.950959  0
H  H7  1  0.07236869  0.21128871  0.63815145  1  0.645903  0  0.303305  0.382716  0  0.950892  0
H  H8  1  0.31695058  0.32648401  0.46496723  1  0.636484  0  0.288454  0.337063  0  1.024666  0
H  H9  1  0.68305100  0.67351505  0.53502983  1  0.636459  0  0.288458  0.337073  0  1.024651  0
H  H10  1  0.11006458  0.83621730  0.74585211  1  0.652242  0  0.287071  0.389197  0  0.955919  0
H  H11  1  0.88993710  0.16378449  0.25414641  1  0.652202  0  0.287081  0.38924  0  0.955855  0
H  H12  1  0.33448892  0.12955829  0.61957060  1  0.653806  0  0.293092  0.386422  0  0.954369  0
H  H13  1  0.66551131  0.87044213  0.38042759  1  0.653797  0  0.293071  0.386392  0  0.954413  0
H  H14  1  0.02423988  0.70511859  0.67884907  1  0.650628  0  0.29223  0.391811  0  0.950439  0
H  H15  1  0.97576040  0.29488319  0.32115104  1  0.650613  0  0.292208  0.391791  0  0.950462  0
C  C16  1  0.35545933  0.87632526  0.87796987  1  1.625596  0  0.211558  0.553488  0  4.243345  0
C  C17  1  0.64454364  0.12367380  0.12202917  1  1.62562  0  0.211493  0.553413  0  4.243436  0
C  C18  1  0.45149585  0.76285505  0.01219890  1  0.510502  0  0.12432  0.044282  0  3.963049  0
C  C19  1  0.54850427  0.23714264  0.98780140  1  0.510467  0  0.124339  0.044336  0  3.963067  0
C  C20  1  0.34740627  0.64604475  0.18282968  1  0.554513  0  0.137981  0.059711  0  3.925561  0
C  C21  1  0.65259536  0.35395566  0.81717169  1  0.554511  0  0.137954  0.059705  0  3.925569  0
C  C22  1  0.62038794  0.53496403  0.23891991  1  0.525312  0  0.062814  0.061827  0  3.906793  0
C  C23  1  0.37961224  0.46503501  0.76108351  1  0.525401  0  0.062791  0.061793  0  3.906803  0
C  C24  1  0.72373291  0.65863345  0.07389754  1  0.563397  0  0.06596  0.073791  0  3.906547  0
C  C25  1  0.27626592  0.34136697  0.92610701  1  0.563673  0  0.06593  0.073787  0  3.906568  0
C  C26  1  0.13674221  0.64682692  0.25625015  1  1.608075  0  0.246075  0.591629  0  4.160444  0
C  C27  1  0.86325668  0.35317487  0.74374678  1  1.608061  0  0.246126  0.59154  0  4.160534  0
N  N28  1  0.43284986  0.52896517  0.29303219  1  -1.277036  0  -0.278977  -0.223069  0  3.365471  0
N  N29  1  0.56714896  0.47103525  0.70696998  1  -1.277048  0  -0.27893  -0.222992  0  3.365414  0
N  N30  1  0.63904658  0.76845830  0.95992062  1  -1.166389  0  -0.34179  -0.270747  0  3.379791  0
N  N31  1  0.36095359  0.23154075  0.04008280  1  -1.166737  0  -0.341757  -0.270723  0  3.379835  0
O  O32  1  0.25645386  0.20248271  0.54041196  1  -1.291777  0  -0.596001  -0.75544  0  2.157644  0
O  O33  1  0.74354632  0.79751635  0.45958550  1  -1.291742  0  -0.595983  -0.755413  0  2.157671  0
O  O34  1  0.07900719  0.79456731  0.29377676  1  -1.17222  0  -0.351618  -0.515617  0  2.351332  0
O  O35  1  0.92099320  0.20543720  0.70622005  1  -1.172181  0  -0.351594  -0.515552  0  2.35137  0
O  O36  1  0.06587247  0.83207937  0.64694048  1  -1.331919  0  -0.728299  -0.886561  0  1.989736  0
O  O37  1  0.93412921  0.16792241  0.35305803  1  -1.331851  0  -0.728271  -0.886575  0  1.989702  0
O  O38  1  0.45079039  0.00722463  0.74365307  1  -1.197682  0  -0.371121  -0.598018  0  2.212915  0
O  O39  1  0.54920833  0.99277306  0.25634763  1  -1.197684  0  -0.371101  -0.598001  0  2.212942  0
O  O40  1  0.18920783  0.82577429  0.91051001  1  -1.16665  0  -0.299517  -0.52946  0  2.193399  0
O  O41  1  0.81079234  0.17422477  0.08948864  1  -1.166673  0  -0.299493  -0.52944  0  2.193448  0
O  O42  1  0.03515974  0.51505391  0.28874938  1  -1.173669  0  -0.280365  -0.509521  0  2.225598  0
O  O43  1  0.96484479  0.48494923  0.71124788  1  -1.173706  0  -0.280414  -0.509505  0  2.225514  0
