# generated using pymatgen
data_AgH15C18S2Br2(NO2)2
_symmetry_space_group_name_H-M   'P 1'
_cell_length_a   7.68578794
_cell_length_b   11.44644611
_cell_length_c   12.26678490
_cell_angle_alpha   84.39370340
_cell_angle_beta   80.06440035
_cell_angle_gamma   72.75922138
_symmetry_Int_Tables_number   1
_chemical_formula_structural   AgH15C18S2Br2(NO2)2
_chemical_formula_sum   'Ag2 H30 C36 S4 Br4 N4 O8'
_cell_volume   1013.97862232
_cell_formula_units_Z   2
loop_
 _symmetry_equiv_pos_site_id
 _symmetry_equiv_pos_as_xyz
  1  'x, y, z'
loop_
 _atom_site_type_symbol
 _atom_site_label
 _atom_site_symmetry_multiplicity
 _atom_site_fract_x
 _atom_site_fract_y
 _atom_site_fract_z
 _atom_site_occupancy
 _atom_site_hle17_bader_spin_density
 _atom_site_hle17_ddec_charge
 _atom_site_hle17_ddec_spin_density
 _atom_site_hle17_ddec_sum_bond_order
 _atom_site_hle17_magmom
 _atom_site_hse06_10hf_bader_spin_density
 _atom_site_hse06_10hf_ddec_charge
 _atom_site_hse06_10hf_ddec_spin_density
 _atom_site_hse06_10hf_ddec_sum_bond_order
 _atom_site_hse06_10hf_magmom
 _atom_site_hse06_bader_spin_density
 _atom_site_hse06_ddec_charge
 _atom_site_hse06_ddec_spin_density
 _atom_site_hse06_ddec_sum_bond_order
 _atom_site_hse06_magmom
 _atom_site_pbe_bader_spin_density
 _atom_site_pbe_cm5_charge
 _atom_site_pbe_ddec_charge
 _atom_site_pbe_ddec_spin_density
 _atom_site_pbe_ddec_sum_bond_order
 _atom_site_pbe_magmom
Ag  Ag0  1  0.21974476  0.59811839  0.41905670  1  0  0.62041  0  1.341949  0  0  0.481962  0  1.7727  0  0  0.509597  0  1.729789  0  0  0.478058  0.462495  0  1.802315  0
Ag  Ag1  1  0.78023912  0.40188170  0.58094809  1  0  0.620357  0  1.341903  0  0  0.48193  0  1.772622  0  0  0.509559  0  1.729713  0  0  0.478051  0.462462  0  1.802235  0
H  H2  1  0.02238413  0.58096958  0.21920001  1  0  0.097248  0  0.973489  0  0  0.104493  0  1.043498  0  0  0.107803  0  1.040599  0  0  0.102846  0.102087  0  1.045684  0
H  H3  1  0.97762408  0.41903234  0.78080350  1  0  0.097263  0  0.973581  0  0  0.104516  0  1.043565  0  0  0.107825  0  1.040673  0  0  0.102856  0.102113  0  1.045747  0
H  H4  1  0.10290189  0.64653156  0.02085070  1  0  0.111261  0  0.932572  0  0  0.125809  0  0.984109  0  0  0.128867  0  0.983499  0  0  0.105419  0.123611  0  0.98471  0
H  H5  1  0.89710623  0.35347679  0.97915376  1  0  0.11124  0  0.932581  0  0  0.125816  0  0.984088  0  0  0.128871  0  0.983483  0  0  0.105384  0.123617  0  0.984685  0
H  H6  1  0.45780920  0.28099481  0.95984188  1  0  0.099293  0  0.961572  0  0  0.108442  0  1.02653  0  0  0.111851  0  1.024775  0  0  0.096478  0.105997  0  1.027905  0
H  H7  1  0.54217536  0.71900963  0.04015014  1  0  0.099352  0  0.961585  0  0  0.108474  0  1.026578  0  0  0.111886  0  1.02482  0  0  0.096503  0.106036  0  1.027948  0
H  H8  1  0.37867382  0.21740028  0.15747593  1  0  0.102647  0  0.965406  0  0  0.105574  0  1.039471  0  0  0.109563  0  1.036003  0  0  0.099705  0.102741  0  1.041929  0
H  H9  1  0.62131984  0.78260141  0.84251537  1  0  0.102702  0  0.965279  0  0  0.105618  0  1.03937  0  0  0.109608  0  1.035902  0  0  0.09974  0.102782  0  1.041829  0
H  H10  1  0.63718600  0.05685050  0.49132780  1  0  0.099881  0  0.96903  0  0  0.110522  0  1.030085  0  0  0.11303  0  1.029302  0  0  0.108019  0.108726  0  1.030703  0
H  H11  1  0.36281628  0.94315584  0.50866694  1  0  0.099869  0  0.969026  0  0  0.110495  0  1.030081  0  0  0.113003  0  1.029299  0  0  0.108002  0.108698  0  1.030705  0
H  H12  1  0.59643880  0.94812512  0.67502308  1  0  0.132212  0  0.962703  0  0  0.138076  0  1.027162  0  0  0.142047  0  1.024567  0  0  0.106968  0.13531  0  1.028897  0
H  H13  1  0.40356807  0.05187660  0.32496919  1  0  0.13224  0  0.962664  0  0  0.138125  0  1.027113  0  0  0.142102  0  1.024496  0  0  0.106977  0.13536  0  1.028842  0
H  H14  1  0.22792471  0.28431719  0.80857534  1  0  0.097724  0  0.969803  0  0  0.108712  0  1.032065  0  0  0.11144  0  1.031016  0  0  0.097339  0.106711  0  1.032999  0
H  H15  1  0.77207777  0.71567642  0.19142562  1  0  0.097701  0  0.96976  0  0  0.108723  0  1.031999  0  0  0.111416  0  1.030989  0  0  0.097326  0.106716  0  1.032938  0
H  H16  1  0.26859633  0.39296052  0.62398246  1  0  0.12875  0  0.961013  0  0  0.13676  0  1.02399  0  0  0.14014  0  1.021679  0  0  0.108658  0.134397  0  1.025551  0
H  H17  1  0.73139627  0.60703769  0.37601993  1  0  0.12867  0  0.96106  0  0  0.13669  0  1.024051  0  0  0.14007  0  1.021742  0  0  0.108625  0.134321  0  1.02562  0
H  H18  1  0.95912346  0.86437465  0.47435036  1  0  0.086009  0  0.950947  0  0  0.093641  0  1.017193  0  0  0.096272  0  1.014789  0  0  0.113076  0.091699  0  1.018991  0
H  H19  1  0.04087178  0.13562357  0.52565255  1  0  0.08603  0  0.950979  0  0  0.093711  0  1.017166  0  0  0.096341  0  1.014764  0  0  0.113099  0.091766  0  1.018965  0
H  H20  1  0.86360324  0.06943386  0.37370143  1  0  0.113729  0  0.960381  0  0  0.12562  0  1.01752  0  0  0.128568  0  1.016863  0  0  0.10814  0.123467  0  1.018313  0
H  H21  1  0.13639783  0.93056619  0.62630063  1  0  0.113733  0  0.960348  0  0  0.125551  0  1.017576  0  0  0.128495  0  1.016926  0  0  0.108153  0.123394  0  1.01837  0
H  H22  1  0.21160149  0.90737239  0.08142085  1  0  0.095235  0  0.973441  0  0  0.107767  0  1.034538  0  0  0.110517  0  1.034107  0  0  0.093041  0.105779  0  1.035053  0
H  H23  1  0.78840247  0.09262405  0.91858454  1  0  0.095212  0  0.973394  0  0  0.10774  0  1.034506  0  0  0.110489  0  1.034078  0  0  0.093039  0.10576  0  1.035008  0
H  H24  1  0.30110247  0.71165432  0.19322311  1  0  0.057478  0  0.975954  0  0  0.063403  0  1.052678  0  0  0.065715  0  1.0501  0  0  0.101653  0.061657  0  1.054687  0
H  H25  1  0.69889884  0.28834214  0.80678338  1  0  0.057511  0  0.975892  0  0  0.063425  0  1.052626  0  0  0.065743  0  1.050043  0  0  0.101679  0.061685  0  1.054631  0
H  H26  1  0.82338758  0.16929102  0.17491995  1  0  0.126239  0  0.964019  0  0  0.143715  0  1.030383  0  0  0.145971  0  1.029018  0  0  0.089723  0.14214  0  1.031246  0
H  H27  1  0.17662258  0.83070622  0.82507814  1  0  0.12626  0  0.96401  0  0  0.143715  0  1.03041  0  0  0.14597  0  1.029044  0  0  0.089705  0.142139  0  1.031272  0
H  H28  1  0.01686694  0.12010985  0.06756090  1  0  0.095921  0  0.974421  0  0  0.111539  0  1.047345  0  0  0.113304  0  1.046422  0  0  0.076919  0.110297  0  1.047883  0
H  H29  1  0.98314930  0.87988564  0.93244158  1  0  0.095911  0  0.97442  0  0  0.111568  0  1.047306  0  0  0.113333  0  1.046385  0  0  0.076968  0.11033  0  1.047841  0
H  H30  1  0.03648048  0.19145388  0.18587854  1  0  0.126224  0  0.958366  0  0  0.147101  0  1.020739  0  0  0.147878  0  1.021521  0  0  0.092486  0.146429  0  1.020375  0
H  H31  1  0.96352915  0.80854164  0.81412632  1  0  0.126253  0  0.95837  0  0  0.147124  0  1.020754  0  0  0.1479  0  1.021538  0  0  0.092501  0.146453  0  1.020389  0
C  C32  1  0.19499143  0.39588896  0.19916274  1  0  -0.126525  0  3.756907  0  0  -0.102604  0  4.004078  0  0  -0.109743  0  4.025988  0  0  -0.025672  -0.098128  0  3.989695  0
C  C33  1  0.80500582  0.60411379  0.80083620  1  0  -0.126649  0  3.756988  0  0  -0.102552  0  4.003911  0  0  -0.109686  0  4.025813  0  0  -0.02571  -0.098107  0  3.989557  0
C  C34  1  0.11774639  0.51649546  0.16156152  1  0  -0.063166  0  3.776282  0  0  -0.088559  0  4.034553  0  0  -0.08681  0  4.053332  0  0  -0.087229  -0.089671  0  4.021957  0
C  C35  1  0.88225957  0.48350548  0.83843909  1  0  -0.06324  0  3.776432  0  0  -0.088672  0  4.034654  0  0  -0.086912  0  4.053399  0  0  -0.087235  -0.089777  0  4.022073  0
C  C36  1  0.16345557  0.55305471  0.05135605  1  0  -0.120098  0  3.748769  0  0  -0.138738  0  3.996716  0  0  -0.143261  0  4.017966  0  0  -0.097891  -0.135708  0  3.982405  0
C  C37  1  0.83654975  0.44695076  0.94864170  1  0  -0.120012  0  3.748813  0  0  -0.138685  0  3.996758  0  0  -0.143207  0  4.018014  0  0  -0.097857  -0.135658  0  3.982437  0
C  C38  1  0.28695729  0.46785744  0.97964055  1  0  0.09063  0  3.729539  0  0  0.105222  0  3.994678  0  0  0.109492  0  4.01744  0  0  -0.017106  0.102368  0  3.979161  0
C  C39  1  0.71304338  0.53214343  0.02035576  1  0  0.090572  0  3.729323  0  0  0.105167  0  3.994469  0  0  0.109438  0  4.017228  0  0  -0.017109  0.102323  0  3.978946  0
C  C40  1  0.36305909  0.34692146  0.01667777  1  0  -0.130824  0  3.762027  0  0  -0.152066  0  4.015893  0  0  -0.156123  0  4.035919  0  0  -0.101796  -0.149371  0  4.002309  0
C  C41  1  0.63693379  0.65308215  0.98331830  1  0  -0.130793  0  3.762052  0  0  -0.152018  0  4.015917  0  0  -0.156078  0  4.035944  0  0  -0.101752  -0.149335  0  4.002335  0
C  C42  1  0.31722469  0.31077941  0.12729783  1  0  -0.041391  0  3.743446  0  0  -0.066894  0  3.998335  0  0  -0.064442  0  4.015937  0  0  -0.081561  -0.068318  0  3.986429  0
C  C43  1  0.68277054  0.68921871  0.87269938  1  0  -0.041487  0  3.743488  0  0  -0.06703  0  3.998314  0  0  -0.064582  0  4.015924  0  0  -0.08165  -0.068421  0  3.986382  0
C  C44  1  0.45599009  0.23043451  0.54710991  1  0  -0.118591  0  3.743411  0  0  -0.095289  0  3.994422  0  0  -0.101649  0  4.015483  0  0  -0.022932  -0.091245  0  3.980521  0
C  C45  1  0.54400343  0.76956458  0.45288984  1  0  -0.118618  0  3.743482  0  0  -0.09529  0  3.99448  0  0  -0.101675  0  4.015571  0  0  -0.022921  -0.091252  0  3.980581  0
C  C46  1  0.54897192  0.10650209  0.56113721  1  0  -0.045049  0  3.727471  0  0  -0.068807  0  3.975283  0  0  -0.067659  0  3.994775  0  0  -0.079533  -0.069491  0  3.962151  0
C  C47  1  0.45102679  0.89350338  0.43886046  1  0  -0.044874  0  3.727228  0  0  -0.068614  0  3.975011  0  0  -0.067457  0  3.994506  0  0  -0.079398  -0.069299  0  3.961887  0
C  C48  1  0.52552629  0.04514141  0.66415600  1  0  -0.106942  0  3.705638  0  0  -0.129397  0  3.958503  0  0  -0.132633  0  3.978008  0  0  -0.092225  -0.127231  0  3.945225  0
C  C49  1  0.47448176  0.95485760  0.33583888  1  0  -0.107206  0  3.705779  0  0  -0.12969  0  3.958627  0  0  -0.132924  0  3.978138  0  0  -0.092387  -0.12752  0  3.945356  0
C  C50  1  0.40764954  0.11105442  0.75077798  1  0  0.102851  0  3.722423  0  0  0.117003  0  3.986891  0  0  0.121177  0  4.009404  0  0  -0.014143  0.114129  0  3.971673  0
C  C51  1  0.59235377  0.88894648  0.24922047  1  0  0.102948  0  3.722412  0  0  0.117119  0  3.986849  0  0  0.121295  0  4.00935  0  0  -0.01406  0.114241  0  3.971633  0
C  C52  1  0.31575491  0.23528733  0.73821813  1  0  -0.132705  0  3.783145  0  0  -0.153466  0  4.034006  0  0  -0.157755  0  4.055979  0  0  -0.102188  -0.150646  0  4.019261  0
C  C53  1  0.68424639  0.76470900  0.26178105  1  0  -0.132764  0  3.782909  0  0  -0.153556  0  4.033778  0  0  -0.157814  0  4.055759  0  0  -0.102204  -0.150731  0  4.019027  0
C  C54  1  0.34018484  0.29603930  0.63521156  1  0  -0.057459  0  3.724111  0  0  -0.08171  0  3.976296  0  0  -0.080779  0  3.995196  0  0  -0.083847  -0.082247  0  3.963532  0
C  C55  1  0.65980884  0.70396259  0.36479113  1  0  -0.057259  0  3.724011  0  0  -0.081571  0  3.976268  0  0  -0.080628  0  3.995161  0  0  -0.08382  -0.082104  0  3.963497  0
C  C56  1  0.01414682  0.87844024  0.38745709  1  0  0.119332  0  3.709997  0  0  0.089396  0  3.9616  0  0  0.096218  0  3.981527  0  0  0.039382  0.085031  0  3.947846  0
C  C57  1  0.98585239  0.12155798  0.61254538  1  0  0.119188  0  3.710105  0  0  0.08921  0  3.961713  0  0  0.096031  0  3.98164  0  0  0.03938  0.084853  0  3.947952  0
C  C58  1  0.96089305  0.99162814  0.33126552  1  0  -0.159691  0  3.660889  0  0  -0.177387  0  3.902363  0  0  -0.186064  0  3.924473  0  0  -0.082352  -0.1718  0  3.887605  0
C  C59  1  0.03910958  0.00836827  0.66873757  1  0  -0.159554  0  3.660782  0  0  -0.177204  0  3.902281  0  0  -0.185879  0  3.924389  0  0  -0.082373  -0.171612  0  3.887514  0
C  C60  1  0.02928179  0.00654207  0.21870208  1  0  0.219169  0  3.712458  0  0  0.241797  0  3.945066  0  0  0.248256  0  3.966487  0  0  0.016694  0.237483  0  3.930439  0
C  C61  1  0.97072138  0.99345619  0.78130238  1  0  0.219115  0  3.712546  0  0  0.24178  0  3.945106  0  0  0.248241  0  3.966518  0  0  0.016706  0.237469  0  3.930478  0
C  C62  1  0.15305085  0.90289752  0.16874505  1  0  -0.197669  0  3.736737  0  0  -0.214419  0  3.97635  0  0  -0.223873  0  3.999664  0  0  -0.09742  -0.20822  0  3.960774  0
C  C63  1  0.84695575  0.09709889  0.83125842  1  0  -0.197645  0  3.736698  0  0  -0.214423  0  3.976314  0  0  -0.223875  0  3.999635  0  0  -0.097429  -0.20822  0  3.960738  0
C  C64  1  0.20309391  0.79291845  0.23035572  1  0  0.113913  0  3.762939  0  0  0.087539  0  4.008517  0  0  0.093954  0  4.030419  0  0  0.032606  0.083219  0  3.993829  0
C  C65  1  0.79690701  0.20707888  0.76964828  1  0  0.113843  0  3.762752  0  0  0.087472  0  4.008374  0  0  0.09389  0  4.030254  0  0  0.032567  0.083132  0  3.993714  0
C  C66  1  0.97304643  0.12794648  0.15719387  1  0  -0.364644  0  3.716832  0  0  -0.44511  0  3.947521  0  0  -0.44796  0  3.954822  0  0  -0.248753  -0.442752  0  3.942312  0
C  C67  1  0.02696374  0.87205082  0.84280747  1  0  -0.364662  0  3.716986  0  0  -0.445141  0  3.947628  0  0  -0.447992  0  3.95493  0  0  -0.248795  -0.442789  0  3.942421  0
S  S68  1  0.14451568  0.35577334  0.34245915  1  0  1.23346  0  5.460038  0  0  1.139823  0  5.960383  0  0  1.185632  0  5.944061  0  0  0.543171  1.108213  0  5.970883  0
S  S69  1  0.85548899  0.64421191  0.65753594  1  0  1.233537  0  5.460205  0  0  1.13987  0  5.960493  0  0  1.185694  0  5.944166  0  0  0.54321  1.10828  0  5.970983  0
S  S70  1  0.49174807  0.30745940  0.41578002  1  0  1.241597  0  5.452873  0  0  1.150462  0  5.947536  0  0  1.196149  0  5.932467  0  0  0.543428  1.118876  0  5.957092  0
S  S71  1  0.50824395  0.69255262  0.58422504  1  0  1.241545  0  5.452962  0  0  1.150353  0  5.947691  0  0  1.19605  0  5.93262  0  0  0.543378  1.118763  0  5.957254  0
Br  Br72  1  0.34856122  0.51862060  0.82961230  1  0  -0.005148  0  1.359243  0  0  0.003081  0  1.639623  0  0  -0.001849  0  1.634702  0  0  0.084713  0.006682  0  1.64293  0
Br  Br73  1  0.65143431  0.48138303  0.17038511  1  0  -0.00512  0  1.359168  0  0  0.003117  0  1.63954  0  0  -0.001816  0  1.634628  0  0  0.084722  0.006718  0  1.642841  0
Br  Br74  1  0.37465960  0.03132462  0.89308813  1  0  -0.068383  0  1.35351  0  0  -0.049998  0  1.622217  0  0  -0.055483  0  1.616135  0  0  0.060643  -0.046081  0  1.626497  0
Br  Br75  1  0.62534792  0.96867259  0.10690862  1  0  -0.068376  0  1.353472  0  0  -0.050001  0  1.622178  0  0  -0.055486  0  1.616089  0  0  0.060627  -0.046083  0  1.626463  0
N  N76  1  0.29041888  0.39869086  0.39936973  1  0  -0.79926  0  3.108509  0  0  -0.712166  0  3.439084  0  0  -0.740918  0  3.433899  0  0  -0.450874  -0.691837  0  3.441642  0
N  N77  1  0.70956672  0.60130826  0.60063253  1  0  -0.799123  0  3.108335  0  0  -0.712041  0  3.438914  0  0  -0.740795  0  3.433728  0  0  -0.450874  -0.691708  0  3.44146  0
N  N78  1  0.13473344  0.77933899  0.33824251  1  0  -0.332131  0  3.370783  0  0  -0.247738  0  3.657441  0  0  -0.268449  0  3.675945  0  0  -0.352341  -0.233405  0  3.644271  0
N  N79  1  0.86526748  0.22065833  0.66176067  1  0  -0.332008  0  3.370634  0  0  -0.247633  0  3.657334  0  0  -0.268342  0  3.675843  0  0  -0.352301  -0.233299  0  3.644163  0
O  O80  1  0.96431648  0.43684956  0.38206732  1  0  -0.609839  0  2.059009  0  0  -0.556147  0  2.340114  0  0  -0.577136  0  2.324008  0  0  -0.313737  -0.541486  0  2.35088  0
O  O81  1  0.03566593  0.56314763  0.61792979  1  0  -0.609694  0  2.059546  0  0  -0.556073  0  2.34081  0  0  -0.577068  0  2.324684  0  0  -0.313642  -0.541435  0  2.351581  0
O  O82  1  0.16961864  0.22456971  0.35584773  1  0  -0.603563  0  1.955963  0  0  -0.547596  0  2.194154  0  0  -0.5681  0  2.183277  0  0  -0.310606  -0.533157  0  2.201286  0
O  O83  1  0.83038124  0.77543296  0.64414684  1  0  -0.603702  0  1.955481  0  0  -0.547735  0  2.193654  0  0  -0.568249  0  2.182781  0  0  -0.310695  -0.533298  0  2.200776  0
O  O84  1  0.60301040  0.38789646  0.42616503  1  0  -0.615499  0  2.037171  0  0  -0.55643  0  2.315515  0  0  -0.578504  0  2.299679  0  0  -0.323515  -0.540844  0  2.325823  0
O  O85  1  0.39696577  0.61211560  0.57384342  1  0  -0.615549  0  2.036933  0  0  -0.556401  0  2.3152  0  0  -0.578478  0  2.299363  0  0  -0.323504  -0.540812  0  2.32551  0
O  O86  1  0.56527651  0.21525487  0.33359387  1  0  -0.612648  0  1.972169  0  0  -0.562954  0  2.222727  0  0  -0.584277  0  2.212989  0  0  -0.313463  -0.547927  0  2.22876  0
O  O87  1  0.43472578  0.78475150  0.66640249  1  0  -0.612707  0  1.972662  0  0  -0.562962  0  2.223194  0  0  -0.584284  0  2.213449  0  0  -0.313463  -0.547931  0  2.229221  0
