# generated using pymatgen
data_Re2AgH5C10N6O7
_symmetry_space_group_name_H-M   'P 1'
_cell_length_a   9.11454768
_cell_length_b   14.73262259
_cell_length_c   17.78851626
_cell_angle_alpha   89.99884339
_cell_angle_beta   97.77902929
_cell_angle_gamma   90.00164863
_symmetry_Int_Tables_number   1
_chemical_formula_structural   Re2AgH5C10N6O7
_chemical_formula_sum   'Re8 Ag4 H20 C40 N24 O28'
_cell_volume   2366.68134973
_cell_formula_units_Z   4
loop_
 _symmetry_equiv_pos_site_id
 _symmetry_equiv_pos_as_xyz
  1  'x, y, z'
loop_
 _atom_site_type_symbol
 _atom_site_label
 _atom_site_symmetry_multiplicity
 _atom_site_fract_x
 _atom_site_fract_y
 _atom_site_fract_z
 _atom_site_occupancy
 _atom_site_pbe_bader_charge
 _atom_site_pbe_bader_spin_density
 _atom_site_pbe_cm5_charge
 _atom_site_pbe_ddec_charge
 _atom_site_pbe_ddec_spin_density
 _atom_site_pbe_ddec_sum_bond_order
 _atom_site_pbe_magmom
Re  Re0  1  0.00392069  0.02339095  0.23074411  1  1.385828  0  0.677516  0.159339  0  6.326774  0
Re  Re1  1  0.49607273  0.52338864  0.26925398  1  1.385636  0  0.677469  0.159142  0  6.32698  0
Re  Re2  1  0.99606410  0.97661394  0.76925441  1  1.385726  0  0.677383  0.159216  0  6.32638  0
Re  Re3  1  0.50395313  0.47662032  0.73074314  1  1.385241  0  0.677416  0.159185  0  6.32651  0
Re  Re4  1  0.36958792  0.99173917  0.16632934  1  1.390907  0  0.680176  0.165913  0  6.316444  0
Re  Re5  1  0.13040658  0.49172089  0.33367194  1  1.389887  0  0.680106  0.165909  0  6.315991  0
Re  Re6  1  0.63039246  0.00825078  0.83366772  1  1.3909  0  0.679973  0.165739  0  6.316036  0
Re  Re7  1  0.86960694  0.50827449  0.66633099  1  1.390117  0  0.680045  0.16578  0  6.316279  0
Ag  Ag8  1  0.43985954  0.31011086  0.40424957  1  0.558051  0  0.491939  0.349675  0  1.829035  0
Ag  Ag9  1  0.06015055  0.81012128  0.09574986  1  0.558106  0  0.491943  0.349698  0  1.828954  0
Ag  Ag10  1  0.56015736  0.68988249  0.59575137  1  0.558072  0  0.491925  0.349703  0  1.829184  0
Ag  Ag11  1  0.93984978  0.18989040  0.90424815  1  0.557943  0  0.491922  0.349628  0  1.829064  0
H  H12  1  0.25743463  0.08472424  0.98664473  1  0.172828  0  0.1439  0.119121  0  0.984362  0
H  H13  1  0.24255312  0.58472287  0.51334487  1  0.173012  0  0.143912  0.119211  0  0.984234  0
H  H14  1  0.74255899  0.91527318  0.01335557  1  0.172704  0  0.143899  0.119107  0  0.984383  0
H  H15  1  0.75746070  0.41528677  0.48664572  1  0.172721  0  0.143865  0.119136  0  0.984268  0
H  H16  1  0.84776986  0.12501364  0.06656339  1  0.162411  0  0.143428  0.118639  0  1.009723  0
H  H17  1  0.65222990  0.62501763  0.43342795  1  0.162213  0  0.143394  0.118673  0  1.009593  0
H  H18  1  0.15221604  0.87499193  0.93343521  1  0.162636  0  0.143405  0.118681  0  1.009565  0
H  H19  1  0.34778713  0.37498590  0.56656739  1  0.162632  0  0.143425  0.118647  0  1.009668  0
H  H20  1  0.52697679  0.17793047  0.26294940  1  0.187068  0  0.141255  0.115269  0  1.023624  0
H  H21  1  0.97301171  0.67792785  0.23705084  1  0.187461  0  0.141246  0.115337  0  1.02358  0
H  H22  1  0.47302257  0.82206084  0.73704290  1  0.187422  0  0.14129  0.115301  0  1.023739  0
H  H23  1  0.02698079  0.32207297  0.76294995  1  0.187344  0  0.141236  0.115328  0  1.023561  0
H  H24  1  0.11902421  0.20573692  0.34745442  1  0.171585  0  0.143135  0.11623  0  1.001  0
H  H25  1  0.38098043  0.70572926  0.15253966  1  0.171793  0  0.143107  0.116154  0  1.000935  0
H  H26  1  0.88099268  0.79426932  0.65254708  1  0.171619  0  0.143133  0.116238  0  1.000852  0
H  H27  1  0.61902315  0.29428377  0.84746140  1  0.172013  0  0.143151  0.11619  0  1.00093  0
H  H28  1  0.20787766  0.88804779  0.25111030  1  0.616891  0  0.31479  0.366418  0  0.90137  0
H  H29  1  0.29212987  0.38803304  0.24890277  1  0.616825  0  0.314781  0.366464  0  0.90131  0
H  H30  1  0.79209813  0.11195234  0.74889316  1  0.616891  0  0.314835  0.366326  0  0.901513  0
H  H31  1  0.70789927  0.61197660  0.75109629  1  0.616807  0  0.314808  0.366413  0  0.901397  0
C  C32  1  0.85489886  0.93928750  0.18886655  1  0.800886  0  0.003998  0.09508  0  3.895067  0
C  C33  1  0.64508382  0.43929242  0.31114784  1  0.800788  0  0.003973  0.095035  0  3.895078  0
C  C34  1  0.14508680  0.06071535  0.81114159  1  0.800795  0  0.004015  0.095122  0  3.895138  0
C  C35  1  0.35492661  0.56071519  0.68884531  1  0.801031  0  0.004063  0.095191  0  3.895201  0
C  C36  1  0.98375172  0.98310058  0.33195820  1  0.842905  0  0.018467  0.108576  0  3.857088  0
C  C37  1  0.51625102  0.48309102  0.16803839  1  0.842583  0  0.018556  0.108563  0  3.856705  0
C  C38  1  0.01623420  0.01690770  0.66803928  1  0.842536  0  0.018527  0.108635  0  3.856651  0
C  C39  1  0.48375825  0.51691997  0.83195691  1  0.842658  0  0.018584  0.108537  0  3.856581  0
C  C40  1  0.85660078  0.11291671  0.24078644  1  0.790283  0  0.000571  0.081716  0  3.913803  0
C  C41  1  0.64339602  0.61291791  0.25921387  1  0.790342  0  0.000626  0.081838  0  3.913628  0
C  C42  1  0.14339082  0.88708682  0.75920528  1  0.790413  0  0.000745  0.081912  0  3.91351  0
C  C43  1  0.35661411  0.38709240  0.74079162  1  0.791115  0  0.000733  0.081905  0  3.913408  0
C  C44  1  0.51502684  0.94583458  0.24556466  1  0.835254  0  0.017477  0.114458  0  3.860684  0
C  C45  1  0.98494225  0.44582243  0.25442722  1  0.835133  0  0.01735  0.114339  0  3.861508  0
C  C46  1  0.48493705  0.05415469  0.75442665  1  0.835292  0  0.017238  0.114122  0  3.861342  0
C  C47  1  0.01508008  0.55417363  0.74557807  1  0.835136  0  0.017248  0.114075  0  3.86195  0
C  C48  1  0.40255547  0.88878093  0.10480338  1  0.798875  0  0.000899  0.082631  0  3.910305  0
C  C49  1  0.09743540  0.38875382  0.39521179  1  0.800173  0  0.000913  0.082283  0  3.910574  0
C  C50  1  0.59742687  0.11121174  0.89520451  1  0.799097  0  0.00091  0.082387  0  3.910581  0
C  C51  1  0.90257600  0.61123682  0.60478706  1  0.80026  0  0.000861  0.082354  0  3.910994  0
C  C52  1  0.52022678  0.05080200  0.11986573  1  0.787674  0  -0.002349  0.082921  0  3.907052  0
C  C53  1  0.97977841  0.55079066  0.38013686  1  0.787757  0  -0.00237  0.082746  0  3.907121  0
C  C54  1  0.47974584  0.94918049  0.88013130  1  0.78768  0  -0.002104  0.083091  0  3.907031  0
C  C55  1  0.02024380  0.44919455  0.61987349  1  0.78772  0  -0.002349  0.082787  0  3.907158  0
C  C56  1  0.16954035  0.08541712  0.02207351  1  0.989963  0  0.15165  0.118493  0  3.926098  0
C  C57  1  0.33045142  0.58539401  0.47791887  1  0.989869  0  0.151718  0.118593  0  3.926188  0
C  C58  1  0.83045100  0.91458505  0.97792887  1  0.990267  0  0.151621  0.118533  0  3.926078  0
C  C59  1  0.66955797  0.41460680  0.52207138  1  0.989699  0  0.151714  0.118528  0  3.926024  0
C  C60  1  0.96165935  0.10652579  0.06263483  1  0.993317  0  0.148646  0.108191  0  3.936231  0
C  C61  1  0.53833628  0.60652767  0.43735708  1  0.99342  0  0.148679  0.108209  0  3.936148  0
C  C62  1  0.03832856  0.89348113  0.93737180  1  0.993169  0  0.148643  0.108168  0  3.936125  0
C  C63  1  0.46167529  0.39348197  0.56263503  1  0.993055  0  0.148604  0.108201  0  3.936038  0
C  C64  1  0.41327231  0.16858545  0.27331425  1  0.99433  0  0.150098  0.114419  0  3.921734  0
C  C65  1  0.08672375  0.66857421  0.22669389  1  0.994404  0  0.149981  0.114123  0  3.921804  0
C  C66  1  0.58672570  0.83141740  0.72668808  1  0.994536  0  0.150058  0.114305  0  3.922013  0
C  C67  1  0.91327322  0.33142457  0.77330555  1  0.994781  0  0.150043  0.114103  0  3.921898  0
C  C68  1  0.20611649  0.18245708  0.31621456  1  0.990319  0  0.15111  0.115902  0  3.928198  0
C  C69  1  0.29387376  0.68245392  0.18378334  1  0.989997  0  0.151164  0.116078  0  3.928096  0
C  C70  1  0.79388595  0.81754238  0.68378811  1  0.990421  0  0.151143  0.11594  0  3.928164  0
C  C71  1  0.70611986  0.31755436  0.81621697  1  0.989509  0  0.151081  0.116005  0  3.928157  0
N  N72  1  0.04953822  0.06568726  0.11834525  1  -0.773767  0  -0.245105  -0.076761  0  3.512826  0
N  N73  1  0.45046258  0.56566925  0.38165154  1  -0.77375  0  -0.245008  -0.076626  0  3.512818  0
N  N74  1  0.95044540  0.93431627  0.88165542  1  -0.773228  0  -0.245153  -0.076911  0  3.512492  0
N  N75  1  0.54955667  0.43432749  0.61834396  1  -0.773357  0  -0.245083  -0.076882  0  3.513017  0
N  N76  1  0.18339728  0.05197226  0.09238759  1  -0.778332  0  -0.243333  -0.086049  0  3.511213  0
N  N77  1  0.31659300  0.55198045  0.40760751  1  -0.778699  0  -0.243407  -0.086253  0  3.512055  0
N  N78  1  0.81658511  0.94802720  0.90761805  1  -0.779144  0  -0.243117  -0.085906  0  3.511077  0
N  N79  1  0.68342296  0.44803190  0.59238661  1  -0.77879  0  -0.24325  -0.086063  0  3.511483  0
N  N80  1  0.03237611  0.12002167  0.00132557  1  -1.214488  0  -0.381252  -0.27515  0  3.678661  0
N  N81  1  0.46762049  0.62002833  0.49866602  1  -1.214074  0  -0.381326  -0.275337  0  3.678475  0
N  N82  1  0.96761635  0.87998322  0.99867690  1  -1.214697  0  -0.381378  -0.275241  0  3.678852  0
N  N83  1  0.53239770  0.37997453  0.50132715  1  -1.214001  0  -0.381318  -0.275155  0  3.678175  0
N  N84  1  0.19090747  0.11343451  0.26747486  1  -0.776078  0  -0.242628  -0.079794  0  3.52071  0
N  N85  1  0.30908965  0.61341824  0.23252926  1  -0.775744  0  -0.24267  -0.079908  0  3.520208  0
N  N86  1  0.80908737  0.88657037  0.73252048  1  -0.776069  0  -0.242673  -0.079846  0  3.520685  0
N  N87  1  0.69091712  0.38658325  0.76747767  1  -0.775645  0  -0.242661  -0.079874  0  3.520536  0
N  N88  1  0.32400459  0.10443558  0.24001635  1  -0.797239  0  -0.243585  -0.078007  0  3.51436  0
N  N89  1  0.17598123  0.60442988  0.25998088  1  -0.798091  0  -0.243491  -0.077727  0  3.514471  0
N  N90  1  0.67598579  0.89555709  0.75998034  1  -0.797754  0  -0.243602  -0.077835  0  3.514583  0
N  N91  1  0.82402237  0.39557433  0.74001962  1  -0.79835  0  -0.243573  -0.077664  0  3.514267  0
N  N92  1  0.34368543  0.21894664  0.32154089  1  -1.224409  0  -0.382555  -0.279366  0  3.668904  0
N  N93  1  0.15632186  0.71894118  0.17845879  1  -1.224115  0  -0.382442  -0.279288  0  3.668903  0
N  N94  1  0.65631940  0.78104806  0.67845464  1  -1.224684  0  -0.382495  -0.279395  0  3.668736  0
N  N95  1  0.84368609  0.28106371  0.82154542  1  -1.223904  0  -0.382449  -0.279272  0  3.668961  0
O  O96  1  0.76828261  0.88649742  0.16002048  1  -1.12592  0  -0.182422  -0.19215  0  2.443321  0
O  O97  1  0.73169669  0.38650115  0.33999457  1  -1.125659  0  -0.182349  -0.192084  0  2.443315  0
O  O98  1  0.23170088  0.11350339  0.83998581  1  -1.125716  0  -0.182358  -0.19213  0  2.443504  0
O  O99  1  0.26829027  0.61349084  0.66000580  1  -1.125799  0  -0.182394  -0.192172  0  2.443638  0
O  O100  1  0.97303753  0.95894044  0.39356499  1  -1.106417  0  -0.17523  -0.157523  0  2.357291  0
O  O101  1  0.52696624  0.45891761  0.10643772  1  -1.106113  0  -0.175257  -0.157437  0  2.357192  0
O  O102  1  0.02695607  0.04107870  0.60643588  1  -1.106005  0  -0.175256  -0.157539  0  2.357022  0
O  O103  1  0.47303200  0.54109746  0.89355507  1  -1.106047  0  -0.175338  -0.15749  0  2.357023  0
O  O104  1  0.76793142  0.16905112  0.24832680  1  -1.131475  0  -0.190974  -0.187183  0  2.422004  0
O  O105  1  0.73207663  0.66905339  0.25167507  1  -1.131525  0  -0.191072  -0.187315  0  2.421801  0
O  O106  1  0.23204796  0.83094222  0.75166624  1  -1.131728  0  -0.191106  -0.187342  0  2.421938  0
O  O107  1  0.26794227  0.33095421  0.74833502  1  -1.132303  0  -0.191081  -0.187328  0  2.421817  0
O  O108  1  0.59824474  0.91995676  0.29694386  1  -1.106578  0  -0.173496  -0.1633  0  2.36835  0
O  O109  1  0.90171288  0.41994979  0.20306334  1  -1.106408  0  -0.173317  -0.16315  0  2.369522  0
O  O110  1  0.40169661  0.08003251  0.70306149  1  -1.106631  0  -0.173206  -0.162982  0  2.369312  0
O  O111  1  0.09831391  0.58003066  0.79694116  1  -1.106529  0  -0.173137  -0.162844  0  2.37019  0
O  O112  1  0.42807231  0.82536857  0.06864461  1  -1.122125  0  -0.188212  -0.185746  0  2.4058  0
O  O113  1  0.07193910  0.32534150  0.43137265  1  -1.122768  0  -0.188193  -0.185458  0  2.406118  0
O  O114  1  0.57191571  0.17462817  0.93135808  1  -1.12237  0  -0.188169  -0.185525  0  2.406138  0
O  O115  1  0.92809994  0.67463963  0.56862997  1  -1.122706  0  -0.188165  -0.185523  0  2.406395  0
O  O116  1  0.61297306  0.08482361  0.08936110  1  -1.133185  0  -0.188444  -0.193418  0  2.454756  0
O  O117  1  0.88704343  0.58480786  0.41064738  1  -1.133131  0  -0.188467  -0.193285  0  2.454898  0
O  O118  1  0.38701626  0.91514666  0.91063383  1  -1.133081  0  -0.188573  -0.193464  0  2.455062  0
O  O119  1  0.11297298  0.41515902  0.58937377  1  -1.133307  0  -0.188416  -0.193259  0  2.454902  0
O  O120  1  0.18391066  0.93467856  0.21310586  1  -1.179295  0  -0.539476  -0.578551  0  2.459343  0
O  O121  1  0.31608249  0.43467419  0.28689632  1  -1.179306  0  -0.53949  -0.578513  0  2.459314  0
O  O122  1  0.81606513  0.06532497  0.78689760  1  -1.179103  0  -0.539578  -0.578359  0  2.459507  0
O  O123  1  0.68394558  0.56533749  0.71310154  1  -1.179088  0  -0.539608  -0.578521  0  2.459661  0
