# generated using pymatgen
data_CdH16C24(NO2)2
_symmetry_space_group_name_H-M   'P 1'
_cell_length_a   9.85656382
_cell_length_b   9.85657623
_cell_length_c   26.64630803
_cell_angle_alpha   81.96710957
_cell_angle_beta   81.96693323
_cell_angle_gamma   73.16526079
_symmetry_Int_Tables_number   1
_chemical_formula_structural   CdH16C24(NO2)2
_chemical_formula_sum   'Cd4 H64 C96 N8 O16'
_cell_volume   2439.98963261
_cell_formula_units_Z   4
loop_
 _symmetry_equiv_pos_site_id
 _symmetry_equiv_pos_as_xyz
  1  'x, y, z'
loop_
 _atom_site_type_symbol
 _atom_site_label
 _atom_site_symmetry_multiplicity
 _atom_site_fract_x
 _atom_site_fract_y
 _atom_site_fract_z
 _atom_site_occupancy
 _atom_site_pbe_bader_charge
 _atom_site_pbe_bader_spin_density
 _atom_site_pbe_cm5_charge
 _atom_site_pbe_ddec_charge
 _atom_site_pbe_ddec_spin_density
 _atom_site_pbe_ddec_sum_bond_order
 _atom_site_pbe_magmom
Cd  Cd0  1  0.20863793  0.55272508  0.29497859  1  1.280998  0  0.77343  0.880081  0  2.22175  0
Cd  Cd1  1  0.44727089  0.79136567  0.20502023  1  1.280995  0  0.773405  0.880039  0  2.221831  0
Cd  Cd2  1  0.79136239  0.44727308  0.70502147  1  1.280938  0  0.773461  0.880115  0  2.221735  0
Cd  Cd3  1  0.55272729  0.20863512  0.79497906  1  1.280975  0  0.773426  0.880011  0  2.221871  0
H  H4  1  0.96978514  0.30194878  0.55100779  1  0.060714  0  0.101678  0.10754  0  1.012134  0
H  H5  1  0.69804509  0.03021977  0.94899139  1  0.060716  0  0.101715  0.107605  0  1.012144  0
H  H6  1  0.03021835  0.69804541  0.44899232  1  0.060733  0  0.101685  0.107561  0  1.012169  0
H  H7  1  0.30195208  0.96978543  0.05100845  1  0.060685  0  0.101678  0.107548  0  1.01224  0
H  H8  1  0.09970970  0.41134772  0.47690483  1  0.092266  0  0.103174  0.106545  0  1.016564  0
H  H9  1  0.58864923  0.90029147  0.02309368  1  0.09217  0  0.103172  0.106481  0  1.01658  0
H  H10  1  0.90029166  0.58864910  0.52309487  1  0.092241  0  0.103174  0.106499  0  1.0166  0
H  H11  1  0.41135219  0.09971048  0.97690611  1  0.092178  0  0.103152  0.106451  0  1.016613  0
H  H12  1  0.89070192  0.26394784  0.37400483  1  0.064532  0  0.094706  0.089294  0  1.046134  0
H  H13  1  0.73605252  0.10929292  0.12599484  1  0.064575  0  0.094713  0.089345  0  1.046108  0
H  H14  1  0.10929522  0.73605327  0.62599524  1  0.064546  0  0.094715  0.089331  0  1.046116  0
H  H15  1  0.26394783  0.89070629  0.87400591  1  0.0646  0  0.094645  0.089204  0  1.046209  0
H  H16  1  0.76615364  0.14431881  0.44773051  1  0.029504  0  0.095576  0.092265  0  1.023339  0
H  H17  1  0.85567629  0.23384722  0.05226949  1  0.029473  0  0.095587  0.092316  0  1.023364  0
H  H18  1  0.23384774  0.85567804  0.55226993  1  0.029518  0  0.095604  0.092301  0  1.02332  0
H  H19  1  0.14431878  0.76615860  0.94773118  1  0.029571  0  0.09562  0.092334  0  1.023221  0
H  H20  1  0.74220151  0.31657206  0.59582675  1  0.099649  0  0.104913  0.119619  0  1.025605  0
H  H21  1  0.68342454  0.25779782  0.90417347  1  0.099602  0  0.104872  0.119524  0  1.025661  0
H  H22  1  0.25779772  0.68342739  0.40417217  1  0.099646  0  0.104904  0.119586  0  1.025592  0
H  H23  1  0.31657050  0.74220697  0.09582689  1  0.099545  0  0.104899  0.119588  0  1.025618  0
H  H24  1  0.58026087  0.96340796  0.66091965  1  0.057943  0  0.094242  0.093373  0  1.057898  0
H  H25  1  0.03659536  0.41973276  0.83907944  1  0.05797  0  0.094232  0.093354  0  1.057889  0
H  H26  1  0.41973738  0.03659391  0.33908182  1  0.057975  0  0.094245  0.093381  0  1.05786  0
H  H27  1  0.96340494  0.58026639  0.16091981  1  0.057974  0  0.094212  0.093324  0  1.0579  0
H  H28  1  0.68055441  0.83936604  0.58243619  1  0.060424  0  0.099175  0.098922  0  1.008665  0
H  H29  1  0.16062918  0.31944318  0.91756414  1  0.060462  0  0.099158  0.098914  0  1.008713  0
H  H30  1  0.31944594  0.16063013  0.41756585  1  0.060445  0  0.099149  0.09894  0  1.008658  0
H  H31  1  0.83936900  0.68055557  0.08243564  1  0.060429  0  0.099157  0.098919  0  1.008699  0
H  H32  1  0.81074478  0.95511110  0.51117982  1  0.098504  0  0.097724  0.094894  0  1.028145  0
H  H33  1  0.04488291  0.18925844  0.98882026  1  0.098576  0  0.097683  0.094887  0  1.028158  0
H  H34  1  0.18925983  0.04488284  0.48882212  1  0.098533  0  0.097743  0.09495  0  1.02809  0
H  H35  1  0.95511317  0.81074399  0.01117980  1  0.098537  0  0.097734  0.094909  0  1.028145  0
H  H36  1  0.89327101  0.07582273  0.34259169  1  0.087242  0  0.107208  0.113082  0  1.028185  0
H  H37  1  0.92417832  0.10673345  0.15740654  1  0.087267  0  0.107192  0.113035  0  1.028217  0
H  H38  1  0.10673463  0.92417594  0.65740729  1  0.087259  0  0.107195  0.113039  0  1.028205  0
H  H39  1  0.07582197  0.89326366  0.84259283  1  0.087297  0  0.107179  0.113019  0  1.028247  0
H  H40  1  0.09980430  0.86142219  0.34080258  1  0.10986  0  0.113049  0.081194  0  1.043671  0
H  H41  1  0.13857771  0.90020021  0.15919543  1  0.109758  0  0.113045  0.081223  0  1.043611  0
H  H42  1  0.90019813  0.13857534  0.65919665  1  0.109879  0  0.113038  0.081205  0  1.043651  0
H  H43  1  0.86142367  0.09979765  0.84080458  1  0.109777  0  0.113035  0.081176  0  1.04359  0
H  H44  1  0.92542855  0.68320023  0.24298814  1  0.111684  0  0.114935  0.086785  0  1.033341  0
H  H45  1  0.31679591  0.07457039  0.25701287  1  0.111812  0  0.114913  0.086775  0  1.033301  0
H  H46  1  0.07456752  0.31679813  0.75701290  1  0.111783  0  0.114921  0.086758  0  1.033308  0
H  H47  1  0.68320127  0.92543279  0.74298783  1  0.111795  0  0.114934  0.086773  0  1.033377  0
H  H48  1  0.70772690  0.89035486  0.24079927  1  0.148684  0  0.112834  0.138566  0  1.031838  0
H  H49  1  0.10964327  0.29227241  0.25920108  1  0.148678  0  0.112831  0.138544  0  1.031935  0
H  H50  1  0.29227025  0.10964423  0.75920205  1  0.148669  0  0.112815  0.138547  0  1.031901  0
H  H51  1  0.89035280  0.70772900  0.74079903  1  0.148666  0  0.112838  0.138576  0  1.031861  0
H  H52  1  0.65965661  0.17166577  0.36907493  1  0.068573  0  0.110183  0.116027  0  1.01096  0
H  H53  1  0.82833197  0.34035033  0.13092465  1  0.068577  0  0.110187  0.115947  0  1.011039  0
H  H54  1  0.34034374  0.82833546  0.63092495  1  0.068556  0  0.110151  0.11594  0  1.011015  0
H  H55  1  0.17166730  0.65965120  0.86907528  1  0.068598  0  0.110176  0.115953  0  1.011003  0
H  H56  1  0.44423477  0.38134160  0.36541922  1  0.121931  0  0.124579  0.102755  0  0.974818  0
H  H57  1  0.61865373  0.55577192  0.13458149  1  0.121891  0  0.124581  0.102726  0  0.974802  0
H  H58  1  0.55576661  0.61865524  0.63458123  1  0.121913  0  0.124588  0.102769  0  0.974802  0
H  H59  1  0.38134770  0.44423004  0.86541867  1  0.12189  0  0.124578  0.102722  0  0.974779  0
H  H60  1  0.40042589  0.33195066  0.21752172  1  0.115972  0  0.121458  0.097016  0  0.986543  0
H  H61  1  0.66804609  0.59957759  0.28247796  1  0.115949  0  0.121464  0.097064  0  0.986523  0
H  H62  1  0.59957659  0.66805097  0.78247765  1  0.116  0  0.121446  0.097023  0  0.98649  0
H  H63  1  0.33195209  0.40042015  0.71752224  1  0.115957  0  0.121454  0.097049  0  0.986543  0
H  H64  1  0.60949979  0.11610782  0.21487354  1  0.156134  0  0.111141  0.132525  0  1.033127  0
H  H65  1  0.88388683  0.39050259  0.28512610  1  0.155978  0  0.111161  0.132562  0  1.033112  0
H  H66  1  0.39050159  0.88389104  0.78512604  1  0.156135  0  0.111146  0.132544  0  1.033114  0
H  H67  1  0.11611344  0.60949248  0.71487339  1  0.155981  0  0.111186  0.132599  0  1.033072  0
C  C68  1  0.85983900  0.21359151  0.50452247  1  -0.02791  0  -0.003959  0.077956  0  3.994267  0
C  C69  1  0.78640406  0.14016143  0.99547725  1  -0.027803  0  -0.003872  0.078109  0  3.994458  0
C  C70  1  0.14016237  0.78640533  0.49547760  1  -0.027876  0  -0.00396  0.077958  0  3.994364  0
C  C71  1  0.21359312  0.85984275  0.00452302  1  -0.027738  0  -0.003976  0.077917  0  3.994245  0
C  C72  1  0.95352253  0.29073111  0.51228619  1  -0.048985  0  -0.088312  -0.132433  0  3.960826  0
C  C73  1  0.70926665  0.04647973  0.98771330  1  -0.04893  0  -0.088267  -0.132469  0  3.960918  0
C  C74  1  0.04647989  0.70926438  0.48771353  1  -0.048899  0  -0.088339  -0.132507  0  3.960816  0
C  C75  1  0.29073374  0.95352459  0.01228716  1  -0.048887  0  -0.088271  -0.132431  0  3.960871  0
C  C76  1  0.02551504  0.35337579  0.47098348  1  -0.028402  0  -0.082376  -0.086284  0  3.973044  0
C  C77  1  0.64662094  0.97448449  0.02901552  1  -0.02846  0  -0.082447  -0.086205  0  3.973069  0
C  C78  1  0.97448633  0.64662003  0.52901666  1  -0.028491  0  -0.082387  -0.086214  0  3.973034  0
C  C79  1  0.35337941  0.02551775  0.97098431  1  -0.028567  0  -0.082371  -0.086136  0  3.973115  0
C  C80  1  0.00287537  0.34436266  0.42096844  1  -0.059494  0  -0.021995  -0.031636  0  3.978418  0
C  C81  1  0.65563661  0.99712309  0.07903047  1  -0.05939  0  -0.021983  -0.031689  0  3.978446  0
C  C82  1  0.99712495  0.65563549  0.57903162  1  -0.059483  0  -0.021981  -0.031596  0  3.978411  0
C  C83  1  0.34436587  0.00287652  0.92096976  1  -0.059454  0  -0.021977  -0.03167  0  3.978544  0
C  C84  1  0.90893918  0.26839803  0.41306415  1  -0.009697  0  -0.091268  -0.096707  0  4.010174  0
C  C85  1  0.73160031  0.09105792  0.08693551  1  -0.009746  0  -0.091257  -0.096709  0  4.010041  0
C  C86  1  0.09106112  0.73159910  0.58693560  1  -0.00974  0  -0.091268  -0.096771  0  4.010181  0
C  C87  1  0.26840111  0.90894201  0.91306514  1  -0.009945  0  -0.091205  -0.096581  0  4.010124  0
C  C88  1  0.83991470  0.20257076  0.45412414  1  -0.03448  0  -0.095832  -0.142042  0  4.000812  0
C  C89  1  0.79742620  0.16008604  0.04587538  1  -0.034527  0  -0.095939  -0.142253  0  4.000912  0
C  C90  1  0.16008667  0.79742607  0.54587593  1  -0.034524  0  -0.095842  -0.142019  0  4.00082  0
C  C91  1  0.20256992  0.83991846  0.95412531  1  -0.034377  0  -0.095903  -0.142152  0  4.000789  0
C  C92  1  0.78308657  0.14541042  0.54772930  1  0.018616  0  -0.008678  0.063333  0  4.002259  0
C  C93  1  0.85458523  0.21691526  0.95227109  1  0.018625  0  -0.008682  0.063244  0  4.002384  0
C  C94  1  0.21691481  0.85458540  0.45227121  1  0.018587  0  -0.008698  0.06324  0  4.002431  0
C  C95  1  0.14540983  0.78309056  0.04772958  1  0.018599  0  -0.008654  0.063401  0  4.002207  0
C  C96  1  0.72849493  0.21235358  0.59233854  1  -0.110573  0  -0.083663  -0.147193  0  3.918336  0
C  C97  1  0.78764250  0.27150611  0.90766156  1  -0.110376  0  -0.083596  -0.14697  0  3.918362  0
C  C98  1  0.27150646  0.78764529  0.40766105  1  -0.110573  0  -0.083635  -0.14703  0  3.91835  0
C  C99  1  0.21235363  0.72849941  0.09233907  1  -0.110513  0  -0.083613  -0.147088  0  3.918245  0
C  C100  1  0.65536683  0.14645137  0.63285119  1  0.033151  0  -0.027714  -0.043296  0  4.000103  0
C  C101  1  0.85354592  0.34463250  0.86714895  1  0.032903  0  -0.027687  -0.043316  0  4.00029  0
C  C102  1  0.34463351  0.85354782  0.36714919  1  0.03314  0  -0.027697  -0.043383  0  4.000269  0
C  C103  1  0.14644808  0.65537363  0.13285177  1  0.032711  0  -0.0277  -0.043377  0  4.000216  0
C  C104  1  0.63664851  0.01280775  0.62887937  1  -0.081107  0  -0.092013  -0.098878  0  3.97978  0
C  C105  1  0.98718838  0.36334960  0.87112009  1  -0.081085  0  -0.092047  -0.098874  0  3.979887  0
C  C106  1  0.36335183  0.98719043  0.37112144  1  -0.08104  0  -0.092046  -0.098865  0  3.979755  0
C  C107  1  0.01280772  0.63665386  0.12888028  1  -0.080632  0  -0.092021  -0.098862  0  3.979911  0
C  C108  1  0.69139128  0.94513869  0.58498087  1  -0.054992  0  -0.096065  -0.082141  0  4.034063  0
C  C109  1  0.05485972  0.30860790  0.91501887  1  -0.054928  0  -0.096093  -0.082161  0  4.033983  0
C  C110  1  0.30860909  0.05486053  0.41502063  1  -0.054983  0  -0.096091  -0.082194  0  4.03401  0
C  C111  1  0.94513744  0.69139424  0.08498152  1  -0.055165  0  -0.096043  -0.082079  0  4.033967  0
C  C112  1  0.76394830  0.01088002  0.54471794  1  -0.050561  0  -0.086061  -0.116455  0  3.961816  0
C  C113  1  0.98911386  0.23605417  0.95528246  1  -0.050622  0  -0.085978  -0.116422  0  3.96184  0
C  C114  1  0.23605418  0.98911554  0.45528365  1  -0.050589  0  -0.086035  -0.116514  0  3.961857  0
C  C115  1  0.01088225  0.76395032  0.04471786  1  -0.050418  0  -0.086075  -0.11654  0  3.96181  0
C  C116  1  0.07617183  0.41557158  0.37650978  1  1.548966  0  0.185569  0.552328  0  4.245504  0
C  C117  1  0.58442627  0.92382649  0.12348885  1  1.54885  0  0.185556  0.552459  0  4.245468  0
C  C118  1  0.92382641  0.58443128  0.62349051  1  1.548973  0  0.185556  0.552314  0  4.245685  0
C  C119  1  0.41557621  0.07617211  0.87651181  1  1.548847  0  0.185501  0.552315  0  4.245602  0
C  C120  1  0.60368242  0.21277277  0.68189359  1  1.561856  0  0.200608  0.573112  0  4.223475  0
C  C121  1  0.78722301  0.39631662  0.81810671  1  1.56172  0  0.200629  0.573094  0  4.223465  0
C  C122  1  0.39632008  0.78722990  0.31810609  1  1.561827  0  0.200681  0.57322  0  4.223421  0
C  C123  1  0.21277306  0.60368479  0.18189341  1  1.561852  0  0.200689  0.573297  0  4.223339  0
C  C124  1  0.78077799  0.00148025  0.29203107  1  -0.033608  0  0.013869  0.105496  0  3.970249  0
C  C125  1  0.99851796  0.21922556  0.20796815  1  -0.033699  0  0.013868  0.105493  0  3.97011  0
C  C126  1  0.21922233  0.99851993  0.70796813  1  -0.033623  0  0.013863  0.105498  0  3.9702  0
C  C127  1  0.00148021  0.78077318  0.79203125  1  -0.033431  0  0.013907  0.105587  0  3.970041  0
C  C128  1  0.89358854  0.99090580  0.32043168  1  -0.022817  0  -0.081293  -0.17227  0  3.938421  0
C  C129  1  0.00909409  0.10641504  0.17956716  1  -0.022666  0  -0.081298  -0.172217  0  3.93847  0
C  C130  1  0.10641501  0.00909453  0.67956845  1  -0.022893  0  -0.081286  -0.172222  0  3.938505  0
C  C131  1  0.99090623  0.89358413  0.82043247  1  -0.022933  0  -0.081303  -0.172275  0  3.938479  0
C  C132  1  0.01060629  0.87149681  0.31928980  1  0.449687  0  0.045933  0.100969  0  3.954941  0
C  C133  1  0.12850343  0.98939746  0.18070903  1  0.449901  0  0.045913  0.100874  0  3.954929  0
C  C134  1  0.98939508  0.12850103  0.68070984  1  0.449701  0  0.045929  0.100929  0  3.954951  0
C  C135  1  0.87149902  0.01060212  0.81929007  1  0.449833  0  0.045956  0.100966  0  3.954991  0
C  C136  1  0.91242935  0.77279268  0.26467705  1  0.458471  0  0.046421  0.095915  0  3.93904  0
C  C137  1  0.22720447  0.08757059  0.23532315  1  0.458436  0  0.046463  0.095952  0  3.938976  0
C  C138  1  0.08756884  0.22720608  0.73532310  1  0.45843  0  0.046445  0.095995  0  3.939047  0
C  C139  1  0.77279372  0.91242918  0.76467656  1  0.458381  0  0.046437  0.095936  0  3.939018  0
C  C140  1  0.79195804  0.88869862  0.26349039  1  0.037422  0  -0.075124  -0.158257  0  3.893075  0
C  C141  1  0.11129883  0.20804367  0.23650982  1  0.037411  0  -0.07512  -0.15826  0  3.893055  0
C  C142  1  0.20804233  0.11130263  0.73651025  1  0.037466  0  -0.075102  -0.158282  0  3.893098  0
C  C143  1  0.88869833  0.79195847  0.76349057  1  0.037424  0  -0.07516  -0.15834  0  3.893142  0
C  C144  1  0.65530153  0.12721279  0.29170392  1  -0.017407  0  0.015822  0.106531  0  3.971699  0
C  C145  1  0.87278672  0.34470400  0.20829562  1  -0.017239  0  0.015802  0.106525  0  3.971799  0
C  C146  1  0.34470095  0.87278783  0.70829588  1  -0.017385  0  0.015842  0.106607  0  3.971699  0
C  C147  1  0.12721361  0.65529518  0.79170438  1  -0.017199  0  0.015746  0.106487  0  3.971793  0
C  C148  1  0.60704174  0.20424285  0.33428285  1  -0.0421  0  -0.078288  -0.174551  0  3.943887  0
C  C149  1  0.79575624  0.39296518  0.16571596  1  -0.041798  0  -0.078367  -0.174544  0  3.944039  0
C  C150  1  0.39296073  0.79575674  0.66571701  1  -0.041837  0  -0.078272  -0.174506  0  3.943929  0
C  C151  1  0.20424407  0.60703499  0.83428286  1  -0.041805  0  -0.078299  -0.174515  0  3.94405  0
C  C152  1  0.48692966  0.32053939  0.33277619  1  0.509178  0  0.052502  0.098436  0  3.946394  0
C  C153  1  0.67945852  0.51307645  0.16722360  1  0.509158  0  0.052505  0.098515  0  3.946452  0
C  C154  1  0.51307173  0.67945947  0.66722340  1  0.508933  0  0.052477  0.098432  0  3.94637  0
C  C155  1  0.32054183  0.48692477  0.83277628  1  0.508948  0  0.052507  0.098515  0  3.946439  0
C  C156  1  0.46163477  0.29194531  0.25018465  1  0.479783  0  0.052194  0.098497  0  3.941027  0
C  C157  1  0.70805265  0.53837148  0.24981475  1  0.47975  0  0.052234  0.098459  0  3.941019  0
C  C158  1  0.53836767  0.70805527  0.74981402  1  0.479783  0  0.052212  0.098492  0  3.94103  0
C  C159  1  0.29194770  0.46162873  0.75018557  1  0.479747  0  0.052144  0.098329  0  3.94114  0
C  C160  1  0.57947934  0.17314955  0.24879620  1  -0.033477  0  -0.075104  -0.164335  0  3.898869  0
C  C161  1  0.82684882  0.42052397  0.25120284  1  -0.033253  0  -0.07507  -0.164312  0  3.899092  0
C  C162  1  0.42052312  0.82685106  0.75120322  1  -0.033468  0  -0.075131  -0.164427  0  3.899004  0
C  C163  1  0.17315147  0.57947417  0.74879647  1  -0.033303  0  -0.07506  -0.164342  0  3.899104  0
N  N164  1  0.02057922  0.76369555  0.29191986  1  -1.243607  0  -0.325201  -0.239406  0  3.4997  0
N  N165  1  0.23630259  0.97942275  0.20807988  1  -1.243526  0  -0.325156  -0.239325  0  3.499758  0
N  N166  1  0.97942110  0.23630261  0.70808020  1  -1.24358  0  -0.325176  -0.23938  0  3.499764  0
N  N167  1  0.76369777  0.02057951  0.79192032  1  -1.243441  0  -0.325172  -0.239318  0  3.499702  0
N  N168  1  0.41529942  0.36374198  0.29140898  1  -1.234765  0  -0.324367  -0.227445  0  3.503616  0
N  N169  1  0.63625674  0.58470561  0.20859089  1  -1.234995  0  -0.32438  -0.227476  0  3.50367  0
N  N170  1  0.58470198  0.63625792  0.70859092  1  -1.234817  0  -0.324353  -0.227432  0  3.503641  0
N  N171  1  0.36374466  0.41529530  0.79140858  1  -1.234794  0  -0.32433  -0.227333  0  3.503607  0
O  O172  1  0.04913602  0.40706171  0.33165516  1  -1.176211  0  -0.339205  -0.575007  0  2.205966  0
O  O173  1  0.59293687  0.95086410  0.16834334  1  -1.1761  0  -0.339179  -0.575025  0  2.206022  0
O  O174  1  0.95085904  0.59294513  0.66834508  1  -1.17623  0  -0.33921  -0.575005  0  2.20611  0
O  O175  1  0.40706560  0.04913652  0.83165646  1  -1.176045  0  -0.339135  -0.574938  0  2.20598  0
O  O176  1  0.16257654  0.48300895  0.38470714  1  -1.174497  0  -0.340523  -0.574387  0  2.180983  0
O  O177  1  0.51698859  0.83742272  0.11529144  1  -1.174556  0  -0.340547  -0.574499  0  2.181026  0
O  O178  1  0.83742380  0.51699024  0.61529323  1  -1.174478  0  -0.340507  -0.574394  0  2.180993  0
O  O179  1  0.48301601  0.16257425  0.88470920  1  -1.174582  0  -0.340543  -0.574456  0  2.181056  0
O  O180  1  0.53027758  0.15051824  0.71586194  1  -1.174189  0  -0.330404  -0.561197  0  2.272563  0
O  O181  1  0.84947880  0.46972013  0.78413799  1  -1.174074  0  -0.330467  -0.561281  0  2.272619  0
O  O182  1  0.46972168  0.84948124  0.28413810  1  -1.174259  0  -0.330424  -0.561245  0  2.272701  0
O  O183  1  0.15052044  0.53027831  0.21586136  1  -1.174111  0  -0.330476  -0.561315  0  2.272446  0
O  O184  1  0.63648015  0.32412923  0.68842069  1  -1.203278  0  -0.345484  -0.599125  0  2.337763  0
O  O185  1  0.67586607  0.36352017  0.81158036  1  -1.203028  0  -0.345472  -0.59908  0  2.337745  0
O  O186  1  0.36351697  0.67587186  0.31157863  1  -1.203218  0  -0.345525  -0.599161  0  2.337596  0
O  O187  1  0.32413109  0.63648197  0.18842003  1  -1.203072  0  -0.345497  -0.599173  0  2.337784  0
