# generated using pymatgen
data_CdH16C12N2O9
_symmetry_space_group_name_H-M   'P 1'
_cell_length_a   4.98732448
_cell_length_b   4.98731385
_cell_length_c   30.41968426
_cell_angle_alpha   90.00062575
_cell_angle_beta   90.00080406
_cell_angle_gamma   88.01370572
_symmetry_Int_Tables_number   1
_chemical_formula_structural   CdH16C12N2O9
_chemical_formula_sum   'Cd2 H32 C24 N4 O18'
_cell_volume   756.18489968
_cell_formula_units_Z   2
loop_
 _symmetry_equiv_pos_site_id
 _symmetry_equiv_pos_as_xyz
  1  'x, y, z'
loop_
 _atom_site_type_symbol
 _atom_site_label
 _atom_site_symmetry_multiplicity
 _atom_site_fract_x
 _atom_site_fract_y
 _atom_site_fract_z
 _atom_site_occupancy
 _atom_site_hle17_bader_spin_density
 _atom_site_hle17_ddec_charge
 _atom_site_hle17_ddec_spin_density
 _atom_site_hle17_ddec_sum_bond_order
 _atom_site_hle17_magmom
 _atom_site_hse06_10hf_bader_spin_density
 _atom_site_hse06_10hf_ddec_charge
 _atom_site_hse06_10hf_ddec_spin_density
 _atom_site_hse06_10hf_ddec_sum_bond_order
 _atom_site_hse06_10hf_magmom
 _atom_site_hse06_bader_spin_density
 _atom_site_hse06_ddec_charge
 _atom_site_hse06_ddec_spin_density
 _atom_site_hse06_ddec_sum_bond_order
 _atom_site_hse06_magmom
 _atom_site_pbe_bader_spin_density
 _atom_site_pbe_cm5_charge
 _atom_site_pbe_ddec_charge
 _atom_site_pbe_ddec_spin_density
 _atom_site_pbe_ddec_sum_bond_order
 _atom_site_pbe_magmom
Cd  Cd0  1  0.75578511  0.24417911  0.74999694  1  0  1.334408  0  1.497615  0  0  1.158712  0  1.93468  0  0  1.214034  0  1.873679  0  0  0.798935  1.118804  0  1.977184  0
Cd  Cd1  1  0.24418496  0.75582440  0.25000225  1  0  1.334525  0  1.497447  0  0  1.158794  0  1.934519  0  0  1.214121  0  1.873511  0  0  0.798994  1.118882  0  1.977029  0
H  H2  1  0.91731860  0.68498424  0.69327009  1  0  0.443414  0  0.85855  0  0  0.405722  0  0.931442  0  0  0.417648  0  0.91457  0  0  0.293907  0.397274  0  0.943375  0
H  H3  1  0.08266501  0.31500902  0.19326902  1  0  0.443375  0  0.858582  0  0  0.405697  0  0.931454  0  0  0.41762  0  0.914586  0  0  0.293904  0.397246  0  0.943391  0
H  H4  1  0.31497930  0.08266061  0.80672940  1  0  0.443236  0  0.858779  0  0  0.405547  0  0.931671  0  0  0.417472  0  0.9148  0  0  0.29382  0.397096  0  0.943608  0
H  H5  1  0.68499318  0.91734982  0.30673119  1  0  0.443366  0  0.858607  0  0  0.405677  0  0.931493  0  0  0.417602  0  0.914625  0  0  0.293889  0.397224  0  0.943436  0
H  H6  1  0.09051808  0.39727630  0.67980741  1  0  0.457266  0  0.818762  0  0  0.42768  0  0.879616  0  0  0.437777  0  0.864947  0  0  0.31553  0.420507  0  0.890036  0
H  H7  1  0.90946650  0.60272084  0.17980835  1  0  0.457294  0  0.818711  0  0  0.427679  0  0.879631  0  0  0.43778  0  0.864953  0  0  0.315522  0.420505  0  0.890054  0
H  H8  1  0.60269888  0.90945594  0.82019210  1  0  0.457363  0  0.818629  0  0  0.42774  0  0.87956  0  0  0.437844  0  0.864875  0  0  0.315551  0.420565  0  0.889985  0
H  H9  1  0.39728934  0.09056326  0.32019251  1  0  0.457299  0  0.818628  0  0  0.427644  0  0.879703  0  0  0.437752  0  0.865009  0  0  0.315449  0.420471  0  0.890124  0
H  H10  1  0.27071761  0.55348494  0.73266307  1  0  0.434198  0  0.874636  0  0  0.40287  0  0.93756  0  0  0.414049  0  0.921418  0  0  0.287382  0.394982  0  0.948928  0
H  H11  1  0.72926589  0.44652024  0.23266219  1  0  0.434052  0  0.874846  0  0  0.402619  0  0.937885  0  0  0.413794  0  0.921757  0  0  0.287308  0.394732  0  0.949252  0
H  H12  1  0.44648616  0.72926535  0.76733411  1  0  0.433992  0  0.874939  0  0  0.402568  0  0.937925  0  0  0.413735  0  0.921816  0  0  0.287305  0.394681  0  0.94929  0
H  H13  1  0.55348892  0.27074299  0.26733606  1  0  0.434035  0  0.874888  0  0  0.402574  0  0.937932  0  0  0.413743  0  0.92182  0  0  0.287301  0.394688  0  0.949297  0
H  H14  1  0.75285035  0.80241720  0.61516110  1  0  0.087122  0  0.945668  0  0  0.097577  0  1.015314  0  0  0.0987  0  1.014334  0  0  0.109014  0.096754  0  1.016032  0
H  H15  1  0.24712971  0.19751058  0.11515910  1  0  0.087073  0  0.945684  0  0  0.097621  0  1.015255  0  0  0.098695  0  1.014319  0  0  0.108997  0.096795  0  1.015975  0
H  H16  1  0.19753604  0.24716716  0.88483480  1  0  0.087037  0  0.945675  0  0  0.097551  0  1.0153  0  0  0.098654  0  1.014331  0  0  0.108972  0.096722  0  1.016025  0
H  H17  1  0.80253510  0.75287874  0.38484668  1  0  0.08709  0  0.945741  0  0  0.097581  0  1.015385  0  0  0.098668  0  1.014438  0  0  0.108983  0.096757  0  1.016105  0
H  H18  1  0.57827232  0.55765533  0.64504314  1  0  0.104943  0  0.923988  0  0  0.120664  0  0.98241  0  0  0.12286  0  0.980681  0  0  0.120423  0.118978  0  0.98388  0
H  H19  1  0.42169151  0.44231897  0.14503935  1  0  0.104854  0  0.924079  0  0  0.120519  0  0.982624  0  0  0.122712  0  0.980888  0  0  0.120335  0.118858  0  0.98406  0
H  H20  1  0.44230042  0.42172691  0.85495531  1  0  0.104879  0  0.924036  0  0  0.120547  0  0.982563  0  0  0.122745  0  0.980822  0  0  0.120385  0.118878  0  0.984013  0
H  H21  1  0.55772683  0.57835979  0.35497046  1  0  0.104899  0  0.923782  0  0  0.120423  0  0.982534  0  0  0.12261  0  0.980818  0  0  0.120268  0.118763  0  0.983968  0
H  H22  1  0.90260588  0.57464912  0.55963124  1  0  0.09866  0  0.942962  0  0  0.110554  0  1.002216  0  0  0.113886  0  0.999761  0  0  0.109188  0.108154  0  1.003992  0
H  H23  1  0.09739532  0.42533238  0.05963587  1  0  0.098722  0  0.943128  0  0  0.110636  0  1.002326  0  0  0.113947  0  0.99992  0  0  0.109189  0.108247  0  1.004075  0
H  H24  1  0.42532150  0.09740153  0.94036420  1  0  0.098761  0  0.943012  0  0  0.110651  0  1.002229  0  0  0.113961  0  0.999825  0  0  0.109192  0.108265  0  1.003973  0
H  H25  1  0.57466632  0.90263599  0.44037367  1  0  0.098581  0  0.943233  0  0  0.110495  0  1.002457  0  0  0.113821  0  1.000014  0  0  0.109132  0.108109  0  1.004204  0
H  H26  1  0.57024128  0.57026088  0.50000153  1  0  0.096419  0  0.94992  0  0  0.106639  0  1.011252  0  0  0.109639  0  1.010381  0  0  0.10319  0.104494  0  1.011996  0
H  H27  1  0.42971275  0.42972659  0.00000037  1  0  0.096323  0  0.949968  0  0  0.106599  0  1.011249  0  0  0.109601  0  1.010373  0  0  0.103135  0.104453  0  1.011993  0
H  H28  1  0.26028972  0.26024749  0.50000053  1  0  0.096095  0  0.974945  0  0  0.09977  0  1.050611  0  0  0.104217  0  1.046475  0  0  0.10292  0.096581  0  1.053525  0
H  H29  1  0.73972661  0.73973141  0.99999892  1  0  0.096047  0  0.975025  0  0  0.099777  0  1.050646  0  0  0.104223  0  1.046509  0  0  0.102908  0.096598  0  1.053552  0
H  H30  1  0.30407087  0.56626038  0.58759897  1  0  0.292732  0  0.926993  0  0  0.274607  0  0.995608  0  0  0.28227  0  0.989573  0  0  0.302753  0.269235  0  0.999809  0
H  H31  1  0.69591500  0.43371881  0.08759672  1  0  0.292717  0  0.926925  0  0  0.274599  0  0.99551  0  0  0.282263  0  0.989475  0  0  0.30273  0.269225  0  0.999719  0
H  H32  1  0.43371799  0.69594507  0.91239851  1  0  0.292659  0  0.926946  0  0  0.274544  0  0.995536  0  0  0.282209  0  0.989499  0  0  0.302741  0.269174  0  0.999741  0
H  H33  1  0.56630491  0.30408709  0.41240485  1  0  0.292636  0  0.926951  0  0  0.27464  0  0.995374  0  0  0.282303  0  0.989343  0  0  0.302752  0.269272  0  0.999575  0
C  C34  1  0.52934922  0.96087397  0.66861308  1  0  0.689402  0  3.85604  0  0  0.638051  0  4.162764  0  0  0.671477  0  4.154557  0  0  0.211139  0.615181  0  4.167806  0
C  C35  1  0.47067922  0.03912215  0.16861158  1  0  0.689146  0  3.85622  0  0  0.637777  0  4.163052  0  0  0.671201  0  4.154835  0  0  0.211057  0.614911  0  4.168097  0
C  C36  1  0.03910254  0.47067122  0.83138527  1  0  0.689117  0  3.856296  0  0  0.637649  0  4.163258  0  0  0.671069  0  4.155052  0  0  0.210959  0.614779  0  4.168299  0
C  C37  1  0.96090414  0.52934783  0.33139011  1  0  0.689541  0  3.855601  0  0  0.638018  0  4.162608  0  0  0.671443  0  4.154392  0  0  0.211068  0.615145  0  4.167661  0
C  C38  1  0.55957813  0.75988035  0.63078952  1  0  -0.100833  0  3.672749  0  0  -0.157801  0  3.928544  0  0  -0.156602  0  3.934464  0  0  -0.062981  -0.158522  0  3.924496  0
C  C39  1  0.44040027  0.24009445  0.13078675  1  0  -0.100435  0  3.672413  0  0  -0.15755  0  3.928377  0  0  -0.156291  0  3.934266  0  0  -0.062847  -0.158288  0  3.924326  0
C  C40  1  0.24008646  0.44043762  0.86920854  1  0  -0.100515  0  3.672648  0  0  -0.157545  0  3.928641  0  0  -0.156311  0  3.934526  0  0  -0.062836  -0.158268  0  3.924589  0
C  C41  1  0.75996254  0.55960942  0.36921818  1  0  -0.100569  0  3.672602  0  0  -0.157607  0  3.928761  0  0  -0.156372  0  3.934664  0  0  -0.062742  -0.158336  0  3.92471  0
C  C42  1  0.29284994  0.96836181  0.57189620  1  0  0.537953  0  3.849242  0  0  0.489403  0  4.138314  0  0  0.518459  0  4.138376  0  0  0.237966  0.469889  0  4.137675  0
C  C43  1  0.70714322  0.03160399  0.07189286  1  0  0.538272  0  3.84909  0  0  0.489736  0  4.138116  0  0  0.518755  0  4.138225  0  0  0.23811  0.470223  0  4.137488  0
C  C44  1  0.03159400  0.70719005  0.92809917  1  0  0.538453  0  3.849024  0  0  0.489726  0  4.138284  0  0  0.518741  0  4.138398  0  0  0.238112  0.47022  0  4.137645  0
C  C45  1  0.96840397  0.29286499  0.42810721  1  0  0.538004  0  3.848917  0  0  0.489572  0  4.137792  0  0  0.518587  0  4.137907  0  0  0.238115  0.470068  0  4.137158  0
C  C46  1  0.09875316  0.92851750  0.53505564  1  0  -0.068793  0  3.7694  0  0  -0.042752  0  4.002974  0  0  -0.050778  0  4.026096  0  0  -0.01482  -0.037752  0  3.987423  0
C  C47  1  0.90123083  0.07143191  0.03505449  1  0  -0.068729  0  3.769531  0  0  -0.042691  0  4.003145  0  0  -0.050699  0  4.026267  0  0  -0.014707  -0.037689  0  3.987598  0
C  C48  1  0.07145328  0.90126073  0.96493993  1  0  -0.068966  0  3.769765  0  0  -0.042842  0  4.003354  0  0  -0.050848  0  4.026477  0  0  -0.014903  -0.037838  0  3.987799  0
C  C49  1  0.92856182  0.09876789  0.46494769  1  0  -0.06874  0  3.769452  0  0  -0.042739  0  4.003025  0  0  -0.050747  0  4.02615  0  0  -0.014678  -0.037735  0  3.987466  0
C  C50  1  0.90954279  0.72679902  0.53396825  1  0  -0.055828  0  3.696827  0  0  -0.084267  0  3.950151  0  0  -0.081701  0  3.968156  0  0  -0.076173  -0.085618  0  3.937839  0
C  C51  1  0.09042840  0.27318525  0.03397190  1  0  -0.056008  0  3.696707  0  0  -0.084475  0  3.950069  0  0  -0.081909  0  3.968057  0  0  -0.076197  -0.085817  0  3.937754  0
C  C52  1  0.27319570  0.09045345  0.96603032  1  0  -0.055897  0  3.696581  0  0  -0.084324  0  3.949882  0  0  -0.081764  0  3.967875  0  0  -0.076123  -0.085669  0  3.937568  0
C  C53  1  0.72683671  0.90954996  0.46602793  1  0  -0.055705  0  3.696394  0  0  -0.084178  0  3.949749  0  0  -0.081611  0  3.967742  0  0  -0.076139  -0.085529  0  3.937441  0
C  C54  1  0.72197906  0.72199716  0.50000106  1  0  -0.061995  0  3.738245  0  0  -0.074976  0  3.996817  0  0  -0.079935  0  4.018899  0  0  -0.08783  -0.071917  0  3.981821  0
C  C55  1  0.27798578  0.27800547  0.00000248  1  0  -0.06194  0  3.73834  0  0  -0.07499  0  3.99692  0  0  -0.07994  0  4.018999  0  0  -0.087864  -0.071932  0  3.981929  0
C  C56  1  0.10872997  0.10873727  0.50000133  1  0  -0.068145  0  3.725438  0  0  -0.102959  0  3.969919  0  0  -0.101177  0  3.989374  0  0  -0.073635  -0.103746  0  3.956543  0
C  C57  1  0.89129036  0.89124129  0.99999878  1  0  -0.067961  0  3.725431  0  0  -0.10282  0  3.969893  0  0  -0.101033  0  3.98934  0  0  -0.073471  -0.103617  0  3.956539  0
N  N58  1  0.34709408  0.75492847  0.59845557  1  0  -0.410718  0  3.322325  0  0  -0.355066  0  3.574044  0  0  -0.376348  0  3.58293  0  0  -0.421641  -0.340475  0  3.567527  0
N  N59  1  0.65291363  0.24504013  0.09845403  1  0  -0.411205  0  3.322087  0  0  -0.355373  0  3.573717  0  0  -0.376643  0  3.582571  0  0  -0.421794  -0.340791  0  3.567226  0
N  N60  1  0.24503663  0.65292339  0.90154407  1  0  -0.410857  0  3.322082  0  0  -0.355089  0  3.573904  0  0  -0.376354  0  3.58277  0  0  -0.421702  -0.340527  0  3.567423  0
N  N61  1  0.75497968  0.34710201  0.40154572  1  0  -0.411058  0  3.322388  0  0  -0.355268  0  3.57372  0  0  -0.376538  0  3.582586  0  0  -0.421858  -0.340715  0  3.567255  0
O  O62  1  0.74332266  0.95691598  0.69336347  1  0  -0.710391  0  2.085892  0  0  -0.627074  0  2.340663  0  0  -0.659904  0  2.327343  0  0  -0.336054  -0.603952  0  2.349128  0
O  O63  1  0.25669448  0.04306247  0.19336269  1  0  -0.710385  0  2.08564  0  0  -0.62708  0  2.340451  0  0  -0.659909  0  2.327134  0  0  -0.336106  -0.603963  0  2.348923  0
O  O64  1  0.04305620  0.25668000  0.80663428  1  0  -0.710402  0  2.085701  0  0  -0.626981  0  2.340438  0  0  -0.65981  0  2.327125  0  0  -0.336048  -0.603862  0  2.348908  0
O  O65  1  0.95692836  0.74333140  0.30663697  1  0  -0.710547  0  2.085527  0  0  -0.627068  0  2.340281  0  0  -0.659901  0  2.326966  0  0  -0.336076  -0.603943  0  2.348746  0
O  O66  1  0.32696912  0.10772876  0.67452577  1  0  -0.611102  0  1.968164  0  0  -0.564421  0  2.200199  0  0  -0.587418  0  2.189849  0  0  -0.31698  -0.548404  0  2.206972  0
O  O67  1  0.67305638  0.89228345  0.17452676  1  0  -0.610993  0  1.968555  0  0  -0.564221  0  2.200538  0  0  -0.587218  0  2.190192  0  0  -0.316876  -0.548212  0  2.207317  0
O  O68  1  0.89226505  0.67304312  0.82546947  1  0  -0.611004  0  1.968487  0  0  -0.564227  0  2.200553  0  0  -0.587224  0  2.190207  0  0  -0.316897  -0.548212  0  2.207324  0
O  O69  1  0.10775547  0.32697700  0.32547509  1  0  -0.611194  0  1.968325  0  0  -0.564365  0  2.200404  0  0  -0.587358  0  2.190037  0  0  -0.316922  -0.548353  0  2.207185  0
O  O70  1  0.39915214  0.18920803  0.57736888  1  0  -0.563385  0  1.92489  0  0  -0.516891  0  2.147251  0  0  -0.537771  0  2.141338  0  0  -0.306032  -0.502515  0  2.150882  0
O  O71  1  0.60088454  0.81073974  0.07736638  1  0  -0.563288  0  1.924766  0  0  -0.516987  0  2.147306  0  0  -0.53785  0  2.141405  0  0  -0.306044  -0.502618  0  2.150948  0
O  O72  1  0.81075153  0.60087284  0.92263065  1  0  -0.563538  0  1.92476  0  0  -0.517056  0  2.14728  0  0  -0.537918  0  2.141382  0  0  -0.306074  -0.502688  0  2.150912  0
O  O73  1  0.18927346  0.39912008  0.42263446  1  0  -0.563099  0  1.924756  0  0  -0.51682  0  2.147196  0  0  -0.537685  0  2.141304  0  0  -0.305948  -0.502448  0  2.150825  0
O  O74  1  0.00895656  0.50959659  0.70316437  1  0  -0.868525  0  1.939946  0  0  -0.792037  0  2.14425  0  0  -0.817541  0  2.108821  0  0  -0.564919  -0.773918  0  2.168696  0
O  O75  1  0.99103076  0.49039333  0.20316424  1  0  -0.868498  0  1.939903  0  0  -0.791957  0  2.14419  0  0  -0.817476  0  2.108804  0  0  -0.564925  -0.773841  0  2.168635  0
O  O76  1  0.49037290  0.99103026  0.79683670  1  0  -0.868405  0  1.939902  0  0  -0.791887  0  2.144176  0  0  -0.817406  0  2.108803  0  0  -0.564881  -0.773767  0  2.168618  0
O  O77  1  0.50960809  0.00898650  0.29683737  1  0  -0.868495  0  1.939797  0  0  -0.791958  0  2.144133  0  0  -0.817464  0  2.108729  0  0  -0.56487  -0.77384  0  2.168578  0
O  O78  1  0.44018740  0.55980768  0.74999635  1  0  -0.908911  0  1.923335  0  0  -0.84063  0  2.150123  0  0  -0.864694  0  2.113077  0  0  -0.618989  -0.823618  0  2.175675  0
O  O79  1  0.55980281  0.44019616  0.24999759  1  0  -0.9089  0  1.923428  0  0  -0.840477  0  2.150421  0  0  -0.864539  0  2.113368  0  0  -0.61895  -0.823448  0  2.175931  0
