# generated using pymatgen
data_CuH12C11NO4
_symmetry_space_group_name_H-M   'P 1'
_cell_length_a   9.09410134
_cell_length_b   12.50308857
_cell_length_c   12.50315043
_cell_angle_alpha   66.67542339
_cell_angle_beta   78.78200983
_cell_angle_gamma   78.78267295
_symmetry_Int_Tables_number   1
_chemical_formula_structural   CuH12C11NO4
_chemical_formula_sum   'Cu4 H48 C44 N4 O16'
_cell_volume   1269.59426303
_cell_formula_units_Z   4
loop_
 _symmetry_equiv_pos_site_id
 _symmetry_equiv_pos_as_xyz
  1  'x, y, z'
loop_
 _atom_site_type_symbol
 _atom_site_label
 _atom_site_symmetry_multiplicity
 _atom_site_fract_x
 _atom_site_fract_y
 _atom_site_fract_z
 _atom_site_occupancy
 _atom_site_pbe_bader_charge
 _atom_site_pbe_bader_spin_density
 _atom_site_pbe_cm5_charge
 _atom_site_pbe_ddec_charge
 _atom_site_pbe_ddec_spin_density
 _atom_site_pbe_ddec_sum_bond_order
 _atom_site_pbe_magmom
Cu  Cu0  1  0.31746980  0.17607579  0.22555574  1  1.06006  0.534978  0.675479  0.741822  0.685568  2.400416  0.532
Cu  Cu1  1  0.68249582  0.77444217  0.82397996  1  1.060472  0.534857  0.675628  0.742437  0.685377  2.398861  0.532
Cu  Cu2  1  0.17014686  0.37003426  0.23960182  1  1.058367  -0.533338  0.674429  0.743772  -0.684357  2.391605  -0.531
Cu  Cu3  1  0.82989788  0.76039691  0.62990881  1  1.058712  -0.533218  0.674476  0.743849  -0.684208  2.391297  -0.531
H  H4  1  0.54827588  0.09800535  0.04763293  1  0.113877  -6.7e-05  0.115851  0.090184  -2.5e-05  0.99647  0.0
H  H5  1  0.45170880  0.95236807  0.90201165  1  0.114446  -6.8e-05  0.115907  0.09029  -2.5e-05  0.996442  0.0
H  H6  1  0.74509485  0.93089125  0.04309568  1  0.076366  -7e-06  0.110295  0.118186  2e-06  1.015073  0.0
H  H7  1  0.25489334  0.95690711  0.06911980  1  0.076108  -6e-06  0.110332  0.118205  2e-06  1.015109  0.0
H  H8  1  0.59875780  0.75648085  0.41451778  1  0.12017  -6.9e-05  0.107466  0.117216  -7.3e-05  1.035585  0.0
H  H9  1  0.40123448  0.58548492  0.24352737  1  0.12069  -6.9e-05  0.1075  0.117215  -7.3e-05  1.035578  0.0
H  H10  1  0.40473601  0.92892942  0.39996794  1  0.112771  -5.9e-05  0.117829  0.091235  -3.2e-05  1.004193  0.0
H  H11  1  0.59525184  0.60002871  0.07108724  1  0.11301  -5.9e-05  0.117892  0.091305  -3.3e-05  1.00402  0.0
H  H12  1  0.06988947  0.61063186  0.05696576  1  0.112096  3.8e-05  0.119022  0.094397  1.9e-05  0.984562  0.0
H  H13  1  0.93009777  0.94303695  0.38937863  1  0.112132  3.9e-05  0.11901  0.094376  1.9e-05  0.984512  0.0
H  H14  1  0.87415012  0.78111841  0.04144936  1  0.121796  9.1e-05  0.105674  0.118781  0.000115  1.056204  0.0
H  H15  1  0.12583623  0.95855365  0.21889525  1  0.121954  9.1e-05  0.105704  0.118792  0.000115  1.05632  0.0
H  H16  1  0.76480531  0.62754543  0.42087747  1  0.072602  -3.1e-05  0.110431  0.121811  -5.2e-05  1.012371  0.0
H  H17  1  0.23518505  0.57911892  0.37246439  1  0.072505  -3.1e-05  0.110428  0.121789  -5.2e-05  1.012272  0.0
H  H18  1  0.95925209  0.45994877  0.41661855  1  0.099313  7.3e-05  0.118598  0.088844  3.7e-05  0.987271  0.0
H  H19  1  0.04074019  0.58337811  0.54006161  1  0.099175  7.3e-05  0.118618  0.088854  3.7e-05  0.987334  0.0
H  H20  1  0.51388768  0.33787489  0.46551072  1  0.046392  0.001961  0.097874  0.078418  0.000975  0.952752  0.001
H  H21  1  0.48612009  0.53449930  0.66211647  1  0.046128  0.001961  0.097908  0.078436  0.000975  0.952759  0.001
H  H22  1  0.71072336  0.14201220  0.39319558  1  0.035107  3.2e-05  0.095214  0.097462  2.6e-05  0.985677  0.0
H  H23  1  0.28928140  0.60681120  0.85797257  1  0.034623  3.1e-05  0.095246  0.097502  2.6e-05  0.985663  0.0
H  H24  1  0.74024646  0.18639323  0.50472900  1  0.027724  -0.000784  0.092191  0.088001  -0.000419  0.99101  0.0
H  H25  1  0.25977373  0.49527269  0.81359353  1  -0.004788  -0.000798  0.092158  0.087862  -0.00042  0.991165  0.0
H  H26  1  0.48069058  0.13029319  0.61197588  1  0.030999  -0.001883  0.094657  0.105513  -0.000871  0.981567  -0.001
H  H27  1  0.51931440  0.38801069  0.86971395  1  0.031784  -0.001883  0.094636  0.105509  -0.000871  0.981466  -0.001
H  H28  1  0.46474013  0.08051412  0.49999925  1  0.078422  0.001319  0.104844  0.12816  0.000643  0.994644  0.001
H  H29  1  0.53528180  0.50000792  0.91946912  1  0.078498  0.001318  0.10483  0.128222  0.000643  0.994449  0.001
H  H30  1  0.63167972  0.47323585  0.27543259  1  0.026511  2.4e-05  0.083756  0.113351  6e-06  1.034278  0.0
H  H31  1  0.36831274  0.72457667  0.52675914  1  0.026523  2.4e-05  0.083751  0.113347  6e-06  1.034299  0.0
H  H32  1  0.73914022  0.35158776  0.24378772  1  0.045722  0.000148  0.089763  0.129335  5e-05  1.029412  0.0
H  H33  1  0.26085498  0.75621982  0.64841053  1  0.045585  0.000148  0.089763  0.129332  5e-05  1.02945  0.0
H  H34  1  0.77502687  0.38193188  0.36154175  1  0.061891  -9.1e-05  0.08863  0.126443  -4.4e-05  1.033372  0.0
H  H35  1  0.22497549  0.63845978  0.61807098  1  0.062026  -9.2e-05  0.088594  0.126402  -4.5e-05  1.033405  0.0
H  H36  1  0.81976426  0.19785582  0.15031896  1  0.044023  -0.000437  0.109856  0.099459  -0.00022  0.942142  0.0
H  H37  1  0.18023803  0.84966700  0.80214329  1  0.043817  -0.000438  0.109855  0.09948  -0.000221  0.942052  0.0
H  H38  1  0.74485558  0.34864446  0.96434362  1  0.03341  0.000981  0.09056  0.085675  0.000515  1.000141  0.001
H  H39  1  0.25514759  0.03565515  0.65135614  1  0.033429  0.000982  0.090538  0.085649  0.000515  1.000177  0.001
H  H40  1  0.78481208  0.40857470  0.06009315  1  0.045388  0.000109  0.094231  0.093288  8.3e-05  1.016966  0.0
H  H41  1  0.21520552  0.93990136  0.59142648  1  0.045423  0.00011  0.094234  0.093295  8.4e-05  1.016969  0.0
H  H42  1  0.04056289  0.44163512  0.94729175  1  0.085985  7.5e-05  0.106073  0.128544  4.2e-05  0.989681  0.0
H  H43  1  0.95944183  0.05269442  0.55837553  1  0.085959  7.5e-05  0.106047  0.128573  4.2e-05  0.989673  0.0
H  H44  1  0.99953026  0.39255611  0.84263800  1  0.065341  0.001482  0.096236  0.109638  0.000704  0.983095  0.001
H  H45  1  0.00047292  0.15736193  0.60744222  1  0.065449  0.001482  0.096216  0.109625  0.000704  0.983069  0.001
H  H46  1  0.86298381  0.15602710  0.96491731  1  0.013668  -0.001103  0.086637  0.114072  -0.000579  1.011325  -0.001
H  H47  1  0.13701446  0.03508404  0.84396122  1  0.013795  -0.001103  0.086614  0.114041  -0.000579  1.011339  -0.001
H  H48  1  0.99096402  0.06526786  0.06541780  1  0.025013  0.000228  0.085799  0.112882  0.000165  1.036818  0.0
H  H49  1  0.00904620  0.93457922  0.93471928  1  0.025044  0.000227  0.085716  0.112919  0.000164  1.036887  0.0
H  H50  1  0.05296919  0.18522264  0.94037385  1  0.03056  4e-06  0.086155  0.115478  2e-05  1.006848  0.0
H  H51  1  0.94703724  0.05962168  0.81476723  1  0.030657  4e-06  0.086204  0.115509  2e-05  1.006875  0.0
C  C52  1  0.56284252  0.01914359  0.12644300  1  0.48263  -0.000657  0.045103  0.095005  -0.000444  3.964591  0.0
C  C53  1  0.43714382  0.87355838  0.98087036  1  0.481911  -0.000659  0.045153  0.094852  -0.000445  3.96477  0.0
C  C54  1  0.67317777  0.92544709  0.12513920  1  -0.013285  0.000361  -0.082075  -0.172533  0.00023  3.942821  0.0
C  C55  1  0.32680487  0.87486514  0.07456608  1  -0.013174  0.000362  -0.082146  -0.172557  0.000231  3.942857  0.0
C  C56  1  0.68854925  0.82568637  0.22857175  1  -0.018907  -0.000693  0.01104  0.099613  -0.00044  3.975211  0.0
C  C57  1  0.31144091  0.77143150  0.17432256  1  -0.019347  -0.000696  0.011225  0.100013  -0.000441  3.974779  0.0
C  C58  1  0.59103836  0.82833306  0.32977395  1  -0.032674  0.000286  -0.080079  -0.167193  0.0002  3.92398  0.0
C  C59  1  0.40894480  0.67022819  0.17168075  1  -0.032971  0.000287  -0.080322  -0.167502  0.000201  3.924228  0.0
C  C60  1  0.48295475  0.92514464  0.32302121  1  0.484789  -0.000706  0.048806  0.103825  -0.000472  3.942481  0.0
C  C61  1  0.51703698  0.67697662  0.07486988  1  0.484641  -0.000708  0.048982  0.103951  -0.000473  3.942413  0.0
C  C62  1  0.99893613  0.61827734  0.13538903  1  0.45238  0.000738  0.05088  0.11324  0.000483  3.92775  0.0
C  C63  1  0.00104482  0.86461374  0.38173570  1  0.451267  0.000741  0.050962  0.113312  0.000485  3.927166  0.0
C  C64  1  0.89010412  0.71485101  0.12816425  1  -0.026873  -0.000243  -0.082266  -0.1751  -0.000171  3.923007  0.0
C  C65  1  0.10988273  0.87183968  0.28515723  1  -0.026776  -0.000243  -0.082334  -0.175058  -0.000171  3.922414  0.0
C  C66  1  0.80226317  0.72281345  0.23119326  1  -0.029673  0.000744  0.009257  0.097789  0.000478  3.977405  0.001
C  C67  1  0.19772284  0.76880834  0.27719673  1  -0.02931  0.000747  0.009264  0.097624  0.000479  3.977261  0.001
C  C68  1  0.82714149  0.62837089  0.33689005  1  -0.003625  -0.000361  -0.080761  -0.172358  -0.000235  3.940057  0.0
C  C69  1  0.17285605  0.66310894  0.37163283  1  -0.003325  -0.000362  -0.080784  -0.172238  -0.000236  3.939815  0.0
C  C70  1  0.93737364  0.53460133  0.33574346  1  0.494357  0.00073  0.047164  0.092696  0.000496  3.992191  0.0
C  C71  1  0.06261655  0.66425205  0.46540610  1  0.493782  0.000732  0.047311  0.092813  0.000497  3.992125  0.0
C  C72  1  0.44948641  0.29923768  0.33159537  1  1.530716  0.000923  0.214446  0.596752  0.000849  4.09618  0.001
C  C73  1  0.55053269  0.66840726  0.70075679  1  1.531034  0.000919  0.214599  0.596941  0.000848  4.096968  0.001
C  C74  1  0.57164361  0.30122352  0.39904763  1  0.012443  0.001004  -0.085967  -0.050263  0.00058  3.878842  0.0
C  C75  1  0.42836869  0.60096215  0.69876152  1  0.012545  0.001007  -0.086089  -0.050508  0.000581  3.879021  0.0
C  C76  1  0.65280565  0.17789367  0.45988310  1  0.012566  -0.000857  -0.162348  -0.141418  -0.000537  3.919124  -0.001
C  C77  1  0.34721232  0.54012476  0.82209302  1  0.045486  -0.000845  -0.162246  -0.141139  -0.000538  3.918812  -0.001
C  C78  1  0.54524947  0.09356210  0.54764813  1  -0.025215  0.001005  -0.163338  -0.289004  0.000702  3.909954  0.001
C  C79  1  0.45475758  0.45235481  0.90643460  1  -0.025984  0.001004  -0.163261  -0.28899  0.000701  3.909657  0.001
C  C80  1  0.62531278  0.97310333  0.61410691  1  1.507366  -7.5e-05  0.214583  0.634858  -2.3e-05  4.106342  0.0
C  C81  1  0.37469216  0.38589382  0.02689372  1  1.506557  -7.3e-05  0.214506  0.634572  -2.3e-05  4.105999  0.0
C  C82  1  0.68494646  0.38237832  0.31456013  1  -0.083108  -0.000159  -0.244363  -0.376376  -7.6e-05  3.898748  0.0
C  C83  1  0.31505526  0.68544862  0.61761952  1  -0.082844  -0.00016  -0.244363  -0.376342  -7.6e-05  3.898782  0.0
C  C84  1  0.03558987  0.24329535  0.13789509  1  1.548294  -0.000556  0.215662  0.583857  -0.000565  4.098633  -0.001
C  C85  1  0.96441802  0.86209257  0.75670545  1  1.548457  -0.000561  0.215678  0.584042  -0.000568  4.099153  -0.001
C  C86  1  0.90781239  0.23675718  0.07754231  1  0.040926  -0.001247  -0.082196  -0.054525  -0.000836  3.859277  -0.001
C  C87  1  0.09219948  0.92244114  0.76323869  1  0.040793  -0.001243  -0.082224  -0.05459  -0.000833  3.859169  -0.001
C  C88  1  0.83658557  0.35981345  0.00324487  1  0.003733  -0.000317  -0.164725  -0.145354  -0.00022  3.915529  0.0
C  C89  1  0.16342259  0.99674737  0.64018681  1  0.003645  -0.000315  -0.164658  -0.145304  -0.000218  3.915535  0.0
C  C90  1  0.94828545  0.43326759  0.90674959  1  -0.062347  -0.000579  -0.162865  -0.282659  -0.000522  3.896943  -0.001
C  C91  1  0.05172379  0.09324480  0.56673075  1  -0.062265  -0.000577  -0.162866  -0.282788  -0.00052  3.897082  -0.001
C  C92  1  0.87963896  0.55802226  0.83968259  1  1.541104  0.00013  0.215469  0.631555  9.9e-05  4.105361  0.0
C  C93  1  0.12036071  0.16030770  0.44197392  1  1.540809  0.00013  0.215558  0.631641  9.8e-05  4.104764  0.0
C  C94  1  0.95704103  0.15602265  0.00832413  1  -0.064094  -0.001188  -0.245712  -0.374105  -0.000715  3.964798  -0.001
C  C95  1  0.04296403  0.99166899  0.84396238  1  -0.063662  -0.001187  -0.245686  -0.37416  -0.000715  3.964799  -0.001
N  N96  1  0.46734635  0.01927016  0.22304662  1  -1.245977  -0.001126  -0.337205  -0.241763  -0.00041  3.510962  0.0
N  N97  1  0.53263899  0.77695432  0.98074952  1  -1.245765  -0.001126  -0.337471  -0.241927  -0.00041  3.511438  0.0
N  N98  1  0.02376868  0.52920211  0.23749010  1  -1.211397  0.001447  -0.339695  -0.244425  0.000616  3.513813  0.0
N  N99  1  0.97622463  0.76250678  0.47079835  1  -1.210992  0.001451  -0.339881  -0.24463  0.000617  3.514549  0.0
O  O100  1  0.47554866  0.22183585  0.28593261  1  -1.112755  0.077263  -0.313166  -0.522713  0.050392  2.367565  0.07
O  O101  1  0.52445830  0.71406588  0.77814644  1  -1.113039  0.077226  -0.313196  -0.52275  0.050369  2.367835  0.07
O  O102  1  0.33235465  0.37547978  0.32577759  1  -1.121251  -0.080904  -0.319694  -0.534587  -0.052823  2.330701  -0.073
O  O103  1  0.66766325  0.67421084  0.62453364  1  -1.121568  -0.080868  -0.319809  -0.534763  -0.052798  2.331166  -0.073
O  O104  1  0.60371829  0.93799160  0.72597888  1  -1.08168  0.089231  -0.318675  -0.530696  0.058287  2.342302  0.081
O  O105  1  0.39629323  0.27400876  0.06201756  1  -1.080964  0.089278  -0.318565  -0.530364  0.058317  2.342054  0.081
O  O106  1  0.70676824  0.91679655  0.55337334  1  -1.123992  -0.081852  -0.314724  -0.528099  -0.053306  2.325762  -0.074
O  O107  1  0.29320284  0.44662823  0.08320195  1  -1.12391  -0.081881  -0.314691  -0.527994  -0.053324  2.325731  -0.074
O  O108  1  0.13983777  0.15644340  0.16344090  1  -1.126725  0.079363  -0.312618  -0.516827  0.051752  2.359042  0.072
O  O109  1  0.86020471  0.83654852  0.84356255  1  -1.127029  0.079326  -0.31265  -0.517022  0.051727  2.358947  0.072
O  O110  1  0.02628045  0.33649085  0.15821499  1  -1.115265  -0.076457  -0.308332  -0.521606  -0.049953  2.42239  -0.069
O  O111  1  0.97369052  0.84178639  0.66351851  1  -1.115408  -0.07638  -0.308328  -0.521698  -0.049903  2.422921  -0.069
O  O112  1  0.77954446  0.60818417  0.89754518  1  -1.134958  0.077944  -0.313001  -0.527392  0.050907  2.357384  0.071
O  O113  1  0.22045854  0.10243926  0.39180183  1  -1.134882  0.077996  -0.313091  -0.527296  0.050941  2.357046  0.071
O  O114  1  0.92922752  0.60307500  0.73092852  1  -1.121072  -0.086905  -0.316247  -0.532552  -0.056625  2.345386  -0.079
O  O115  1  0.07078059  0.26907977  0.39691303  1  -1.120864  -0.08694  -0.316293  -0.532561  -0.056647  2.345101  -0.079
