# generated using pymatgen
data_Al2H9C16S2(NO4)3
_symmetry_space_group_name_H-M   'P 1'
_cell_length_a   6.74511393
_cell_length_b   11.17900419
_cell_length_c   12.83137063
_cell_angle_alpha   58.53148169
_cell_angle_beta   67.71729219
_cell_angle_gamma   71.13338514
_symmetry_Int_Tables_number   1
_chemical_formula_structural   Al2H9C16S2(NO4)3
_chemical_formula_sum   'Al2 H9 C16 S2 N3 O12'
_cell_volume   753.90522058
_cell_formula_units_Z   1
loop_
 _symmetry_equiv_pos_site_id
 _symmetry_equiv_pos_as_xyz
  1  'x, y, z'
loop_
 _atom_site_type_symbol
 _atom_site_label
 _atom_site_symmetry_multiplicity
 _atom_site_fract_x
 _atom_site_fract_y
 _atom_site_fract_z
 _atom_site_occupancy
 _atom_site_pbe_bader_charge
 _atom_site_pbe_bader_spin_density
 _atom_site_pbe_cm5_charge
 _atom_site_pbe_ddec_charge
 _atom_site_pbe_ddec_spin_density
 _atom_site_pbe_ddec_sum_bond_order
 _atom_site_pbe_magmom
Al  Al0  1  0.50117285  0.50065364  0.49933956  1  2.503673  0  0.389602  1.62782  0  2.586216  0
Al  Al1  1  0.00396986  0.50000354  0.49828151  1  2.50336  0  0.394854  1.635097  0  2.555203  0
H  H2  1  0.22511381  0.68652215  0.39868063  1  0.603861  0  0.335801  0.411696  0  0.898655  0
H  H3  1  0.78011021  0.31489109  0.60270988  1  0.598224  0  0.348558  0.422416  0  0.859864  0
H  H4  1  0.11522851  0.10176812  0.54986999  1  0.089343  0  0.110856  0.112462  0  0.997503  0
H  H5  1  0.78681571  0.12623592  0.46345844  1  0.115042  0  0.12057  0.134659  0  0.988793  0
H  H6  1  0.22762317  0.86535508  0.54690674  1  0.165736  0  0.110858  0.108146  0  1.093591  0
H  H7  1  0.53937254  0.41483729  0.89116183  1  0.450704  0  0.284121  0.273924  0  1.0307  0
H  H8  1  0.50633361  0.40489503  0.76782369  1  0.501724  0  0.31022  0.320891  0  0.965783  0
H  H9  1  0.46251664  0.58577135  0.10737276  1  0.455191  0  0.285959  0.276412  0  1.025778  0
H  H10  1  0.49577256  0.59704881  0.23014811  1  0.511397  0  0.311696  0.324496  0  0.958609  0
C  C11  1  0.88056243  0.54580574  0.28611246  1  1.530734  0  0.240316  0.644208  0  4.164946  0
C  C12  1  0.62728628  0.72728796  0.49499974  1  1.614033  0  0.277135  0.654712  0  4.069064  0
C  C13  1  0.12280824  0.45291953  0.71279491  1  1.506899  0  0.242556  0.651066  0  4.156038  0
C  C14  1  0.37794595  0.27038493  0.50575381  1  1.604042  0  0.273555  0.644776  0  4.083172  0
C  C15  1  0.56461117  0.86554176  0.50062524  1  0.015879  0  0.002014  -0.072543  0  3.914144  0
C  C16  1  0.44348150  0.13019804  0.50382851  1  -0.029426  0  0.000231  -0.011998  0  3.949991  0
C  C17  1  0.71809725  0.93959391  0.48106576  1  0.210449  0  0.091793  0.066665  0  3.955849  0
C  C18  1  0.28572759  0.05605038  0.52851617  1  0.057539  0  -0.071298  -0.080695  0  3.940393  0
C  C19  1  0.66312686  0.07085359  0.48003883  1  0.025263  0  -0.070794  -0.14658  0  3.929665  0
C  C20  1  0.34662847  0.92611372  0.52614521  1  -0.075172  0  -0.073903  -0.066916  0  3.943804  0
C  C21  1  0.22384380  0.44866570  0.88626682  1  0.578394  0  0.116165  0.29683  0  4.087843  0
C  C22  1  0.77817766  0.54882965  0.11355958  1  0.537925  0  0.115913  0.296602  0  4.097205  0
C  C23  1  0.07234786  0.46838486  0.82480738  1  -0.093744  0  -0.045709  -0.264737  0  3.927541  0
C  C24  1  0.92977701  0.52911535  0.17492428  1  -0.141747  0  -0.049784  -0.274388  0  3.951051  0
C  C25  1  0.88916228  0.51890140  0.00800477  1  -0.119841  0  -0.026767  -0.105125  0  4.066222  0
C  C26  1  0.11275234  0.47751348  0.99236123  1  -0.159184  0  -0.026482  -0.100036  0  4.0618  0
S  S27  1  0.80550799  0.52599877  0.89334089  1  0.196581  0  0.061569  0.098622  0  2.890467  0
S  S28  1  0.19680126  0.47091655  0.10676241  1  0.184078  0  0.055923  0.086814  0  2.875864  0
N  N29  1  0.94455207  0.86977519  0.47632097  1  0.40984  0  0.058766  0.510904  0  4.224795  0
N  N30  1  0.44034513  0.40747415  0.85244058  1  -1.252593  0  -0.574141  -0.564207  0  3.358139  0
N  N31  1  0.56212169  0.59097278  0.14702552  1  -1.287086  0  -0.571733  -0.564281  0  3.356565  0
O  O32  1  0.67788862  0.58265733  0.33361501  1  -1.282685  0  -0.255295  -0.625473  0  2.360371  0
O  O33  1  0.82953603  0.68236551  0.46554447  1  -1.263181  0  -0.229194  -0.595899  0  2.405457  0
O  O34  1  0.97056937  0.47358307  0.66550695  1  -1.256651  0  -0.253878  -0.604294  0  2.313572  0
O  O35  1  0.52877691  0.33208238  0.48361297  1  -1.256064  0  -0.231856  -0.583946  0  2.328135  0
O  O36  1  0.32618895  0.41722120  0.66534673  1  -1.278808  0  -0.258243  -0.635365  0  2.365824  0
O  O37  1  0.17530204  0.31655761  0.53005103  1  -1.263545  0  -0.229178  -0.592125  0  2.362738  0
O  O38  1  0.03444585  0.52397101  0.33277106  1  -1.254062  0  -0.254149  -0.600454  0  2.305375  0
O  O39  1  0.47545579  0.66639677  0.51824871  1  -1.236968  0  -0.223914  -0.569191  0  2.355927  0
O  O40  1  0.25509660  0.58337482  0.43328018  1  -1.411084  0  -0.447569  -0.971986  0  2.151632  0
O  O41  1  0.74998929  0.41775321  0.56426445  1  -1.40717  0  -0.447232  -0.973013  0  2.158104  0
O  O42  1  0.97934939  0.78335648  0.58102987  1  -0.444547  0  -0.087307  -0.286359  0  2.029036  0
O  O43  1  0.08284993  0.90362933  0.37321267  1  -0.456354  0  -0.110607  -0.309605  0  1.897476  0
