# generated using pymatgen
data_NaH7C4(N2O)4
_symmetry_space_group_name_H-M   'P 1'
_cell_length_a   6.56798616
_cell_length_b   10.35166766
_cell_length_c   15.14029664
_cell_angle_alpha   92.07870430
_cell_angle_beta   90.01712478
_cell_angle_gamma   108.49586496
_symmetry_Int_Tables_number   1
_chemical_formula_structural   NaH7C4(N2O)4
_chemical_formula_sum   'Na4 H28 C16 N32 O16'
_cell_volume   975.49359234
_cell_formula_units_Z   4
loop_
 _symmetry_equiv_pos_site_id
 _symmetry_equiv_pos_as_xyz
  1  'x, y, z'
loop_
 _atom_site_type_symbol
 _atom_site_label
 _atom_site_symmetry_multiplicity
 _atom_site_fract_x
 _atom_site_fract_y
 _atom_site_fract_z
 _atom_site_occupancy
 _atom_site_hle17_bader_spin_density
 _atom_site_hle17_ddec_charge
 _atom_site_hle17_ddec_spin_density
 _atom_site_hle17_ddec_sum_bond_order
 _atom_site_hle17_magmom
 _atom_site_hse06_10hf_bader_spin_density
 _atom_site_hse06_10hf_ddec_charge
 _atom_site_hse06_10hf_ddec_spin_density
 _atom_site_hse06_10hf_ddec_sum_bond_order
 _atom_site_hse06_10hf_magmom
 _atom_site_hse06_bader_spin_density
 _atom_site_hse06_ddec_charge
 _atom_site_hse06_ddec_spin_density
 _atom_site_hse06_ddec_sum_bond_order
 _atom_site_hse06_magmom
 _atom_site_pbe_bader_spin_density
 _atom_site_pbe_cm5_charge
 _atom_site_pbe_ddec_charge
 _atom_site_pbe_ddec_spin_density
 _atom_site_pbe_ddec_sum_bond_order
 _atom_site_pbe_magmom
Na  Na0  1  0.57842542  0.80496282  0.73772007  1  0  0.891407  0  0.362121  0  0  0.832444  0  0.525342  0  0  0.84526  0  0.501233  0  0  0.648941  0.823105  0  0.542534  0
Na  Na1  1  0.77355028  0.19509840  0.76214725  1  0  0.891366  0  0.362015  0  0  0.831736  0  0.526524  0  0  0.844629  0  0.502276  0  0  0.648915  0.823107  0  0.542599  0
Na  Na2  1  0.42157282  0.19503899  0.26228100  1  0  0.891403  0  0.362134  0  0  0.832431  0  0.525362  0  0  0.845247  0  0.501254  0  0  0.648931  0.823085  0  0.542555  0
Na  Na3  1  0.22644897  0.80489934  0.23785303  1  0  0.891367  0  0.361998  0  0  0.831712  0  0.526546  0  0  0.844605  0  0.502297  0  0  0.648895  0.823087  0  0.542612  0
H  H4  1  0.74886626  0.18914821  0.98193453  1  0  0.287307  0  0.977135  0  0  0.250113  0  1.062687  0  0  0.261093  0  1.055255  0  0  0.301032  0.243993  0  1.066338  0
H  H5  1  0.55972876  0.81091188  0.51793654  1  0  0.288709  0  0.975894  0  0  0.251572  0  1.061284  0  0  0.262621  0  1.053743  0  0  0.301134  0.243883  0  1.066461  0
H  H6  1  0.25113551  0.81084544  0.01806629  1  0  0.287364  0  0.977148  0  0  0.25017  0  1.062653  0  0  0.261152  0  1.055217  0  0  0.301044  0.244049  0  1.066313  0
H  H7  1  0.44027050  0.18909197  0.48206459  1  0  0.288728  0  0.97589  0  0  0.251597  0  1.061249  0  0  0.262643  0  1.053714  0  0  0.301155  0.243909  0  1.066427  0
H  H8  1  0.78020781  0.84682541  0.11657690  1  0  0.129061  0  0.953315  0  0  0.132822  0  1.02263  0  0  0.137177  0  1.016854  0  0  0.149686  0.129583  0  1.027007  0
H  H9  1  0.93402830  0.15304332  0.38330067  1  0  0.129012  0  0.953778  0  0  0.133207  0  1.022505  0  0  0.137579  0  1.016745  0  0  0.149876  0.129805  0  1.027023  0
H  H10  1  0.21978686  0.15316623  0.88342187  1  0  0.129178  0  0.953155  0  0  0.132857  0  1.022538  0  0  0.137206  0  1.016756  0  0  0.149733  0.129619  0  1.026908  0
H  H11  1  0.06598059  0.84696153  0.61670247  1  0  0.128919  0  0.953832  0  0  0.133125  0  1.022571  0  0  0.137498  0  1.016811  0  0  0.149849  0.129723  0  1.027083  0
H  H12  1  0.21936661  0.67422332  0.84035242  1  0  0.414661  0  0.890373  0  0  0.380709  0  0.95905  0  0  0.391851  0  0.942886  0  0  0.283177  0.372936  0  0.970257  0
H  H13  1  0.54506839  0.32577108  0.65964906  1  0  0.414567  0  0.890661  0  0  0.380605  0  0.959356  0  0  0.391775  0  0.943161  0  0  0.283258  0.372758  0  0.970706  0
H  H14  1  0.78062961  0.32577444  0.15964655  1  0  0.414692  0  0.890319  0  0  0.380717  0  0.959039  0  0  0.39186  0  0.942875  0  0  0.283168  0.372944  0  0.970245  0
H  H15  1  0.45493241  0.67423585  0.34035018  1  0  0.414559  0  0.89068  0  0  0.380588  0  0.95939  0  0  0.391757  0  0.943195  0  0  0.283256  0.372738  0  0.970741  0
H  H16  1  0.21907866  0.82812664  0.84237980  1  0  0.389942  0  0.924976  0  0  0.350216  0  1.003495  0  0  0.360963  0  0.987939  0  0  0.284593  0.342787  0  1.014211  0
H  H17  1  0.39069142  0.17186861  0.65769620  1  0  0.390054  0  0.924902  0  0  0.350386  0  1.003162  0  0  0.361133  0  0.987609  0  0  0.28482  0.342838  0  1.014061  0
H  H18  1  0.78091905  0.17187107  0.15762246  1  0  0.389974  0  0.924937  0  0  0.350249  0  1.003452  0  0  0.360996  0  0.987895  0  0  0.284614  0.342819  0  1.01417  0
H  H19  1  0.60931444  0.82813626  0.34230497  1  0  0.390054  0  0.924893  0  0  0.350399  0  1.00314  0  0  0.361146  0  0.987586  0  0  0.284843  0.34285  0  1.014039  0
H  H20  1  0.81518397  0.62608252  0.66451217  1  0  0.418896  0  0.882797  0  0  0.382176  0  0.957931  0  0  0.392771  0  0.942362  0  0  0.284147  0.37466  0  0.968959  0
H  H21  1  0.18906229  0.37391102  0.83542495  1  0  0.419485  0  0.882084  0  0  0.382761  0  0.95719  0  0  0.393353  0  0.941616  0  0  0.284341  0.375217  0  0.968287  0
H  H22  1  0.18481530  0.37392135  0.33548698  1  0  0.418868  0  0.882824  0  0  0.382141  0  0.957975  0  0  0.392737  0  0.942404  0  0  0.284153  0.374624  0  0.969009  0
H  H23  1  0.81093188  0.62608265  0.16457521  1  0  0.419416  0  0.882172  0  0  0.382706  0  0.957253  0  0  0.393297  0  0.941682  0  0  0.284315  0.375162  0  0.968354  0
H  H24  1  0.98256046  0.71244101  0.73878036  1  0  0.422689  0  0.879035  0  0  0.394643  0  0.938173  0  0  0.404571  0  0.923714  0  0  0.281842  0.387615  0  0.948393  0
H  H25  1  0.27008281  0.28757326  0.76115768  1  0  0.42315  0  0.87856  0  0  0.395194  0  0.937625  0  0  0.405131  0  0.92314  0  0  0.282154  0.388196  0  0.947804  0
H  H26  1  0.01743982  0.28756184  0.26121942  1  0  0.422801  0  0.878865  0  0  0.394725  0  0.938046  0  0  0.404653  0  0.923586  0  0  0.281867  0.387696  0  0.948268  0
H  H27  1  0.72991542  0.71242244  0.23884254  1  0  0.423142  0  0.878573  0  0  0.395176  0  0.937649  0  0  0.405113  0  0.923165  0  0  0.282142  0.388179  0  0.947826  0
H  H28  1  0.71459335  0.54429257  0.81435269  1  0  0.114219  0  0.955303  0  0  0.121873  0  1.019303  0  0  0.126016  0  1.013894  0  0  0.144753  0.118746  0  1.023414  0
H  H29  1  0.17034841  0.45569175  0.68557441  1  0  0.114199  0  0.95552  0  0  0.121989  0  1.019618  0  0  0.126102  0  1.014226  0  0  0.144687  0.118916  0  1.023527  0
H  H30  1  0.28541913  0.45571033  0.18564312  1  0  0.114132  0  0.955294  0  0  0.121822  0  1.019262  0  0  0.125904  0  1.013928  0  0  0.144743  0.118695  0  1.023364  0
H  H31  1  0.82965441  0.54431314  0.31442543  1  0  0.114217  0  0.955514  0  0  0.121981  0  1.01965  0  0  0.126089  0  1.01426  0  0  0.144696  0.11891  0  1.023555  0
C  C32  1  0.72677424  0.98456731  0.92692132  1  0  0.606153  0  3.902947  0  0  0.529774  0  4.220978  0  0  0.561368  0  4.221336  0  0  0.327368  0.510255  0  4.217928  0
C  C33  1  0.74226658  0.01551895  0.57291540  1  0  0.607215  0  3.901248  0  0  0.532211  0  4.217878  0  0  0.56385  0  4.218226  0  0  0.327702  0.511155  0  4.216758  0
C  C34  1  0.27322398  0.01542838  0.07308022  1  0  0.606101  0  3.902951  0  0  0.529747  0  4.22093  0  0  0.561341  0  4.221288  0  0  0.327298  0.510233  0  4.217875  0
C  C35  1  0.25773369  0.98448387  0.42708636  1  0  0.607194  0  3.901288  0  0  0.532152  0  4.217935  0  0  0.563788  0  4.218284  0  0  0.327696  0.511098  0  4.216813  0
C  C36  1  0.76190711  0.91227022  0.06440931  1  0  0.148911  0  3.630478  0  0  0.077957  0  3.921873  0  0  0.092997  0  3.929911  0  0  0.163026  0.067549  0  3.916845  0
C  C37  1  0.85008726  0.08768000  0.43546409  1  0  0.147492  0  3.629621  0  0  0.076827  0  3.920979  0  0  0.091834  0  3.929116  0  0  0.162555  0.067193  0  3.915355  0
C  C38  1  0.23808958  0.08772544  0.93559421  1  0  0.14878  0  3.630394  0  0  0.077937  0  3.921767  0  0  0.092989  0  3.929798  0  0  0.163019  0.067523  0  3.91674  0
C  C39  1  0.14991604  0.91231976  0.56453824  1  0  0.147735  0  3.629464  0  0  0.077005  0  3.920825  0  0  0.092011  0  3.928958  0  0  0.162588  0.067374  0  3.915195  0
C  C40  1  0.75089515  0.44389521  0.01747317  1  0  0.564012  0  3.916018  0  0  0.48791  0  4.243459  0  0  0.51673  0  4.248511  0  0  0.302941  0.469897  0  4.23783  0
C  C41  1  0.30698451  0.55621399  0.48250443  1  0  0.565371  0  3.914381  0  0  0.489746  0  4.241054  0  0  0.518581  0  4.246077  0  0  0.303579  0.470443  0  4.236871  0
C  C42  1  0.24910360  0.55610154  0.98252510  1  0  0.564063  0  3.915821  0  0  0.487936  0  4.243286  0  0  0.516758  0  4.24834  0  0  0.302992  0.469921  0  4.237665  0
C  C43  1  0.69300866  0.44378986  0.51749604  1  0  0.565458  0  3.914283  0  0  0.489742  0  4.24103  0  0  0.518577  0  4.246056  0  0  0.303597  0.470447  0  4.236837  0
C  C44  1  0.72258076  0.48944980  0.87343609  1  0  0.134299  0  3.667004  0  0  0.072125  0  3.948432  0  0  0.085333  0  3.958616  0  0  0.146498  0.062708  0  3.941971  0
C  C45  1  0.23311280  0.51058836  0.62651442  1  0  0.133655  0  3.665934  0  0  0.070896  0  3.948081  0  0  0.084184  0  3.95827  0  0  0.146236  0.062551  0  3.940785  0
C  C46  1  0.27741800  0.51054697  0.12656020  1  0  0.134736  0  3.667233  0  0  0.072541  0  3.948619  0  0  0.085798  0  3.958838  0  0  0.14665  0.063122  0  3.942148  0
C  C47  1  0.76688595  0.48941753  0.37348678  1  0  0.133702  0  3.665966  0  0  0.070944  0  3.948113  0  0  0.084242  0  3.958293  0  0  0.146232  0.062592  0  3.940811  0
N  N48  1  0.74865696  0.08380186  0.99070028  1  0  -0.333381  0  3.332641  0  0  -0.27639  0  3.597855  0  0  -0.296453  0  3.610886  0  0  -0.281764  -0.264319  0  3.588173  0
N  N49  1  0.66487962  0.91625055  0.50914568  1  0  -0.33364  0  3.331865  0  0  -0.277316  0  3.597292  0  0  -0.297284  0  3.610034  0  0  -0.281456  -0.263702  0  3.587994  0
N  N50  1  0.25134227  0.91619279  0.00930255  1  0  -0.33343  0  3.332702  0  0  -0.27641  0  3.597887  0  0  -0.296473  0  3.610917  0  0  -0.281749  -0.264344  0  3.588214  0
N  N51  1  0.33512218  0.08375229  0.49085476  1  0  -0.33361  0  3.331998  0  0  -0.277316  0  3.597462  0  0  -0.297281  0  3.610205  0  0  -0.281496  -0.263709  0  3.588178  0
N  N52  1  0.77009984  0.03976237  0.07380166  1  0  -0.194064  0  3.021173  0  0  -0.163799  0  3.296836  0  0  -0.172087  0  3.309367  0  0  -0.20655  -0.158623  0  3.289065  0
N  N53  1  0.73063665  0.96020912  0.42607044  1  0  -0.194022  0  3.022852  0  0  -0.164005  0  3.298726  0  0  -0.172311  0  3.311252  0  0  -0.206257  -0.158436  0  3.289845  0
N  N54  1  0.22989736  0.96023432  0.92620124  1  0  -0.194034  0  3.021159  0  0  -0.163791  0  3.296779  0  0  -0.172082  0  3.309309  0  0  -0.206608  -0.158613  0  3.289009  0
N  N55  1  0.26936971  0.03979372  0.57392934  1  0  -0.194104  0  3.022826  0  0  -0.164063  0  3.298722  0  0  -0.172369  0  3.31125  0  0  -0.206252  -0.158499  0  3.289846  0
N  N56  1  0.73543342  0.87247847  0.97565968  1  0  -0.145116  0  3.538444  0  0  -0.063692  0  3.788509  0  0  -0.084946  0  3.810213  0  0  -0.123854  -0.049527  0  3.773371  0
N  N57  1  0.86325276  0.12753436  0.52419117  1  0  -0.144946  0  3.536945  0  0  -0.065162  0  3.788215  0  0  -0.086589  0  3.80995  0  0  -0.124282  -0.051247  0  3.773402  0
N  N58  1  0.26456480  0.12751722  0.02434187  1  0  -0.145138  0  3.538542  0  0  -0.063756  0  3.788593  0  0  -0.085011  0  3.810292  0  0  -0.123843  -0.049591  0  3.773447  0
N  N59  1  0.13674954  0.87246948  0.47581062  1  0  -0.145252  0  3.537058  0  0  -0.065306  0  3.788212  0  0  -0.086733  0  3.809945  0  0  -0.124345  -0.051392  0  3.773398  0
N  N60  1  0.72782114  0.75095967  0.93442947  1  0  -0.031996  0  2.907622  0  0  -0.039682  0  3.209857  0  0  -0.030587  0  3.210836  0  0  -0.032486  -0.046295  0  3.209594  0
N  N61  1  0.97705845  0.24906436  0.56543456  1  0  -0.031442  0  2.905034  0  0  -0.037974  0  3.207275  0  0  -0.028748  0  3.208073  0  0  -0.032491  -0.044957  0  3.207412  0
N  N62  1  0.27217760  0.24903705  0.06557078  1  0  -0.031994  0  2.907487  0  0  -0.039694  0  3.209724  0  0  -0.030596  0  3.210696  0  0  -0.032536  -0.046303  0  3.209445  0
N  N63  1  0.02294335  0.75094152  0.43456795  1  0  -0.031376  0  2.904712  0  0  -0.037955  0  3.206979  0  0  -0.028729  0  3.207777  0  0  -0.032463  -0.044935  0  3.207115  0
N  N64  1  0.74349100  0.66893096  0.99180451  1  0  0.003979  0  3.019155  0  0  -0.001497  0  3.324531  0  0  0.009822  0  3.326645  0  0  -0.023335  -0.009283  0  3.323425  0
N  N65  1  0.07472140  0.33113638  0.50808379  1  0  0.004943  0  3.01662  0  0  -0.001509  0  3.323119  0  0  0.010034  0  3.325045  0  0  -0.023248  -0.009247  0  3.322103  0
N  N66  1  0.25650928  0.33106581  0.00819245  1  0  0.004029  0  3.019044  0  0  -0.001411  0  3.324369  0  0  0.009913  0  3.326479  0  0  -0.023279  -0.009198  0  3.323256  0
N  N67  1  0.92527531  0.66886847  0.49191870  1  0  0.005218  0  3.016121  0  0  -0.00133  0  3.322738  0  0  0.010214  0  3.324665  0  0  -0.023128  -0.009073  0  3.321726  0
N  N68  1  0.73779089  0.54596906  0.95864444  1  0  -0.118956  0  3.54253  0  0  -0.037811  0  3.78753  0  0  -0.059109  0  3.810035  0  0  -0.117631  -0.023807  0  3.772014  0
N  N69  1  0.19190088  0.45408757  0.54129503  1  0  -0.120356  0  3.542285  0  0  -0.039124  0  3.787838  0  0  -0.060614  0  3.810396  0  0  -0.1177  -0.02505  0  3.772253  0
N  N70  1  0.26221041  0.45402670  0.04135116  1  0  -0.119127  0  3.542591  0  0  -0.037999  0  3.787632  0  0  -0.059301  0  3.810131  0  0  -0.117658  -0.023997  0  3.772121  0
N  N71  1  0.80809484  0.54591834  0.45870484  1  0  -0.12064  0  3.542176  0  0  -0.039296  0  3.78768  0  0  -0.06079  0  3.81024  0  0  -0.117794  -0.02522  0  3.772093  0
N  N72  1  0.74434585  0.33491903  0.96540977  1  0  -0.402283  0  3.062086  0  0  -0.364622  0  3.357555  0  0  -0.383516  0  3.370845  0  0  -0.266  -0.353969  0  3.348147  0
N  N73  1  0.40938614  0.66519024  0.53458285  1  0  -0.404393  0  3.061795  0  0  -0.367368  0  3.357571  0  0  -0.386193  0  3.370785  0  0  -0.266542  -0.354485  0  3.348196  0
N  N74  1  0.25565950  0.66507568  0.03458778  1  0  -0.40235  0  3.062295  0  0  -0.364675  0  3.357776  0  0  -0.383569  0  3.371063  0  0  -0.266077  -0.354031  0  3.348389  0
N  N75  1  0.59060908  0.33481467  0.46541501  1  0  -0.404413  0  3.061787  0  0  -0.367305  0  3.357515  0  0  -0.386133  0  3.370736  0  0  -0.26655  -0.354431  0  3.348141  0
N  N76  1  0.72731785  0.36460534  0.87737349  1  0  -0.249768  0  3.034136  0  0  -0.222984  0  3.330767  0  0  -0.230875  0  3.344144  0  0  -0.284111  -0.217147  0  3.321391  0
N  N77  1  0.36264875  0.63548257  0.62260839  1  0  -0.24928  0  3.03184  0  0  -0.222261  0  3.328614  0  0  -0.230291  0  3.342093  0  0  -0.284025  -0.216715  0  3.319216  0
N  N78  1  0.27268191  0.63539038  0.12262541  1  0  -0.249987  0  3.034486  0  0  -0.223209  0  3.331109  0  0  -0.231097  0  3.344461  0  0  -0.284168  -0.217373  0  3.32174  0
N  N79  1  0.63734952  0.36452234  0.37738947  1  0  -0.249299  0  3.031853  0  0  -0.222315  0  3.32864  0  0  -0.230345  0  3.342114  0  0  -0.284021  -0.216766  0  3.319235  0
O  O80  1  0.70555832  0.98853433  0.84560688  1  0  -0.660092  0  1.962507  0  0  -0.616341  0  2.20922  0  0  -0.638264  0  2.198428  0  0  -0.393946  -0.601235  0  2.214976  0
O  O81  1  0.71695498  0.01158784  0.65420743  1  0  -0.660347  0  1.962121  0  0  -0.616731  0  2.207952  0  0  -0.638561  0  2.197149  0  0  -0.394009  -0.60163  0  2.214874  0
O  O82  1  0.29444192  0.01146235  0.15439668  1  0  -0.660029  0  1.962481  0  0  -0.616277  0  2.209153  0  0  -0.638201  0  2.198364  0  0  -0.393852  -0.601169  0  2.214906  0
O  O83  1  0.28304732  0.98841600  0.34579436  1  0  -0.660279  0  1.962086  0  0  -0.616653  0  2.207932  0  0  -0.638481  0  2.197129  0  0  -0.393958  -0.601551  0  2.214851  0
O  O84  1  0.76240399  0.45997111  0.10038707  1  0  -0.619986  0  2.021507  0  0  -0.56203  0  2.256748  0  0  -0.589103  0  2.250739  0  0  -0.299717  -0.543026  0  2.259858  0
O  O85  1  0.30234381  0.54012890  0.39959268  1  0  -0.620286  0  2.021083  0  0  -0.561897  0  2.255538  0  0  -0.589103  0  2.249777  0  0  -0.30001  -0.542829  0  2.258774  0
O  O86  1  0.23759074  0.54002675  0.89960463  1  0  -0.620027  0  2.021286  0  0  -0.562055  0  2.256511  0  0  -0.589133  0  2.250506  0  0  -0.29976  -0.543047  0  2.259619  0
O  O87  1  0.69764683  0.45987598  0.60040716  1  0  -0.620352  0  2.021079  0  0  -0.561955  0  2.255588  0  0  -0.589159  0  2.249823  0  0  -0.300057  -0.542895  0  2.258822  0
O  O88  1  0.22238262  0.75114428  0.80174223  1  0  -0.870227  0  1.837978  0  0  -0.80948  0  2.009402  0  0  -0.828947  0  1.976644  0  0  -0.628434  -0.795219  0  2.031873  0
O  O89  1  0.47110564  0.24890883  0.69828548  1  0  -0.870088  0  1.838568  0  0  -0.809039  0  2.010292  0  0  -0.828641  0  1.977566  0  0  -0.62872  -0.795102  0  2.032828  0
O  O90  1  0.77761765  0.24885550  0.19825812  1  0  -0.870284  0  1.837928  0  0  -0.809507  0  2.009361  0  0  -0.828974  0  1.976601  0  0  -0.628424  -0.795247  0  2.031834  0
O  O91  1  0.52890072  0.75109401  0.30171496  1  0  -0.870075  0  1.838629  0  0  -0.80902  0  2.010328  0  0  -0.828624  0  1.977604  0  0  -0.628728  -0.795082  0  2.032862  0
O  O92  1  0.84559439  0.70431968  0.70730690  1  0  -0.899387  0  1.783211  0  0  -0.853955  0  1.95659  0  0  -0.87164  0  1.923407  0  0  -0.659911  -0.841347  0  1.980003  0
O  O93  1  0.14124898  0.29570678  0.79260631  1  0  -0.900684  0  1.781429  0  0  -0.85521  0  1.954927  0  0  -0.872884  0  1.921717  0  0  -0.660803  -0.842661  0  1.978164  0
O  O94  1  0.15440385  0.29568213  0.29269483  1  0  -0.899462  0  1.783079  0  0  -0.854012  0  1.956514  0  0  -0.871688  0  1.923325  0  0  -0.659948  -0.84141  0  1.979917  0
O  O95  1  0.85874874  0.70428790  0.20739389  1  0  -0.900582  0  1.781506  0  0  -0.855101  0  1.955016  0  0  -0.872775  0  1.921812  0  0  -0.660758  -0.842561  0  1.978245  0
