# generated using pymatgen
data_ZnH8C21N(O3F)2
_symmetry_space_group_name_H-M   'P 1'
_cell_length_a   10.97854332
_cell_length_b   14.84453550
_cell_length_c   16.18092008
_cell_angle_alpha   89.23335504
_cell_angle_beta   89.16518800
_cell_angle_gamma   89.56430716
_symmetry_Int_Tables_number   1
_chemical_formula_structural   ZnH8C21N(O3F)2
_chemical_formula_sum   'Zn2 H16 C42 N2 O12 F4'
_cell_volume   2636.43847513
_cell_formula_units_Z   2
loop_
 _symmetry_equiv_pos_site_id
 _symmetry_equiv_pos_as_xyz
  1  'x, y, z'
loop_
 _atom_site_type_symbol
 _atom_site_label
 _atom_site_symmetry_multiplicity
 _atom_site_fract_x
 _atom_site_fract_y
 _atom_site_fract_z
 _atom_site_occupancy
 _atom_site_pbe_bader_charge
 _atom_site_pbe_bader_spin_density
 _atom_site_pbe_cm5_charge
 _atom_site_pbe_ddec_charge
 _atom_site_pbe_ddec_spin_density
 _atom_site_pbe_ddec_sum_bond_order
 _atom_site_pbe_magmom
Zn  Zn0  1  0.49744273  0.59527177  0.49821233  1  1.324023  0  0.687713  0.893781  0  2.420255  0
Zn  Zn1  1  0.50251796  0.40473307  0.50178597  1  1.311452  0  0.687768  0.893723  0  2.420415  0
H  H2  1  0.32462579  0.91369853  0.56089010  1  0.138556  0  0.142407  0.169274  0  0.936348  0
H  H3  1  0.67537028  0.08631093  0.43912030  1  0.138513  0  0.142404  0.169286  0  0.936482  0
H  H4  1  0.32373451  0.34223887  0.24033793  1  0.124756  0  0.105678  0.108547  0  1.014604  0
H  H5  1  0.67624611  0.65777131  0.75966823  1  0.125284  0  0.105593  0.108432  0  1.014709  0
H  H6  1  0.20568443  0.45699396  0.31789487  1  0.067409  0  0.111747  0.116514  0  0.973933  0
H  H7  1  0.79427624  0.54301628  0.68210091  1  0.067312  0  0.111742  0.116461  0  0.974172  0
H  H8  1  0.19303724  0.13657979  0.41041881  1  0.088627  0  0.108214  0.131877  0  1.000198  0
H  H9  1  0.80695058  0.86343575  0.58959158  1  0.088491  0  0.108228  0.131854  0  1.000228  0
H  H10  1  0.88831315  0.37658256  0.43388780  1  0.102067  0  0.107927  0.118724  0  0.992349  0
H  H11  1  0.11165118  0.62342836  0.56610486  1  0.101939  0  0.107981  0.118774  0  0.99239  0
H  H12  1  0.57323816  0.63646542  0.92328740  1  0.078555  0  0.107682  0.113435  0  0.992764  0
H  H13  1  0.42724225  0.36348753  0.07669785  1  0.07664  0  0.107695  0.113466  0  0.992318  0
H  H14  1  0.57104415  0.63309129  0.07743267  1  0.083916  0  0.111392  0.115485  0  0.980549  0
H  H15  1  0.42947013  0.36684546  0.92254758  1  0.08209  0  0.111623  0.11578  0  0.980225  0
H  H16  1  0.43760327  0.13536705  0.18589922  1  0.623295  0  0.345496  0.380842  0  0.854686  0
H  H17  1  0.56241992  0.86465648  0.81412263  1  0.622408  0  0.345457  0.380919  0  0.85441  0
C  C18  1  0.49631364  0.49937286  0.66103948  1  1.701971  0  0.216612  0.662234  0  4.253608  0
C  C19  1  0.50375646  0.50062376  0.33895331  1  1.702873  0  0.216339  0.661816  0  4.25404  0
C  C20  1  0.87260347  0.49653227  0.50526250  1  0.019763  0  -0.005237  -0.049866  0  3.914919  0
C  C21  1  0.12736087  0.50347865  0.49472891  1  0.018953  0  -0.005138  -0.049541  0  3.913981  0
C  C22  1  0.93432464  0.56750226  0.54345981  1  0.010043  0  0.001894  0.064533  0  3.974998  0
C  C23  1  0.06563422  0.43251069  0.45653285  1  0.009985  0  0.00149  0.064079  0  3.974914  0
C  C24  1  0.54024615  0.57519476  0.04291136  1  0.076414  0  -0.077212  -0.117228  0  3.955208  0
C  C25  1  0.46027261  0.42474939  0.95707066  1  0.07818  0  -0.076998  -0.117034  0  3.954872  0
C  C26  1  0.49904373  0.49828059  0.08703870  1  0.100327  0  0.002794  0.132681  0  4.111261  0
C  C27  1  0.50140941  0.50167512  0.91293741  1  0.108072  0  0.002539  0.132633  0  4.111969  0
C  C28  1  0.45902250  0.42299739  0.04277229  1  -0.107667  0  -0.079285  -0.121962  0  3.958351  0
C  C29  1  0.54148344  0.57694743  0.95721660  1  -0.118213  0  -0.078936  -0.121678  0  3.958348  0
C  C30  1  0.49911141  0.49740361  0.17446754  1  -0.574942  0  -0.033021  -0.058589  0  4.102567  0
C  C31  1  0.50124303  0.50257779  0.82552312  1  -0.350592  0  -0.033167  -0.058626  0  4.103955  0
C  C32  1  0.49899321  0.50092623  0.75027502  1  -0.022678  0  -0.043502  -0.176193  0  3.963885  0
C  C33  1  0.50125188  0.49906342  0.24971311  1  0.201473  0  -0.043581  -0.1759  0  3.963337  0
C  C34  1  0.40097002  0.95104744  0.53435915  1  0.176746  0  -0.053269  -0.178643  0  3.89208  0
C  C35  1  0.59902604  0.04896269  0.46565187  1  0.177072  0  -0.053338  -0.178853  0  3.892594  0
C  C36  1  0.50321085  0.90610547  0.50125857  1  0.164701  0  0.02498  -0.010857  0  4.07587  0
C  C37  1  0.49678612  0.09390467  0.49875245  1  0.164576  0  0.025029  -0.010664  0  4.075788  0
C  C38  1  0.60076322  0.95585233  0.46741201  1  0.477182  0  0.131863  0.271396  0  4.032975  0
C  C39  1  0.39923464  0.04415847  0.53260084  1  0.477108  0  0.131837  0.271242  0  4.03295  0
C  C40  1  0.26381793  0.50736277  0.49685784  1  1.557067  0  0.216297  0.59738  0  4.175571  0
C  C41  1  0.73614549  0.49264072  0.50314107  1  1.555145  0  0.216258  0.59735  0  4.176035  0
C  C42  1  0.50773871  0.81074123  0.50137465  1  0.868948  0  0.252204  0.321372  0  3.908471  0
C  C43  1  0.49225008  0.18926892  0.49863456  1  0.868748  0  0.252233  0.321341  0  3.908159  0
C  C44  1  0.26749079  0.32198238  0.29321342  1  -0.025121  0  -0.083245  -0.089948  0  3.962596  0
C  C45  1  0.73249168  0.67802578  0.70679090  1  -0.025949  0  -0.083146  -0.089842  0  3.962357  0
C  C46  1  0.20145346  0.38633826  0.33708466  1  0.036314  0  -0.078339  -0.095373  0  3.95437  0
C  C47  1  0.79851451  0.61366927  0.66291233  1  0.03632  0  -0.078334  -0.095286  0  3.954371  0
C  C48  1  0.13149618  0.36329833  0.40747181  1  0.00593  0  0.001388  -0.006334  0  3.983089  0
C  C49  1  0.86846994  0.63671257  0.59252454  1  0.005941  0  0.00124  -0.006395  0  3.982981  0
C  C50  1  0.12810356  0.27184157  0.42993401  1  0.436059  0  0.099519  0.247536  0  4.033003  0
C  C51  1  0.87186531  0.72816798  0.57006234  1  0.436656  0  0.099581  0.247534  0  4.032975  0
C  C52  1  0.19500773  0.20641893  0.38898915  1  0.064908  0  -0.098026  -0.230522  0  4.00262  0
C  C53  1  0.80497652  0.79359326  0.61101635  1  0.06495  0  -0.097969  -0.230379  0  4.002721  0
C  C54  1  0.26635697  0.23175883  0.32002706  1  -0.015972  0  -0.022085  -0.027963  0  4.015465  0
C  C55  1  0.73362817  0.76825471  0.67997966  1  -0.015594  0  -0.022398  -0.028444  0  4.016023  0
C  C56  1  0.93869938  0.43008491  0.46326530  1  -0.024422  0  -0.077594  -0.134231  0  3.942054  0
C  C57  1  0.06126041  0.56992872  0.53672427  1  -0.023259  0  -0.078037  -0.134793  0  3.9424  0
C  C58  1  0.34403203  0.16176632  0.28121436  1  1.444142  0  0.226127  0.57703  0  4.122298  0
C  C59  1  0.65597127  0.83824852  0.71879781  1  1.44448  0  0.226172  0.57737  0  4.12261  0
N  N60  1  0.49108156  0.26736267  0.49900075  1  -1.117523  0  -0.257236  -0.262149  0  3.075782  0
N  N61  1  0.50889268  0.73264548  0.50100733  1  -1.11775  0  -0.257196  -0.262193  0  3.075935  0
O  O62  1  0.49056866  0.57587104  0.62456547  1  -1.14138  0  -0.314127  -0.550915  0  2.276588  0
O  O63  1  0.50943940  0.42412901  0.37543630  1  -1.141463  0  -0.313978  -0.550783  0  2.276887  0
O  O64  1  0.50069576  0.42206493  0.62799437  1  -1.124082  0  -0.315327  -0.542858  0  2.250181  0
O  O65  1  0.49929878  0.57793046  0.37199516  1  -1.124423  0  -0.315202  -0.542732  0  2.250195  0
O  O66  1  0.31168229  0.58515251  0.49604965  1  -1.154667  0  -0.317601  -0.543781  0  2.294531  0
O  O67  1  0.68829021  0.41484757  0.50395666  1  -1.153384  0  -0.317686  -0.543811  0  2.2946  0
O  O68  1  0.31999686  0.43222003  0.50108900  1  -1.162344  0  -0.30929  -0.549354  0  2.361334  0
O  O69  1  0.67995839  0.56778078  0.49890875  1  -1.162085  0  -0.309251  -0.549274  0  2.361343  0
O  O70  1  0.37130453  0.08926219  0.31371505  1  -1.148894  0  -0.316633  -0.525865  0  2.073873  0
O  O71  1  0.38587630  0.18556854  0.20414126  1  -1.116473  0  -0.338696  -0.484416  0  2.210404  0
O  O72  1  0.62870508  0.91075599  0.68630199  1  -1.149081  0  -0.316439  -0.525727  0  2.074216  0
O  O73  1  0.61413334  0.81444695  0.79587519  1  -1.115996  0  -0.338747  -0.484684  0  2.210015  0
F  F74  1  0.05983435  0.24598076  0.49724218  1  -0.634244  0  -0.111081  -0.152694  0  1.311129  0
F  F75  1  0.94013174  0.75402878  0.50275975  1  -0.634578  0  -0.110996  -0.152621  0  1.311187  0
F  F76  1  0.30207362  0.08870587  0.56390053  1  -0.616958  0  -0.070916  -0.112847  0  1.338315  0
F  F77  1  0.69792696  0.91130627  0.43611291  1  -0.616648  0  -0.070886  -0.11285  0  1.337966  0
