# generated using pymatgen
data_LuH13C12N3O8
_symmetry_space_group_name_H-M   'P 1'
_cell_length_a   10.08124412
_cell_length_b   10.23389912
_cell_length_c   10.61801431
_cell_angle_alpha   103.22274461
_cell_angle_beta   115.49999426
_cell_angle_gamma   92.78741703
_symmetry_Int_Tables_number   1
_chemical_formula_structural   LuH13C12N3O8
_chemical_formula_sum   'Lu2 H26 C24 N6 O16'
_cell_volume   948.95166806
_cell_formula_units_Z   2
loop_
 _symmetry_equiv_pos_site_id
 _symmetry_equiv_pos_as_xyz
  1  'x, y, z'
loop_
 _atom_site_type_symbol
 _atom_site_label
 _atom_site_symmetry_multiplicity
 _atom_site_fract_x
 _atom_site_fract_y
 _atom_site_fract_z
 _atom_site_occupancy
 _atom_site_hle17_bader_spin_density
 _atom_site_hle17_ddec_charge
 _atom_site_hle17_ddec_spin_density
 _atom_site_hle17_ddec_sum_bond_order
 _atom_site_hle17_magmom
 _atom_site_hse06_10hf_bader_spin_density
 _atom_site_hse06_10hf_ddec_charge
 _atom_site_hse06_10hf_ddec_spin_density
 _atom_site_hse06_10hf_ddec_sum_bond_order
 _atom_site_hse06_10hf_magmom
 _atom_site_hse06_bader_spin_density
 _atom_site_hse06_ddec_charge
 _atom_site_hse06_ddec_spin_density
 _atom_site_hse06_ddec_sum_bond_order
 _atom_site_hse06_magmom
 _atom_site_pbe_bader_spin_density
 _atom_site_pbe_cm5_charge
 _atom_site_pbe_ddec_charge
 _atom_site_pbe_ddec_spin_density
 _atom_site_pbe_ddec_sum_bond_order
 _atom_site_pbe_magmom
Lu  Lu0  1  0.46914695  0.23585642  0.01445920  1  0  1.797086  0  2.302901  0  0  1.635319  0  2.780375  0  0  1.694391  0  2.727454  0  0  1.328313  1.593962  0  2.816433  0
Lu  Lu1  1  0.53085769  0.76414411  0.98553688  1  0  1.797349  0  2.302521  0  0  1.635417  0  2.780217  0  0  1.694525  0  2.727264  0  0  1.328368  1.594035  0  2.816301  0
H  H2  1  0.41224347  0.42922403  0.83922334  1  0  0.447923  0  0.844939  0  0  0.412969  0  0.913535  0  0  0.424361  0  0.897161  0  0  0.311091  0.405043  0  0.924904  0
H  H3  1  0.58775384  0.57077242  0.16076977  1  0  0.44786  0  0.845026  0  0  0.412935  0  0.913577  0  0  0.424303  0  0.897239  0  0  0.311077  0.405001  0  0.924961  0
H  H4  1  0.37426463  0.27754998  0.74129702  1  0  0.432746  0  0.804764  0  0  0.417743  0  0.853029  0  0  0.426287  0  0.84373  0  0  0.338003  0.411424  0  0.860145  0
H  H5  1  0.62573725  0.72244749  0.25870101  1  0  0.432806  0  0.804665  0  0  0.417804  0  0.852927  0  0  0.426338  0  0.843639  0  0  0.338015  0.411481  0  0.860031  0
H  H6  1  0.26974642  0.00601800  0.74656925  1  0  0.448584  0  0.788183  0  0  0.43025  0  0.842219  0  0  0.439423  0  0.831815  0  0  0.340447  0.424173  0  0.848772  0
H  H7  1  0.73024301  0.99398352  0.25342175  1  0  0.448581  0  0.788233  0  0  0.430241  0  0.842283  0  0  0.439409  0  0.83188  0  0  0.340405  0.424161  0  0.848831  0
H  H8  1  0.43902682  0.98583050  0.81319056  1  0  0.433245  0  0.865336  0  0  0.397149  0  0.937143  0  0  0.409279  0  0.919224  0  0  0.308097  0.3886  0  0.949797  0
H  H9  1  0.56096311  0.01416183  0.18681555  1  0  0.433217  0  0.865313  0  0  0.397099  0  0.937183  0  0  0.409229  0  0.919264  0  0  0.308043  0.388553  0  0.949829  0
H  H10  1  0.22223696  0.17297113  0.17415976  1  0  0.11876  0  0.93812  0  0  0.130214  0  0.994062  0  0  0.134043  0  0.991542  0  0  0.112344  0.127256  0  0.996466  0
H  H11  1  0.77775701  0.82702528  0.82584515  1  0  0.118856  0  0.938017  0  0  0.13029  0  0.993977  0  0  0.134121  0  0.991457  0  0  0.112374  0.127336  0  0.99638  0
H  H12  1  0.26773251  0.59623687  0.15474829  1  0  0.126035  0  0.936576  0  0  0.133573  0  0.999397  0  0  0.138356  0  0.995096  0  0  0.110648  0.130026  0  1.002625  0
H  H13  1  0.73228388  0.40377997  0.84525623  1  0  0.125966  0  0.936666  0  0  0.133557  0  0.999408  0  0  0.138362  0  0.995098  0  0  0.11059  0.130024  0  1.002639  0
H  H14  1  0.89098886  0.58936803  0.28527890  1  0  0.112271  0  0.966685  0  0  0.117838  0  1.036257  0  0  0.121397  0  1.03416  0  0  0.101439  0.114862  0  1.038805  0
H  H15  1  0.10900621  0.41062838  0.71472741  1  0  0.112268  0  0.966798  0  0  0.117832  0  1.036355  0  0  0.121457  0  1.034178  0  0  0.101463  0.114856  0  1.038891  0
H  H16  1  0.93912139  0.68515720  0.77418475  1  0  0.3136  0  0.886842  0  0  0.309406  0  0.933664  0  0  0.313842  0  0.932139  0  0  0.307249  0.306769  0  0.93388  0
H  H17  1  0.06086772  0.31485454  0.22579614  1  0  0.31349  0  0.886869  0  0  0.309295  0  0.93371  0  0  0.31373  0  0.932191  0  0  0.307168  0.306658  0  0.933926  0
H  H18  1  0.12875550  0.73272866  0.86078253  1  0  0.318982  0  0.934053  0  0  0.29951  0  1.004785  0  0  0.305702  0  1.000357  0  0  0.296197  0.294922  0  1.0084  0
H  H19  1  0.87121876  0.26727389  0.13918929  1  0  0.318988  0  0.933829  0  0  0.299435  0  1.004679  0  0  0.305638  0  1.000247  0  0  0.296183  0.294845  0  1.008298  0
H  H20  1  0.81759738  0.18349836  0.79641798  1  0  0.304264  0  0.890161  0  0  0.299762  0  0.935791  0  0  0.304201  0  0.933496  0  0  0.304796  0.296337  0  0.937853  0
H  H21  1  0.18242231  0.81651238  0.20358277  1  0  0.30423  0  0.890226  0  0  0.299775  0  0.935773  0  0  0.304209  0  0.933484  0  0  0.304767  0.296347  0  0.937832  0
H  H22  1  0.99729345  0.17872863  0.82621682  1  0  0.317968  0  0.917655  0  0  0.303313  0  0.97907  0  0  0.309829  0  0.973977  0  0  0.295351  0.298972  0  0.981977  0
H  H23  1  0.00272292  0.82128819  0.17379710  1  0  0.318049  0  0.917409  0  0  0.303336  0  0.978921  0  0  0.309858  0  0.973821  0  0  0.295322  0.299  0  0.981825  0
H  H24  1  0.73752154  0.24202412  0.44027983  1  0  0.315775  0  0.938714  0  0  0.300083  0  1.000492  0  0  0.307616  0  0.994019  0  0  0.289534  0.294502  0  1.005484  0
H  H25  1  0.26247335  0.75797128  0.55972430  1  0  0.31568  0  0.938858  0  0  0.300077  0  1.0005  0  0  0.307617  0  0.994015  0  0  0.289537  0.294496  0  1.0055  0
H  H26  1  0.87543109  0.25773290  0.61626877  1  0  0.299858  0  0.970493  0  0  0.281319  0  1.041986  0  0  0.288332  0  1.037291  0  0  0.274632  0.276512  0  1.044786  0
H  H27  1  0.12457094  0.74226556  0.38374367  1  0  0.299924  0  0.970589  0  0  0.281352  0  1.042105  0  0  0.288373  0  1.037406  0  0  0.274662  0.276539  0  1.04491  0
C  C28  1  0.10975907  0.42351911  0.99538856  1  0  -0.148927  0  3.754966  0  0  -0.13591  0  4.004858  0  0  -0.143754  0  4.024852  0  0  -0.024824  -0.131137  0  3.99221  0
C  C29  1  0.89024776  0.57648751  0.00461919  1  0  -0.14905  0  3.754865  0  0  -0.136065  0  4.004766  0  0  -0.143927  0  4.024798  0  0  -0.024922  -0.131312  0  3.992155  0
C  C30  1  0.71286263  0.37830142  0.26022008  1  0  0.646754  0  3.846939  0  0  0.596061  0  4.135221  0  0  0.632618  0  4.124487  0  0  0.199274  0.571169  0  4.142338  0
C  C31  1  0.28713007  0.62168789  0.73977332  1  0  0.646851  0  3.846962  0  0  0.596147  0  4.135262  0  0  0.632714  0  4.124515  0  0  0.199374  0.571266  0  4.142371  0
C  C32  1  0.29540985  0.96544840  0.03423402  1  0  0.697228  0  3.81896  0  0  0.638642  0  4.117502  0  0  0.676841  0  4.104103  0  0  0.234003  0.613007  0  4.125225  0
C  C33  1  0.70456545  0.03454800  0.96575570  1  0  0.69712  0  3.818456  0  0  0.638421  0  4.117102  0  0  0.676667  0  4.103677  0  0  0.23384  0.612768  0  4.124875  0
C  C34  1  0.12344334  0.09728198  0.09826094  1  0  -0.181503  0  3.718529  0  0  -0.213216  0  3.980314  0  0  -0.214796  0  3.997546  0  0  -0.09991  -0.21185  0  3.968397  0
C  C35  1  0.87655705  0.90270734  0.90173562  1  0  -0.181806  0  3.718318  0  0  -0.21342  0  3.980127  0  0  -0.215014  0  3.997377  0  0  -0.09997  -0.21207  0  3.96823  0
C  C36  1  0.14234326  0.97971009  0.01379292  1  0  -0.171969  0  3.745389  0  0  -0.159148  0  3.999875  0  0  -0.16721  0  4.018298  0  0  -0.029328  -0.153211  0  3.985879  0
C  C37  1  0.85764853  0.02028024  0.98619845  1  0  -0.171771  0  3.744953  0  0  -0.158963  0  3.999393  0  0  -0.167044  0  4.017817  0  0  -0.029238  -0.153063  0  3.985451  0
C  C38  1  0.95753165  0.36491700  0.90454121  1  0  0.274337  0  3.822366  0  0  0.260151  0  4.085236  0  0  0.268276  0  4.106286  0  0  0.090615  0.254039  0  4.071712  0
C  C39  1  0.04248105  0.63509168  0.09546752  1  0  0.274314  0  3.822149  0  0  0.260135  0  4.085014  0  0  0.26825  0  4.10608  0  0  0.090551  0.254015  0  4.071492  0
C  C40  1  0.85836717  0.43951902  0.38553299  1  0  -0.164919  0  3.763115  0  0  -0.150621  0  4.00903  0  0  -0.159682  0  4.029534  0  0  -0.032712  -0.144574  0  3.995162  0
C  C41  1  0.14163213  0.56047640  0.61446729  1  0  -0.164924  0  3.763308  0  0  -0.150697  0  4.00922  0  0  -0.159751  0  4.029728  0  0  -0.032693  -0.144643  0  3.995343  0
C  C42  1  0.14917771  0.55578980  0.08809143  1  0  -0.162106  0  3.690901  0  0  -0.194776  0  3.952918  0  0  -0.195601  0  3.968828  0  0  -0.092365  -0.193347  0  3.941785  0
C  C43  1  0.85083682  0.44421684  0.91191665  1  0  -0.162017  0  3.69088  0  0  -0.194693  0  3.95284  0  0  -0.195545  0  3.968775  0  0  -0.092272  -0.193283  0  3.941728  0
C  C44  1  0.01602584  0.87777495  0.91217194  1  0  0.291463  0  3.847547  0  0  0.278382  0  4.110326  0  0  0.288144  0  4.130585  0  0  0.092919  0.271956  0  4.095992  0
C  C45  1  0.98397567  0.12222048  0.08782267  1  0  0.291223  0  3.847562  0  0  0.278278  0  4.110158  0  0  0.288049  0  4.130405  0  0  0.092886  0.271847  0  4.095838  0
C  C46  1  0.94018888  0.55145712  0.38070772  1  0  -0.185421  0  3.70659  0  0  -0.212749  0  3.961474  0  0  -0.214467  0  3.97966  0  0  -0.105808  -0.212291  0  3.950378  0
C  C47  1  0.05981481  0.44853829  0.61929908  1  0  -0.185425  0  3.706828  0  0  -0.212769  0  3.961781  0  0  -0.214516  0  3.979913  0  0  -0.10588  -0.212276  0  3.950648  0
C  C48  1  0.91837933  0.38413294  0.50736097  1  0  0.298398  0  3.841793  0  0  0.285097  0  4.098939  0  0  0.294813  0  4.120264  0  0  0.091194  0.278868  0  4.084301  0
C  C49  1  0.08162655  0.61586248  0.49264861  1  0  0.298308  0  3.841841  0  0  0.285145  0  4.098819  0  0  0.294857  0  4.120144  0  0  0.091168  0.278908  0  4.0842  0
C  C50  1  0.23255763  0.34840074  0.00069008  1  0  0.640109  0  3.887737  0  0  0.590726  0  4.185061  0  0  0.625535  0  4.176515  0  0  0.192037  0.566704  0  4.191905  0
C  C51  1  0.76744773  0.65160995  0.99931985  1  0  0.640001  0  3.887686  0  0  0.590661  0  4.184937  0  0  0.625463  0  4.176387  0  0  0.19198  0.566636  0  4.191788  0
N  N52  1  0.02724949  0.76220122  0.82362330  1  0  -0.660475  0  3.121484  0  0  -0.635174  0  3.353373  0  0  -0.65572  0  3.357675  0  0  -0.600331  -0.620297  0  3.349562  0
N  N53  1  0.97273739  0.23780438  0.17636568  1  0  -0.660387  0  3.121122  0  0  -0.635051  0  3.353066  0  0  -0.655618  0  3.357379  0  0  -0.600294  -0.620183  0  3.349265  0
N  N54  1  0.91296367  0.23459290  0.80806179  1  0  -0.650503  0  3.111549  0  0  -0.6135  0  3.330684  0  0  -0.63159  0  3.331984  0  0  -0.590215  -0.600736  0  3.329656  0
N  N55  1  0.08705508  0.76541883  0.19195010  1  0  -0.650503  0  3.111117  0  0  -0.613477  0  3.330213  0  0  -0.631571  0  3.331529  0  0  -0.590087  -0.600716  0  3.329177  0
N  N56  1  0.84625745  0.27130576  0.51539112  1  0  -0.672434  0  3.130937  0  0  -0.64254  0  3.362356  0  0  -0.663617  0  3.36221  0  0  -0.610869  -0.62702  0  3.360906  0
N  N57  1  0.15374166  0.72868863  0.48461357  1  0  -0.672348  0  3.131286  0  0  -0.642526  0  3.362579  0  0  -0.663612  0  3.36242  0  0  -0.610855  -0.627014  0  3.361148  0
O  O58  1  0.36316505  0.39243048  0.10755613  1  0  -0.641407  0  1.982853  0  0  -0.589564  0  2.21584  0  0  -0.614523  0  2.206065  0  0  -0.386687  -0.572816  0  2.222919  0
O  O59  1  0.63684046  0.60756290  0.89245378  1  0  -0.641449  0  1.982849  0  0  -0.589499  0  2.215799  0  0  -0.614468  0  2.206014  0  0  -0.386656  -0.572752  0  2.222882  0
O  O60  1  0.66024129  0.42710340  0.14868735  1  0  -0.67493  0  1.998957  0  0  -0.607792  0  2.224467  0  0  -0.634705  0  2.214661  0  0  -0.364057  -0.589011  0  2.231163  0
O  O61  1  0.33976425  0.57289610  0.85131358  1  0  -0.675056  0  1.998936  0  0  -0.607917  0  2.22448  0  0  -0.634798  0  2.214637  0  0  -0.364103  -0.589102  0  2.231158  0
O  O62  1  0.39614627  0.07334296  0.09198356  1  0  -0.704609  0  2.113717  0  0  -0.632588  0  2.357714  0  0  -0.660983  0  2.344652  0  0  -0.383695  -0.612112  0  2.365896  0
O  O63  1  0.60384388  0.92663823  0.90799569  1  0  -0.704705  0  2.113628  0  0  -0.632483  0  2.357611  0  0  -0.660933  0  2.344567  0  0  -0.383582  -0.611995  0  2.365807  0
O  O64  1  0.21213809  0.23976586  0.90002498  1  0  -0.67187  0  1.978416  0  0  -0.616302  0  2.209011  0  0  -0.641888  0  2.200208  0  0  -0.373246  -0.599094  0  2.214887  0
O  O65  1  0.78787445  0.76025401  0.09998428  1  0  -0.671798  0  1.978287  0  0  -0.616266  0  2.20884  0  0  -0.641833  0  2.200026  0  0  -0.373212  -0.599035  0  2.2147  0
O  O66  1  0.44512792  0.33779042  0.83516621  1  0  -0.815512  0  1.871101  0  0  -0.76426  0  2.061244  0  0  -0.784881  0  2.033335  0  0  -0.60663  -0.749997  0  2.080766  0
O  O67  1  0.55487526  0.66220808  0.16482693  1  0  -0.815575  0  1.871097  0  0  -0.764302  0  2.06119  0  0  -0.784936  0  2.033332  0  0  -0.60663  -0.750026  0  2.080705  0
O  O68  1  0.32650720  0.84787322  0.99760194  1  0  -0.649384  0  2.048172  0  0  -0.58052  0  2.285809  0  0  -0.607092  0  2.275741  0  0  -0.351856  -0.561857  0  2.292348  0
O  O69  1  0.67348498  0.15213136  0.00239558  1  0  -0.649263  0  2.04803  0  0  -0.580388  0  2.285643  0  0  -0.606962  0  2.275575  0  0  -0.351816  -0.561701  0  2.292185  0
O  O70  1  0.63659827  0.27057017  0.25404356  1  0  -0.64004  0  2.01861  0  0  -0.58026  0  2.248217  0  0  -0.605166  0  2.237233  0  0  -0.365593  -0.5641  0  2.256314  0
O  O71  1  0.36339991  0.72941913  0.74595961  1  0  -0.640008  0  2.018549  0  0  -0.580309  0  2.248214  0  0  -0.605233  0  2.237228  0  0  -0.365718  -0.56416  0  2.256321  0
O  O72  1  0.37161110  0.05501587  0.79490543  1  0  -0.839194  0  1.865969  0  0  -0.788519  0  2.051178  0  0  -0.807536  0  2.020334  0  0  -0.599994  -0.775568  0  2.072231  0
O  O73  1  0.62838086  0.94497545  0.20509659  1  0  -0.839177  0  1.865968  0  0  -0.788476  0  2.051277  0  0  -0.80748  0  2.020435  0  0  -0.599907  -0.775524  0  2.072315  0
