# generated using pymatgen
data_Cu2H36C29S3(IN)2
_symmetry_space_group_name_H-M   'P 1'
_cell_length_a   10.61250639
_cell_length_b   13.06315474
_cell_length_c   14.11384839
_cell_angle_alpha   84.12880227
_cell_angle_beta   68.22894010
_cell_angle_gamma   73.64962365
_symmetry_Int_Tables_number   1
_chemical_formula_structural   Cu2H36C29S3(IN)2
_chemical_formula_sum   'Cu4 H72 C58 S6 I4 N4'
_cell_volume   1743.59055319
_cell_formula_units_Z   2
loop_
 _symmetry_equiv_pos_site_id
 _symmetry_equiv_pos_as_xyz
  1  'x, y, z'
loop_
 _atom_site_type_symbol
 _atom_site_label
 _atom_site_symmetry_multiplicity
 _atom_site_fract_x
 _atom_site_fract_y
 _atom_site_fract_z
 _atom_site_occupancy
 _atom_site_hle17_bader_spin_density
 _atom_site_hle17_ddec_charge
 _atom_site_hle17_ddec_spin_density
 _atom_site_hle17_ddec_sum_bond_order
 _atom_site_hle17_magmom
 _atom_site_hse06_10hf_bader_spin_density
 _atom_site_hse06_10hf_ddec_charge
 _atom_site_hse06_10hf_ddec_spin_density
 _atom_site_hse06_10hf_ddec_sum_bond_order
 _atom_site_hse06_10hf_magmom
 _atom_site_hse06_bader_spin_density
 _atom_site_hse06_ddec_charge
 _atom_site_hse06_ddec_spin_density
 _atom_site_hse06_ddec_sum_bond_order
 _atom_site_hse06_magmom
 _atom_site_pbe_bader_spin_density
 _atom_site_pbe_cm5_charge
 _atom_site_pbe_ddec_charge
 _atom_site_pbe_ddec_spin_density
 _atom_site_pbe_ddec_sum_bond_order
 _atom_site_pbe_magmom
Cu  Cu0  1  0.54691910  0.95389982  0.06941853  1  0  0.161249  0  2.366128  0  0  0.096469  0  2.854001  0  0  0.104921  0  2.803556  0  0  0.241154  0.092325  0  2.885985  0
Cu  Cu1  1  0.45308089  0.04609955  0.93058087  1  0  0.161257  0  2.36612  0  0  0.096469  0  2.853991  0  0  0.104896  0  2.803546  0  0  0.241154  0.092332  0  2.885975  0
Cu  Cu2  1  0.56409689  0.51248883  0.39843404  1  0  0.290874  0  2.329539  0  0  0.218211  0  2.836345  0  0  0.222696  0  2.784249  0  0  0.324847  0.217122  0  2.868896  0
Cu  Cu3  1  0.43590098  0.48751372  0.60156920  1  0  0.290932  0  2.329531  0  0  0.218286  0  2.836316  0  0  0.222761  0  2.784217  0  0  0.324866  0.217198  0  2.868862  0
H  H4  1  0.73515925  0.72363367  0.04959657  1  0  0.088968  0  0.946649  0  0  0.101163  0  1.010759  0  0  0.102641  0  1.009645  0  0  0.101253  0.099783  0  1.011871  0
H  H5  1  0.26484222  0.27636730  0.95040440  1  0  0.088976  0  0.946653  0  0  0.101194  0  1.010756  0  0  0.102672  0  1.00964  0  0  0.101254  0.099815  0  1.011868  0
H  H6  1  0.84618960  0.70217704  0.12444783  1  0  0.088926  0  0.932882  0  0  0.101369  0  0.995391  0  0  0.102421  0  0.99507  0  0  0.108107  0.10086  0  0.995188  0
H  H7  1  0.15380855  0.29782471  0.87555470  1  0  0.088897  0  0.932953  0  0  0.101353  0  0.99546  0  0  0.102404  0  0.995136  0  0  0.108114  0.100843  0  0.995257  0
H  H8  1  0.43428172  0.70465360  0.27033083  1  0  0.094467  0  0.958978  0  0  0.104563  0  1.0292  0  0  0.105881  0  1.028901  0  0  0.104894  0.103329  0  1.029727  0
H  H9  1  0.56571699  0.29534656  0.72966957  1  0  0.094525  0  0.958939  0  0  0.104609  0  1.029152  0  0  0.105932  0  1.028848  0  0  0.104908  0.103372  0  1.029685  0
H  H10  1  0.50951082  0.70176538  0.13261895  1  0  0.082983  0  0.940816  0  0  0.096068  0  1.004767  0  0  0.096826  0  1.004041  0  0  0.09997  0.095288  0  1.00564  0
H  H11  1  0.49048992  0.29823479  0.86738088  1  0  0.082965  0  0.940794  0  0  0.096034  0  1.004749  0  0  0.096792  0  1.004023  0  0  0.099963  0.095255  0  1.005621  0
H  H12  1  0.54267093  0.75802070  0.36503218  1  0  0.092137  0  0.968321  0  0  0.103133  0  1.035476  0  0  0.104126  0  1.036201  0  0  0.10007  0.102069  0  1.035305  0
H  H13  1  0.45732750  0.24198025  0.63496964  1  0  0.092197  0  0.96834  0  0  0.103126  0  1.035564  0  0  0.104161  0  1.036252  0  0  0.10006  0.102064  0  1.035392  0
H  H14  1  0.70941200  0.78827629  0.30284144  1  0  0.084893  0  0.956576  0  0  0.097041  0  1.023729  0  0  0.097085  0  1.024981  0  0  0.105319  0.096976  0  1.022964  0
H  H15  1  0.29058975  0.21172387  0.69715953  1  0  0.084853  0  0.956658  0  0  0.097013  0  1.023799  0  0  0.097056  0  1.025054  0  0  0.105298  0.096948  0  1.023036  0
H  H16  1  0.26302829  0.81922656  0.94140703  1  0  0.085564  0  0.997903  0  0  0.093849  0  1.069185  0  0  0.096862  0  1.068306  0  0  0.079134  0.093078  0  1.067495  0
H  H17  1  0.73697097  0.18077200  0.05859266  1  0  0.085573  0  0.99793  0  0  0.093865  0  1.069203  0  0  0.096879  0  1.068323  0  0  0.079136  0.093094  0  1.067514  0
H  H18  1  0.03714440  0.88063863  0.73488780  1  0  0.090847  0  0.957345  0  0  0.104079  0  1.017008  0  0  0.107076  0  1.015894  0  0  0.097306  0.101366  0  1.018636  0
H  H19  1  0.96285661  0.11936074  0.26511132  1  0  0.090851  0  0.957347  0  0  0.104068  0  1.017035  0  0  0.107062  0  1.01592  0  0  0.097307  0.101356  0  1.018661  0
H  H20  1  0.81141158  0.90814698  0.88314891  1  0  0.085597  0  0.995173  0  0  0.089621  0  1.073038  0  0  0.093308  0  1.069616  0  0  0.082652  0.087758  0  1.073866  0
H  H21  1  0.18858796  0.09185080  0.11685006  1  0  0.085578  0  0.995139  0  0  0.089596  0  1.073019  0  0  0.093285  0  1.069596  0  0  0.08264  0.087735  0  1.073845  0
H  H22  1  0.14954939  0.83238439  0.11688918  1  0  0.106742  0  0.96088  0  0  0.124016  0  1.028224  0  0  0.125754  0  1.027668  0  0  0.084261  0.12241  0  1.02911  0
H  H23  1  0.85045253  0.16761818  0.88311010  1  0  0.106784  0  0.960895  0  0  0.124025  0  1.028264  0  0  0.125762  0  1.027708  0  0  0.084267  0.122419  0  1.02915  0
H  H24  1  0.01215605  0.76698684  0.15755264  1  0  0.098034  0  0.956695  0  0  0.119938  0  1.018295  0  0  0.121409  0  1.017475  0  0  0.083064  0.118851  0  1.018929  0
H  H25  1  0.98784182  0.23301571  0.84244919  1  0  0.098077  0  0.956657  0  0  0.119967  0  1.018282  0  0  0.121439  0  1.017461  0  0  0.083102  0.11888  0  1.018917  0
H  H26  1  0.97038272  0.90706787  0.16684418  1  0  0.105191  0  0.983976  0  0  0.123377  0  1.051319  0  0  0.124202  0  1.052923  0  0  0.08576  0.122704  0  1.050464  0
H  H27  1  0.02961576  0.09293868  0.83315427  1  0  0.105185  0  0.984038  0  0  0.123379  0  1.051361  0  0  0.124205  0  1.052962  0  0  0.085772  0.12271  0  1.050505  0
H  H28  1  0.29113072  0.84899442  0.66667709  1  0  0.108858  0  0.967527  0  0  0.128331  0  1.031935  0  0  0.129899  0  1.032195  0  0  0.083954  0.126965  0  1.032122  0
H  H29  1  0.70887243  0.15100176  0.33332314  1  0  0.108854  0  0.967516  0  0  0.128321  0  1.031939  0  0  0.129889  0  1.032201  0  0  0.083959  0.126954  0  1.032127  0
H  H30  1  0.36248203  0.74253258  0.73478604  1  0  0.107586  0  0.95974  0  0  0.130271  0  1.020326  0  0  0.130711  0  1.021309  0  0  0.085513  0.129725  0  1.019964  0
H  H31  1  0.63751391  0.25746678  0.26521592  1  0  0.107609  0  0.959695  0  0  0.130293  0  1.020282  0  0  0.130735  0  1.021265  0  0  0.085523  0.129748  0  1.019919  0
H  H32  1  0.37185539  0.87258079  0.75063268  1  0  0.104373  0  0.967097  0  0  0.124987  0  1.033611  0  0  0.125848  0  1.033964  0  0  0.082832  0.124549  0  1.032811  0
H  H33  1  0.62814803  0.12741460  0.24936472  1  0  0.104351  0  0.967127  0  0  0.124967  0  1.033643  0  0  0.125829  0  1.033995  0  0  0.082833  0.12453  0  1.032841  0
H  H34  1  0.09103588  0.94622895  0.55125073  1  0  0.095722  0  0.957112  0  0  0.10935  0  1.017749  0  0  0.111939  0  1.017071  0  0  0.098309  0.107495  0  1.018481  0
H  H35  1  0.90896265  0.05376883  0.44874782  1  0  0.095725  0  0.957122  0  0  0.109356  0  1.017746  0  0  0.111946  0  1.017068  0  0  0.098307  0.107501  0  1.018479  0
H  H36  1  0.45045975  0.07542809  0.44052388  1  0  0.09733  0  0.950478  0  0  0.113222  0  1.003957  0  0  0.11547  0  1.004204  0  0  0.101734  0.111489  0  1.004144  0
H  H37  1  0.54954295  0.92456649  0.55947804  1  0  0.097306  0  0.950505  0  0  0.113205  0  1.003979  0  0  0.11546  0  1.004218  0  0  0.101721  0.111472  0  1.004166  0
H  H38  1  0.51508935  0.99975502  0.26875321  1  0  0.075313  0  1.006355  0  0  0.080449  0  1.085287  0  0  0.084041  0  1.08173  0  0  0.082835  0.077637  0  1.088311  0
H  H39  1  0.48490907  0.00024595  0.73124365  1  0  0.075331  0  1.006403  0  0  0.080466  0  1.085325  0  0  0.084057  0  1.081768  0  0  0.082821  0.077653  0  1.088351  0
H  H40  1  0.03639054  0.85315605  0.44601685  1  0  0.112827  0  0.95853  0  0  0.135853  0  1.01661  0  0  0.136896  0  1.017745  0  0  0.090571  0.135019  0  1.016089  0
H  H41  1  0.96360816  0.14684413  0.55397930  1  0  0.11287  0  0.958484  0  0  0.13583  0  1.01664  0  0  0.136873  0  1.017775  0  0  0.090586  0.134999  0  1.016111  0
H  H42  1  0.18746832  0.76835715  0.35917344  1  0  0.104388  0  0.966138  0  0  0.126255  0  1.028037  0  0  0.127493  0  1.028149  0  0  0.080401  0.125576  0  1.02775  0
H  H43  1  0.81252909  0.23164381  0.64082654  1  0  0.104367  0  0.966138  0  0  0.126246  0  1.028029  0  0  0.127483  0  1.028141  0  0  0.080405  0.125568  0  1.02774  0
H  H44  1  0.09487619  0.88454384  0.31323861  1  0  0.104217  0  0.962391  0  0  0.126624  0  1.024374  0  0  0.127209  0  1.025208  0  0  0.086734  0.126363  0  1.0238  0
H  H45  1  0.90512262  0.11545313  0.68675922  1  0  0.104215  0  0.962426  0  0  0.126651  0  1.024363  0  0  0.127235  0  1.025201  0  0  0.086772  0.126389  0  1.023792  0
H  H46  1  0.17331577  0.15428955  0.60540213  1  0  0.111864  0  0.958981  0  0  0.133587  0  1.020543  0  0  0.134027  0  1.022548  0  0  0.091662  0.133219  0  1.019187  0
H  H47  1  0.82668461  0.84570583  0.39459753  1  0  0.111893  0  0.959042  0  0  0.133609  0  1.020602  0  0  0.13405  0  1.022608  0  0  0.091678  0.133243  0  1.019244  0
H  H48  1  0.31200159  0.05933825  0.63237564  1  0  0.104084  0  0.968247  0  0  0.125242  0  1.034075  0  0  0.12597  0  1.034758  0  0  0.087855  0.124329  0  1.034266  0
H  H49  1  0.68799970  0.94066033  0.36762277  1  0  0.104085  0  0.968273  0  0  0.12524  0  1.034098  0  0  0.125968  0  1.034781  0  0  0.087863  0.124326  0  1.034286  0
H  H50  1  0.14412917  0.03414465  0.66951248  1  0  0.099296  0  0.979445  0  0  0.120253  0  1.044511  0  0  0.121372  0  1.044443  0  0  0.087389  0.119246  0  1.04498  0
H  H51  1  0.85587213  0.96585392  0.33048735  1  0  0.099315  0  0.979451  0  0  0.120282  0  1.04449  0  0  0.1214  0  1.044423  0  0  0.087403  0.119276  0  1.044957  0
H  H52  1  0.07092570  0.63666634  0.48777374  1  0  0.088859  0  0.99891  0  0  0.096694  0  1.069705  0  0  0.099613  0  1.06928  0  0  0.083713  0.095852  0  1.067907  0
H  H53  1  0.92907622  0.36333623  0.51222554  1  0  0.08888  0  0.998864  0  0  0.096671  0  1.069697  0  0  0.099617  0  1.069248  0  0  0.083712  0.095827  0  1.067901  0
H  H54  1  0.63235497  0.74943568  0.66945795  1  0  0.086997  0  0.965046  0  0  0.09897  0  1.028356  0  0  0.100937  0  1.029027  0  0  0.091957  0.097018  0  1.028556  0
H  H55  1  0.36764947  0.25055971  0.33054342  1  0  0.087017  0  0.96502  0  0  0.09901  0  1.028304  0  0  0.100975  0  1.028977  0  0  0.091963  0.097056  0  1.028505  0
H  H56  1  0.57045320  0.68760348  0.53592417  1  0  0.084098  0  1.006733  0  0  0.092106  0  1.076941  0  0  0.095672  0  1.074173  0  0  0.082617  0.090468  0  1.077335  0
H  H57  1  0.42955215  0.31239510  0.46407594  1  0  0.084  0  1.006797  0  0  0.09202  0  1.076988  0  0  0.095583  0  1.074227  0  0  0.082589  0.090381  0  1.077384  0
H  H58  1  0.14808404  0.55917817  0.33124578  1  0  0.106903  0  0.950681  0  0  0.12927  0  1.00976  0  0  0.130288  0  1.010402  0  0  0.088458  0.128606  0  1.009054  0
H  H59  1  0.85192120  0.44082361  0.66875122  1  0  0.106856  0  0.950745  0  0  0.129267  0  1.009786  0  0  0.130285  0  1.010428  0  0  0.08848  0.128602  0  1.009081  0
H  H60  1  0.04154845  0.61786043  0.25686440  1  0  0.092182  0  0.968423  0  0  0.110815  0  1.036296  0  0  0.112134  0  1.035756  0  0  0.080501  0.109916  0  1.036658  0
H  H61  1  0.95845707  0.38214055  0.74313332  1  0  0.092167  0  0.968368  0  0  0.110802  0  1.036263  0  0  0.112122  0  1.035722  0  0  0.080516  0.109902  0  1.036629  0
H  H62  1  0.04041771  0.48904654  0.30851594  1  0  0.111628  0  0.959358  0  0  0.135148  0  1.017004  0  0  0.135927  0  1.018036  0  0  0.089545  0.134533  0  1.016301  0
H  H63  1  0.95958596  0.51095683  0.69148277  1  0  0.111625  0  0.959187  0  0  0.135159  0  1.016842  0  0  0.135937  0  1.017877  0  0  0.089592  0.134564  0  1.016121  0
H  H64  1  0.86456906  0.82802573  0.66561973  1  0  0.109842  0  0.942837  0  0  0.131916  0  1.003457  0  0  0.132449  0  1.005042  0  0  0.088095  0.131556  0  1.002554  0
H  H65  1  0.13543528  0.17197285  0.33437995  1  0  0.109856  0  0.942817  0  0  0.131929  0  1.003438  0  0  0.132462  0  1.005025  0  0  0.08811  0.131568  0  1.002536  0
H  H66  1  0.00894734  0.71278653  0.64968022  1  0  0.105656  0  0.973673  0  0  0.123414  0  1.040192  0  0  0.125514  0  1.039455  0  0  0.078964  0.122064  0  1.040265  0
H  H67  1  0.99105643  0.28721364  0.35031947  1  0  0.105709  0  0.973622  0  0  0.123447  0  1.040158  0  0  0.125548  0  1.039421  0  0  0.078984  0.122103  0  1.040227  0
H  H68  1  0.83905351  0.71629232  0.74323907  1  0  0.097735  0  0.969247  0  0  0.11652  0  1.035465  0  0  0.117821  0  1.035089  0  0  0.077148  0.115396  0  1.036019  0
H  H69  1  0.16095128  0.28370786  0.25675963  1  0  0.09772  0  0.969284  0  0  0.116515  0  1.035489  0  0  0.117818  0  1.035111  0  0  0.077154  0.115392  0  1.036043  0
H  H70  1  0.37800560  0.37455845  0.17288603  1  0  0.15611  0  0.941947  0  0  0.173969  0  1.000796  0  0  0.176861  0  0.999399  0  0  0.108365  0.171631  0  1.0022  0
H  H71  1  0.62198951  0.62544330  0.82711594  1  0  0.156108  0  0.941939  0  0  0.173967  0  1.000794  0  0  0.17686  0  0.999395  0  0  0.108386  0.171626  0  1.002201  0
H  H72  1  0.51711624  0.41789172  0.07767247  1  0  0.1455  0  0.914404  0  0  0.164824  0  0.969026  0  0  0.167129  0  0.967585  0  0  0.11434  0.162907  0  0.970401  0
H  H73  1  0.48287482  0.58211001  0.92233559  1  0  0.1454  0  0.914396  0  0  0.164719  0  0.969046  0  0  0.167024  0  0.967604  0  0  0.114309  0.1628  0  0.970423  0
H  H74  1  0.35095150  0.51237651  0.13750366  1  0  0.148843  0  0.906337  0  0  0.172519  0  0.953381  0  0  0.174878  0  0.951897  0  0  0.119693  0.170635  0  0.954701  0
H  H75  1  0.64904585  0.48761886  0.86249898  1  0  0.148721  0  0.906333  0  0  0.172427  0  0.953353  0  0  0.174787  0  0.95187  0  0  0.119668  0.170543  0  0.954673  0
C  C76  1  0.74482034  0.74680846  0.11864474  1  0  -0.04128  0  3.62282  0  0  -0.100059  0  3.889138  0  0  -0.093146  0  3.898388  0  0  -0.047348  -0.104446  0  3.882602  0
C  C77  1  0.25517956  0.25319410  0.88135652  1  0  -0.041268  0  3.622832  0  0  -0.10009  0  3.889181  0  0  -0.093181  0  3.898442  0  0  -0.047353  -0.104478  0  3.882646  0
C  C78  1  0.49774473  0.74042999  0.20209484  1  0  -0.042357  0  3.631284  0  0  -0.101654  0  3.898167  0  0  -0.09472  0  3.908324  0  0  -0.048149  -0.106133  0  3.891398  0
C  C79  1  0.50225184  0.25957337  0.79790444  1  0  -0.042393  0  3.63125  0  0  -0.101619  0  3.898041  0  0  -0.094691  0  3.908199  0  0  -0.04812  -0.1061  0  3.89128  0
C  C80  1  0.64576571  0.73477467  0.30375227  1  0  -0.044156  0  3.61275  0  0  -0.099593  0  3.871304  0  0  -0.094222  0  3.882508  0  0  -0.051488  -0.103114  0  3.863801  0
C  C81  1  0.35423317  0.26522789  0.69624786  1  0  -0.044161  0  3.612842  0  0  -0.099593  0  3.87146  0  0  -0.094258  0  3.882636  0  0  -0.051437  -0.103089  0  3.863897  0
C  C82  1  0.91115314  0.87567923  0.99481348  1  0  -0.028778  0  3.723168  0  0  -0.008436  0  3.967068  0  0  -0.012822  0  3.993598  0  0  -0.022105  -0.005595  0  3.949535  0
C  C83  1  0.08884657  0.12432094  0.00518380  1  0  -0.028751  0  3.723219  0  0  -0.008399  0  3.967054  0  0  -0.012786  0  3.993583  0  0  -0.022061  -0.005554  0  3.949521  0
C  C84  1  0.03876324  0.85017901  0.01307189  1  0  0.122968  0  3.750509  0  0  0.144737  0  3.982986  0  0  0.146575  0  4.009318  0  0  -0.009027  0.143654  0  3.965508  0
C  C85  1  0.96123592  0.14982276  0.98692540  1  0  0.12284  0  3.750758  0  0  0.144688  0  3.983101  0  0  0.146527  0  4.009435  0  0  -0.009004  0.143602  0  3.965627  0
C  C86  1  0.16374372  0.83652362  0.92838278  1  0  -0.196225  0  3.704401  0  0  -0.217503  0  3.938692  0  0  -0.224672  0  3.961875  0  0  -0.104446  -0.213029  0  3.921718  0
C  C87  1  0.83625543  0.16347815  0.07161522  1  0  -0.196283  0  3.704447  0  0  -0.217578  0  3.938737  0  0  -0.224752  0  3.961928  0  0  -0.104498  -0.213101  0  3.921765  0
C  C88  1  0.16650767  0.84626535  0.82772508  1  0  0.16256  0  3.760315  0  0  0.189174  0  3.994301  0  0  0.19236  0  4.017808  0  0  -0.007602  0.18689  0  3.978925  0
C  C89  1  0.83349390  0.15373243  0.17227333  1  0  0.162705  0  3.760201  0  0  0.189273  0  3.994257  0  0  0.192459  0  4.017767  0  0  -0.007553  0.186987  0  3.97888  0
C  C90  1  0.03811533  0.87253454  0.81235999  1  0  -0.138645  0  3.743226  0  0  -0.157018  0  3.983749  0  0  -0.161911  0  4.004883  0  0  -0.099168  -0.153987  0  3.970617  0
C  C91  1  0.96188597  0.12746403  0.18763842  1  0  -0.138741  0  3.743278  0  0  -0.157086  0  3.983831  0  0  -0.161974  0  4.004962  0  0  -0.09919  -0.154054  0  3.970701  0
C  C92  1  0.91133952  0.88775951  0.89516034  1  0  -0.084882  0  3.781277  0  0  -0.103862  0  4.029302  0  0  -0.103803  0  4.050584  0  0  -0.094639  -0.104058  0  4.014037  0
C  C93  1  0.08866149  0.11223987  0.10483737  1  0  -0.084808  0  3.78117  0  0  -0.103792  0  4.029188  0  0  -0.103733  0  4.05047  0  0  -0.094625  -0.103991  0  4.013921  0
C  C94  1  0.04328134  0.83851568  0.11892968  1  0  -0.339989  0  3.749642  0  0  -0.417518  0  3.982145  0  0  -0.420315  0  3.991872  0  0  -0.247051  -0.415761  0  3.976196  0
C  C95  1  0.95671827  0.16148768  0.88106946  1  0  -0.340016  0  3.749881  0  0  -0.417537  0  3.982367  0  0  -0.420333  0  3.992093  0  0  -0.247122  -0.415782  0  3.976412  0
C  C96  1  0.30486002  0.82740553  0.74002776  1  0  -0.341427  0  3.719141  0  0  -0.420437  0  3.947907  0  0  -0.422862  0  3.95739  0  0  -0.245952  -0.41865  0  3.941589  0
C  C97  1  0.69514025  0.17259304  0.25997093  1  0  -0.341442  0  3.719066  0  0  -0.420448  0  3.947853  0  0  -0.422866  0  3.957318  0  0  -0.245969  -0.418661  0  3.941532  0
C  C98  1  0.34025677  0.93017963  0.31441251  1  0  -0.033044  0  3.736063  0  0  -0.011105  0  3.976789  0  0  -0.014951  0  4.001954  0  0  -0.026242  -0.008972  0  3.960231  0
C  C99  1  0.65974074  0.06981814  0.68558632  1  0  -0.032967  0  3.736218  0  0  -0.011081  0  3.976987  0  0  -0.014922  0  4.002141  0  0  -0.026245  -0.008954  0  3.960434  0
C  C100  1  0.21886739  0.91443415  0.39361556  1  0  0.119829  0  3.765083  0  0  0.139376  0  4.001236  0  0  0.141624  0  4.025601  0  0  -0.013394  0.137708  0  3.984945  0
C  C101  1  0.78112411  0.08556919  0.60638585  1  0  0.119719  0  3.764956  0  0  0.139271  0  4.001132  0  0  0.141515  0  4.025501  0  0  -0.013415  0.137615  0  3.984822  0
C  C102  1  0.18458967  0.95837338  0.48928483  1  0  -0.191096  0  3.707576  0  0  -0.21708  0  3.95055  0  0  -0.22209  0  3.971386  0  0  -0.098931  -0.213395  0  3.936456  0
C  C103  1  0.81541015  0.04162361  0.51071131  1  0  -0.191026  0  3.707594  0  0  -0.217017  0  3.950534  0  0  -0.222031  0  3.971383  0  0  -0.098924  -0.213336  0  3.936435  0
C  C104  1  0.26516254  0.01690378  0.50788011  1  0  0.154857  0  3.763938  0  0  0.180378  0  4.001125  0  0  0.183289  0  4.023933  0  0  -0.008302  0.178461  0  3.985329  0
C  C105  1  0.73483329  0.98309877  0.49211946  1  0  0.154809  0  3.764186  0  0  0.180387  0  4.001291  0  0  0.183293  0  4.024105  0  0  -0.008262  0.178471  0  3.985493  0
C  C106  1  0.38618291  0.03010057  0.42775649  1  0  -0.134447  0  3.747712  0  0  -0.153188  0  3.990859  0  0  -0.157874  0  4.01307  0  0  -0.097671  -0.149879  0  3.976182  0
C  C107  1  0.61381849  0.96989481  0.57224219  1  0  -0.134399  0  3.747694  0  0  -0.153162  0  3.990801  0  0  -0.157852  0  4.013006  0  0  -0.097675  -0.149851  0  3.976126  0
C  C108  1  0.42264395  0.98785068  0.33184384  1  0  -0.096259  0  3.808125  0  0  -0.119328  0  4.064287  0  0  -0.119397  0  4.084915  0  0  -0.099693  -0.119402  0  4.05107  0
C  C109  1  0.57735745  0.01214470  0.66815766  1  0  -0.096373  0  3.808246  0  0  -0.11942  0  4.06439  0  0  -0.119488  0  4.085015  0  0  -0.099731  -0.119498  0  4.051183  0
C  C110  1  0.12924968  0.85233836  0.37727931  1  0  -0.341658  0  3.74944  0  0  -0.423084  0  3.980899  0  0  -0.425889  0  3.991588  0  0  -0.249267  -0.42112  0  3.973836  0
C  C111  1  0.87074902  0.14766181  0.62271755  1  0  -0.341619  0  3.749362  0  0  -0.423019  0  3.98084  0  0  -0.425825  0  3.991532  0  0  -0.249287  -0.421059  0  3.973772  0
C  C112  1  0.22127698  0.06822987  0.60949903  1  0  -0.339264  0  3.720387  0  0  -0.422446  0  3.955215  0  0  -0.424216  0  3.963937  0  0  -0.242539  -0.420839  0  3.949608  0
C  C113  1  0.77872413  0.93176631  0.39049894  1  0  -0.339294  0  3.72046  0  0  -0.422507  0  3.955321  0  0  -0.424277  0  3.964045  0  0  -0.2426  -0.420901  0  3.949712  0
C  C114  1  0.78584017  0.63287312  0.43409669  1  0  -0.033745  0  3.73844  0  0  -0.015014  0  3.985804  0  0  -0.018218  0  4.010208  0  0  -0.024269  -0.013115  0  3.969924  0
C  C115  1  0.21416608  0.36712865  0.56590215  1  0  -0.033846  0  3.738705  0  0  -0.015094  0  3.986014  0  0  -0.018298  0  4.010416  0  0  -0.024259  -0.013196  0  3.970136  0
C  C116  1  0.92876790  0.61678742  0.41955251  1  0  0.119791  0  3.744038  0  0  0.141869  0  3.978108  0  0  0.143707  0  4.002753  0  0  -0.010406  0.140586  0  3.961985  0
C  C117  1  0.07123762  0.38321355  0.58044662  1  0  0.119808  0  3.744156  0  0  0.141903  0  3.978172  0  0  0.143739  0  4.002823  0  0  -0.010386  0.140618  0  3.962054  0
C  C118  1  0.96047889  0.64948984  0.49766716  1  0  -0.182127  0  3.689209  0  0  -0.203378  0  3.924993  0  0  -0.209231  0  3.946726  0  0  -0.097235  -0.199893  0  3.909641  0
C  C119  1  0.03952635  0.35051193  0.50233197  1  0  -0.182142  0  3.689232  0  0  -0.203358  0  3.924986  0  0  -0.209234  0  3.946696  0  0  -0.097259  -0.199875  0  3.909635  0
C  C120  1  0.85662578  0.69888619  0.58712232  1  0  0.15394  0  3.760569  0  0  0.18056  0  3.994464  0  0  0.183329  0  4.018424  0  0  -0.009495  0.178617  0  3.97872  0
C  C121  1  0.14338059  0.30111239  0.41287892  1  0  0.153918  0  3.76064  0  0  0.180561  0  3.994469  0  0  0.183332  0  4.018434  0  0  -0.009488  0.17862  0  3.978726  0
C  C122  1  0.71549274  0.71144605  0.60027327  1  0  -0.138359  0  3.754571  0  0  -0.157024  0  3.99937  0  0  -0.163012  0  4.024152  0  0  -0.101718  -0.152955  0  3.983388  0
C  C123  1  0.28451566  0.28855253  0.39972741  1  0  -0.138494  0  3.754657  0  0  -0.157187  0  3.999444  0  0  -0.163176  0  4.024223  0  0  -0.101792  -0.15312  0  3.983464  0
C  C124  1  0.68043706  0.67818434  0.52500782  1  0  -0.097828  0  3.792634  0  0  -0.117022  0  4.042161  0  0  -0.117412  0  4.063306  0  0  -0.098943  -0.11699  0  4.027184  0
C  C125  1  0.31956858  0.32181344  0.47499228  1  0  -0.097621  0  3.7927  0  0  -0.116821  0  4.042209  0  0  -0.11721  0  4.063353  0  0  -0.098888  -0.116792  0  4.027236  0
C  C126  1  0.04616185  0.56797954  0.32391113  1  0  -0.338992  0  3.762664  0  0  -0.41944  0  3.998348  0  0  -0.422159  0  4.009357  0  0  -0.245507  -0.417539  0  3.990902  0
C  C127  1  0.95384367  0.43202144  0.67608659  1  0  -0.338854  0  3.762445  0  0  -0.419362  0  3.998169  0  0  -0.422081  0  4.009178  0  0  -0.245553  -0.417481  0  3.990709  0
C  C128  1  0.89535772  0.74008820  0.66536008  1  0  -0.341857  0  3.739311  0  0  -0.418607  0  3.971087  0  0  -0.421368  0  3.98008  0  0  -0.246191  -0.416855  0  3.965311  0
C  C129  1  0.10464808  0.25991197  0.33464046  1  0  -0.341888  0  3.739212  0  0  -0.418632  0  3.970974  0  0  -0.421396  0  3.979962  0  0  -0.246223  -0.416887  0  3.965196  0
C  C130  1  0.47632953  0.46099450  0.22734027  1  0  0.386117  0  3.659007  0  0  0.380525  0  3.933285  0  0  0.393654  0  3.945936  0  0  0.203918  0.371373  0  3.925398  0
C  C131  1  0.52365157  0.53900959  0.77267319  1  0  0.386121  0  3.658807  0  0  0.380519  0  3.933118  0  0  0.393656  0  3.945764  0  0  0.203921  0.371367  0  3.925227  0
C  C132  1  0.42788043  0.44094858  0.14965999  1  0  -0.356021  0  3.757775  0  0  -0.425429  0  3.980361  0  0  -0.427987  0  3.981972  0  0  -0.199544  -0.423484  0  3.980003  0
C  C133  1  0.57211350  0.55905077  0.85034395  1  0  -0.355699  0  3.757729  0  0  -0.425123  0  3.980323  0  0  -0.427682  0  3.981935  0  0  -0.199454  -0.423171  0  3.979963  0
S  S134  1  0.74972333  0.89152605  0.10024289  1  0  -0.012375  0  2.733639  0  0  0.000328  0  3.146372  0  0  0.001358  0  3.136218  0  0  -0.039006  -0.001695  0  3.153329  0
S  S135  1  0.25027555  0.10847651  0.89975582  1  0  -0.012382  0  2.733617  0  0  0.000304  0  3.146394  0  0  0.00134  0  3.136227  0  0  -0.039034  -0.001727  0  3.153356  0
S  S136  1  0.38651650  0.87864569  0.19095965  1  0  -0.014762  0  2.745663  0  0  0.001403  0  3.143665  0  0  0.001346  0  3.133562  0  0  -0.042914  0.000981  0  3.150826  0
S  S137  1  0.61348322  0.12135449  0.80903763  1  0  -0.014798  0  2.745639  0  0  0.001379  0  3.143611  0  0  0.001331  0  3.1335  0  0  -0.042934  0.000957  0  3.150777  0
S  S138  1  0.73929596  0.59896484  0.33484999  1  0  -0.021168  0  2.716318  0  0  -0.015694  0  3.123091  0  0  -0.013997  0  3.110943  0  0  -0.038973  -0.01818  0  3.131367  0
S  S139  1  0.26070450  0.40103613  0.66514985  1  0  -0.021185  0  2.716487  0  0  -0.015715  0  3.12325  0  0  -0.014014  0  3.111109  0  0  -0.039003  -0.018206  0  3.131523  0
I  I140  1  0.45192910  0.16130531  0.07984854  1  0  -0.446159  0  1.428558  0  0  -0.400524  0  1.811859  0  0  -0.415764  0  1.778737  0  0  -0.212504  -0.388491  0  1.83098  0
I  I141  1  0.54806960  0.83869486  0.92014903  1  0  -0.446181  0  1.428565  0  0  -0.400552  0  1.811873  0  0  -0.41579  0  1.778748  0  0  -0.212509  -0.388517  0  1.830993  0
I  I142  1  0.33039025  0.65340150  0.50963352  1  0  -0.437368  0  1.477576  0  0  -0.386253  0  1.873889  0  0  -0.403914  0  1.842287  0  0  -0.19241  -0.37154  0  1.891088  0
I  I143  1  0.66961637  0.34660505  0.49037045  1  0  -0.437397  0  1.477597  0  0  -0.38627  0  1.873891  0  0  -0.403937  0  1.84231  0  0  -0.192415  -0.371562  0  1.891096  0
N  N144  1  0.63152054  0.73203782  0.20727122  1  0  -0.127739  0  3.499938  0  0  -0.03769  0  3.737041  0  0  -0.058191  0  3.765344  0  0  -0.321483  -0.02364  0  3.716966  0
N  N145  1  0.36847936  0.26796474  0.79272863  1  0  -0.1277  0  3.499834  0  0  -0.037659  0  3.736922  0  0  -0.058166  0  3.765239  0  0  -0.321503  -0.023608  0  3.716854  0
N  N146  1  0.51462166  0.47667088  0.29060727  1  0  -0.394703  0  3.120498  0  0  -0.363423  0  3.443002  0  0  -0.368368  0  3.438394  0  0  -0.371263  -0.361599  0  3.446554  0
N  N147  1  0.48536432  0.52333084  0.70940008  1  0  -0.394856  0  3.120314  0  0  -0.36358  0  3.442832  0  0  -0.368525  0  3.438214  0  0  -0.371348  -0.361757  0  3.446381  0
