# generated using pymatgen
data_SmH18(C2O)7
_symmetry_space_group_name_H-M   'P 1'
_cell_length_a   12.90326110
_cell_length_b   14.25058348
_cell_length_c   18.96284017
_cell_angle_alpha   90.00010083
_cell_angle_beta   90.00000155
_cell_angle_gamma   89.99995682
_symmetry_Int_Tables_number   1
_chemical_formula_structural   SmH18(C2O)7
_chemical_formula_sum   'Sm8 H144 C112 O56'
_cell_volume   3486.86807724
_cell_formula_units_Z   8
loop_
 _symmetry_equiv_pos_site_id
 _symmetry_equiv_pos_as_xyz
  1  'x, y, z'
loop_
 _atom_site_type_symbol
 _atom_site_label
 _atom_site_symmetry_multiplicity
 _atom_site_fract_x
 _atom_site_fract_y
 _atom_site_fract_z
 _atom_site_occupancy
 _atom_site_pbe_bader_charge
 _atom_site_pbe_bader_spin_density
 _atom_site_pbe_cm5_charge
 _atom_site_pbe_ddec_charge
 _atom_site_pbe_ddec_spin_density
 _atom_site_pbe_ddec_sum_bond_order
 _atom_site_pbe_magmom
Sm  Sm0  1  0.71657391  0.00311436  0.88955346  1  2.238827  0  1.529017  2.172398  0  2.158384  0
Sm  Sm1  1  0.78342558  0.99688358  0.38955149  1  2.238894  0  1.528997  2.172419  0  2.158299  0
Sm  Sm2  1  0.28342660  0.50311265  0.61044739  1  2.23881  0  1.529021  2.172431  0  2.158349  0
Sm  Sm3  1  0.21657528  0.49688778  0.11044897  1  2.238801  0  1.529015  2.17243  0  2.158311  0
Sm  Sm4  1  0.77262794  0.02162982  0.67409366  1  2.22767  0  1.528845  2.105787  0  2.190448  0
Sm  Sm5  1  0.72737308  0.97837182  0.17409483  1  2.227653  0  1.528884  2.105815  0  2.190429  0
Sm  Sm6  1  0.22737178  0.52163006  0.82590616  1  2.227668  0  1.528837  2.105794  0  2.190488  0
Sm  Sm7  1  0.27262779  0.47837018  0.32590297  1  2.227602  0  1.528925  2.105867  0  2.190377  0
H  H8  1  0.99551112  0.06889963  0.88156684  1  0.069059  0  0.10416  0.091826  0  1.021054  0
H  H9  1  0.50448682  0.93110040  0.38156582  1  0.06908  0  0.104136  0.091811  0  1.02104  0
H  H10  1  0.00448701  0.56889883  0.61843358  1  0.069048  0  0.104131  0.09179  0  1.021056  0
H  H11  1  0.49551332  0.43110091  0.11843297  1  0.069046  0  0.104151  0.091817  0  1.021  0
H  H12  1  0.15601716  0.01419755  0.84409983  1  0.010714  0  0.090846  0.088247  0  0.997111  0
H  H13  1  0.34398241  0.98580133  0.34409784  1  0.010787  0  0.090844  0.088245  0  0.997089  0
H  H14  1  0.84398257  0.51419767  0.65590262  1  0.010783  0  0.090838  0.088238  0  0.997106  0
H  H15  1  0.65601768  0.48580252  0.15590261  1  0.010777  0  0.090849  0.08823  0  0.997092  0
H  H16  1  0.12898600  0.03994096  0.75490329  1  0.073564  0  0.093974  0.099631  0  1.003126  0
H  H17  1  0.37101357  0.96005560  0.25490127  1  0.073538  0  0.093952  0.099662  0  1.003138  0
H  H18  1  0.87101526  0.53994338  0.74509867  1  0.073519  0  0.093945  0.099629  0  1.00316  0
H  H19  1  0.62898654  0.46005632  0.24509809  1  0.073538  0  0.09395  0.099637  0  1.003185  0
H  H20  1  0.20290911  0.19002182  0.76104330  1  0.030159  0  0.089408  0.085731  0  1.016939  0
H  H21  1  0.29708968  0.80997546  0.26104371  1  0.030131  0  0.089413  0.085715  0  1.016967  0
H  H22  1  0.79708970  0.69002357  0.73895675  1  0.030116  0  0.089416  0.085728  0  1.016905  0
H  H23  1  0.70291210  0.30997682  0.23895439  1  0.030176  0  0.089406  0.085724  0  1.017028  0
H  H24  1  0.26905364  0.14786922  0.83597983  1  0.037423  0  0.092739  0.094234  0  0.98753  0
H  H25  1  0.23094515  0.85213034  0.33598030  1  0.037401  0  0.092735  0.094223  0  0.987505  0
H  H26  1  0.73094520  0.64786874  0.66402069  1  0.037409  0  0.092734  0.094217  0  0.987528  0
H  H27  1  0.76905505  0.35213148  0.16401786  1  0.037364  0  0.092747  0.094227  0  0.98747  0
H  H28  1  0.22197017  0.21674445  0.95463510  1  0.049099  0  0.095171  0.130849  0  0.986001  0
H  H29  1  0.27803172  0.78325679  0.45463600  1  0.049132  0  0.09517  0.130827  0  0.986037  0
H  H30  1  0.77802706  0.71674225  0.54536710  1  0.049108  0  0.095184  0.130853  0  0.985986  0
H  H31  1  0.72196776  0.28325347  0.04536523  1  0.049121  0  0.095185  0.130858  0  0.986014  0
H  H32  1  0.13160158  0.12363741  0.94548978  1  0.042132  0  0.094721  0.133158  0  0.997006  0
H  H33  1  0.36840031  0.87636451  0.44548923  1  0.0421  0  0.094716  0.133133  0  0.997069  0
H  H34  1  0.86839495  0.62363447  0.55451176  1  0.042098  0  0.094702  0.133148  0  0.997087  0
H  H35  1  0.63160297  0.37636058  0.05450791  1  0.042169  0  0.094715  0.133136  0  0.997008  0
H  H36  1  0.08809238  0.23554726  0.97261132  1  0.026138  0  0.089943  0.115087  0  1.04872  0
H  H37  1  0.41190797  0.76445332  0.47261115  1  0.026102  0  0.089955  0.11509  0  1.048707  0
H  H38  1  0.91190174  0.73554352  0.52738879  1  0.026028  0  0.089911  0.115042  0  1.048695  0
H  H39  1  0.58809231  0.26444935  0.02738795  1  0.026094  0  0.089952  0.115094  0  1.04866  0
H  H40  1  0.99333636  0.32840746  0.76670710  1  -0.005916  0  0.092056  0.131953  0  0.999348  0
H  H41  1  0.50666389  0.67159229  0.26670628  1  -0.005931  0  0.09206  0.131971  0  0.999358  0
H  H42  1  0.00666543  0.82840764  0.73329207  1  -0.005963  0  0.092058  0.131963  0  0.999369  0
H  H43  1  0.49333568  0.17159308  0.23329270  1  -0.005914  0  0.092059  0.131965  0  0.999347  0
H  H44  1  0.91229720  0.23284998  0.74427738  1  0.041267  0  0.093985  0.123565  0  1.036441  0
H  H45  1  0.58770228  0.76715043  0.24427774  1  0.041274  0  0.093993  0.123581  0  1.03647  0
H  H46  1  0.08770390  0.73284945  0.75572061  1  0.041223  0  0.093993  0.12358  0  1.036473  0
H  H47  1  0.41229722  0.26715133  0.25572084  1  0.04126  0  0.093995  0.123574  0  1.036491  0
H  H48  1  0.04477775  0.22954161  0.72126025  1  0.026411  0  0.092098  0.134497  0  1.002801  0
H  H49  1  0.45522259  0.77045838  0.22125956  1  0.026415  0  0.09209  0.134497  0  1.002827  0
H  H50  1  0.95522413  0.72954194  0.77873985  1  0.026437  0  0.092112  0.134513  0  1.002831  0
H  H51  1  0.54477768  0.27045854  0.27874007  1  0.026413  0  0.092109  0.134508  0  1.002789  0
H  H52  1  0.93673208  0.31481030  0.89644979  1  0.061054  0  0.09098  0.133524  0  0.993085  0
H  H53  1  0.56326818  0.68519046  0.39644951  1  0.061059  0  0.090976  0.133523  0  0.993039  0
H  H54  1  0.06326663  0.81481013  0.60354989  1  0.061058  0  0.090972  0.133535  0  0.993052  0
H  H55  1  0.43673293  0.18519099  0.10354949  1  0.061075  0  0.090972  0.133506  0  0.993053  0
H  H56  1  0.93317953  0.20169919  0.93714826  1  0.036467  0  0.090736  0.130126  0  1.016137  0
H  H57  1  0.56681995  0.79830167  0.43714760  1  0.036253  0  0.090756  0.130146  0  1.016129  0
H  H58  1  0.06681849  0.70169892  0.56285075  1  0.036438  0  0.090713  0.130093  0  1.016141  0
H  H59  1  0.43318184  0.29830140  0.06285102  1  0.036222  0  0.090722  0.13011  0  1.01612  0
H  H60  1  0.85166757  0.22639286  0.86497396  1  0.012735  0  0.091952  0.122017  0  1.046267  0
H  H61  1  0.64833269  0.77360713  0.36497327  1  0.01273  0  0.091978  0.122041  0  1.046238  0
H  H62  1  0.14833121  0.72639271  0.63502508  1  0.012775  0  0.091949  0.122027  0  1.046281  0
H  H63  1  0.35166835  0.27360778  0.13502584  1  0.012765  0  0.09197  0.122055  0  1.046222  0
H  H64  1  0.38826118  0.89548349  0.84488933  1  0.056747  0  0.093594  0.100461  0  1.001419  0
H  H65  1  0.11174071  0.10451819  0.34488881  1  0.056469  0  0.093596  0.100475  0  1.001438  0
H  H66  1  0.61173978  0.39548261  0.65511099  1  0.056815  0  0.09361  0.100488  0  1.001424  0
H  H67  1  0.88825970  0.60451758  0.15511114  1  0.056476  0  0.093602  0.10049  0  1.001424  0
H  H68  1  0.33041065  0.99686248  0.81002278  1  0.007158  0  0.089661  0.089971  0  1.011186  0
H  H69  1  0.16959047  0.00313983  0.31002318  1  0.007214  0  0.089648  0.089988  0  1.011152  0
H  H70  1  0.66959023  0.49686094  0.68997767  1  0.007203  0  0.089658  0.089992  0  1.011135  0
H  H71  1  0.83041080  0.50313934  0.18997768  1  0.007213  0  0.089658  0.089987  0  1.011149  0
H  H72  1  0.21259938  0.90569704  0.73856296  1  0.007051  0  0.086187  0.077603  0  1.016806  0
H  H73  1  0.28740095  0.09430369  0.23856348  1  0.007067  0  0.086188  0.07761  0  1.01682  0
H  H74  1  0.78740079  0.40569559  0.76143685  1  0.007077  0  0.086195  0.077633  0  1.016802  0
H  H75  1  0.71259946  0.59430415  0.26143697  1  0.007081  0  0.086183  0.077613  0  1.01683  0
H  H76  1  0.23708160  0.82009220  0.80390596  1  0.040814  0  0.092162  0.093317  0  1.017163  0
H  H77  1  0.26291874  0.17990939  0.30390555  1  0.040801  0  0.092177  0.093352  0  1.017124  0
H  H78  1  0.76291864  0.32009131  0.69609426  1  0.040806  0  0.09217  0.093341  0  1.017144  0
H  H79  1  0.73708161  0.67990898  0.19609450  1  0.040812  0  0.092183  0.093374  0  1.017123  0
H  H80  1  0.30004088  0.82122950  0.65480330  1  0.053905  0  0.101322  0.088441  0  0.985257  0
H  H81  1  0.19995946  0.17877034  0.15480341  1  0.053907  0  0.101326  0.088497  0  0.985259  0
H  H82  1  0.69995937  0.32122971  0.84519639  1  0.053909  0  0.101326  0.088475  0  0.98528  0
H  H83  1  0.80004089  0.67877164  0.34519716  1  0.053905  0  0.101324  0.088443  0  0.985281  0
H  H84  1  0.40657860  0.07388819  0.70839605  1  0.024199  0  0.085945  0.117998  0  1.019634  0
H  H85  1  0.09342251  0.92611106  0.20839872  1  0.024153  0  0.085953  0.118041  0  1.019675  0
H  H86  1  0.59342185  0.57388811  0.79160490  1  0.024214  0  0.08593  0.11798  0  1.019576  0
H  H87  1  0.90657840  0.42611241  0.29160429  1  0.024221  0  0.08596  0.118007  0  1.01961  0
H  H88  1  0.34666856  0.98609642  0.65634854  1  0.022802  0  0.0893  0.124068  0  0.998603  0
H  H89  1  0.15333333  0.01390202  0.15635001  1  0.022313  0  0.089293  0.124091  0  0.998585  0
H  H90  1  0.65333155  0.48609736  0.84365190  1  0.02279  0  0.089315  0.124108  0  0.998653  0
H  H91  1  0.84666793  0.51390398  0.34365140  1  0.022812  0  0.089298  0.124056  0  0.998578  0
H  H92  1  0.48090789  0.01158328  0.64504843  1  0.076199  0  0.091925  0.130643  0  1.047485  0
H  H93  1  0.01909554  0.98841443  0.14504960  1  0.07626  0  0.091953  0.13064  0  1.047557  0
H  H94  1  0.51909261  0.51158339  0.85495191  1  0.076198  0  0.091934  0.130642  0  1.047491  0
H  H95  1  0.98090687  0.48841728  0.35495191  1  0.076199  0  0.091917  0.130575  0  1.047548  0
H  H96  1  0.50270753  0.69008823  0.73899419  1  0.039133  0  0.091809  0.129209  0  1.013737  0
H  H97  1  0.99729350  0.30991146  0.23899448  1  0.039132  0  0.091804  0.129192  0  1.013767  0
H  H98  1  0.49729360  0.19008838  0.76100586  1  0.039123  0  0.091799  0.129184  0  1.013773  0
H  H99  1  0.00270674  0.80991170  0.26100574  1  0.039125  0  0.091799  0.129188  0  1.013773  0
H  H100  1  0.47812069  0.76430283  0.81201706  1  0.045759  0  0.091164  0.12797  0  1.04362  0
H  H101  1  0.02188042  0.23569737  0.31201671  1  0.04576  0  0.09118  0.128  0  1.043583  0
H  H102  1  0.52187960  0.26430279  0.68798309  1  0.045768  0  0.091176  0.128003  0  1.043565  0
H  H103  1  0.97812065  0.73569678  0.18798341  1  0.045787  0  0.091179  0.12799  0  1.043616  0
H  H104  1  0.59048763  0.78167535  0.75914419  1  0.025555  0  0.090222  0.12448  0  1.021767  0
H  H105  1  0.90951340  0.21832368  0.25914382  1  0.025568  0  0.090242  0.124507  0  1.021748  0
H  H106  1  0.40951343  0.28167621  0.74085598  1  0.025566  0  0.090231  0.124488  0  1.021775  0
H  H107  1  0.09048691  0.71832382  0.24085627  1  0.025568  0  0.090234  0.124495  0  1.021766  0
H  H108  1  0.50011358  0.74804151  0.61937607  1  0.013702  0  0.086649  0.118013  0  1.018891  0
H  H109  1  0.99988744  0.25195790  0.11937628  1  0.013716  0  0.086664  0.118028  0  1.018879  0
H  H110  1  0.49988750  0.24804194  0.88062405  1  0.013714  0  0.086653  0.117994  0  1.018883  0
H  H111  1  0.00011362  0.75195843  0.38062386  1  0.0137  0  0.086648  0.117997  0  1.018892  0
H  H112  1  0.57540226  0.85006399  0.63550663  1  0.07011  0  0.094681  0.133793  0  1.017342  0
H  H113  1  0.92459876  0.14993546  0.13550671  1  0.069912  0  0.09468  0.133767  0  1.017334  0
H  H114  1  0.42459951  0.35006443  0.86449363  1  0.070009  0  0.094695  0.133801  0  1.017326  0
H  H115  1  0.07540161  0.64993660  0.36449330  1  0.069896  0  0.094684  0.133785  0  1.01735  0
H  H116  1  0.45136152  0.86057513  0.59579371  1  0.031195  0  0.085823  0.119251  0  1.014482  0
H  H117  1  0.04863881  0.13942456  0.09579376  1  0.031193  0  0.085833  0.119266  0  1.014469  0
H  H118  1  0.54863947  0.36057558  0.90420657  1  0.031168  0  0.085866  0.119302  0  1.014385  0
H  H119  1  0.95136234  0.63942520  0.40420623  1  0.031204  0  0.085828  0.119246  0  1.01447  0
H  H120  1  0.53484045  0.80781623  0.91053661  1  0.11333  0  0.10646  0.102972  0  1.062626  0
H  H121  1  0.96515904  0.19218456  0.41053727  1  0.113358  0  0.106467  0.103004  0  1.062637  0
H  H122  1  0.46516136  0.30781530  0.58946201  1  0.113364  0  0.106459  0.102969  0  1.062675  0
H  H123  1  0.03483897  0.69218368  0.08946438  1  0.11327  0  0.106486  0.103053  0  1.062595  0
H  H124  1  0.42321368  0.66645572  0.88809367  1  0.106959  0  0.111002  0.100525  0  1.040828  0
H  H125  1  0.07678433  0.33354537  0.38809451  1  0.106931  0  0.110991  0.100472  0  1.04083  0
H  H126  1  0.57678592  0.16645406  0.61190476  1  0.106946  0  0.11098  0.100467  0  1.040835  0
H  H127  1  0.92321201  0.83354463  0.11190679  1  0.106922  0  0.111007  0.100551  0  1.040778  0
H  H128  1  0.47752091  0.57317929  0.10035666  1  0.087485  0  0.107679  0.101166  0  1.041811  0
H  H129  1  0.02247632  0.42682041  0.60035708  1  0.087489  0  0.107675  0.10117  0  1.04184  0
H  H130  1  0.52247720  0.07317835  0.39964272  1  0.087369  0  0.107671  0.101156  0  1.041822  0
H  H131  1  0.97752151  0.92682172  0.89964434  1  0.087435  0  0.107696  0.101185  0  1.041796  0
H  H132  1  0.58956927  0.71339108  0.12213883  1  0.071342  0  0.108768  0.111097  0  1.021231  0
H  H133  1  0.91042943  0.28660903  0.62213907  1  0.071322  0  0.108789  0.111107  0  1.02123  0
H  H134  1  0.41043105  0.21339016  0.37786021  1  0.071299  0  0.108749  0.111091  0  1.021238  0
H  H135  1  0.08956930  0.78660949  0.87786269  1  0.071375  0  0.108785  0.111112  0  1.021228  0
H  H136  1  0.73731020  0.79455420  0.86524170  1  0.636597  0  0.33641  0.424412  0  0.859854  0
H  H137  1  0.76268929  0.20544579  0.36524184  1  0.636596  0  0.336414  0.424399  0  0.859881  0
H  H138  1  0.26268930  0.29455351  0.63475849  1  0.636597  0  0.336381  0.424385  0  0.859895  0
H  H139  1  0.23730949  0.70544558  0.13475876  1  0.636523  0  0.336416  0.4244  0  0.859874  0
H  H140  1  0.78464860  0.83862247  0.79404353  1  0.662081  0  0.307645  0.417332  0  0.914283  0
H  H141  1  0.71535166  0.16137735  0.29404415  1  0.662089  0  0.307665  0.417338  0  0.914262  0
H  H142  1  0.21535163  0.33862268  0.70595566  1  0.662094  0  0.307655  0.417341  0  0.914257  0
H  H143  1  0.28464870  0.66137727  0.20595640  1  0.662085  0  0.307688  0.417372  0  0.914208  0
H  H144  1  0.61783757  0.10811117  0.01924878  1  0.652959  0  0.303677  0.420505  0  0.908434  0
H  H145  1  0.88216268  0.89188940  0.51924929  1  0.652957  0  0.303682  0.420504  0  0.908431  0
H  H146  1  0.38216284  0.60810957  0.48075170  1  0.652972  0  0.303694  0.420532  0  0.908397  0
H  H147  1  0.11783751  0.39188963  0.98075155  1  0.652969  0  0.303702  0.420516  0  0.908415  0
H  H148  1  0.60780522  0.15825758  0.94314628  1  0.616748  0  0.311534  0.394993  0  0.925065  0
H  H149  1  0.89219504  0.84174259  0.44314621  1  0.616747  0  0.311517  0.394967  0  0.925101  0
H  H150  1  0.39219439  0.65825637  0.55685426  1  0.616755  0  0.311528  0.394983  0  0.92508  0
H  H151  1  0.10780516  0.34174323  0.05685405  1  0.616758  0  0.311515  0.394976  0  0.925088  0
C  C152  1  0.01487916  0.09534724  0.82881842  1  -0.028215  0  -0.083231  -0.177227  0  3.760357  0
C  C153  1  0.48511963  0.90465160  0.32881738  1  -0.028368  0  -0.083246  -0.177184  0  3.760272  0
C  C154  1  0.98511895  0.59534800  0.67118203  1  -0.028353  0  -0.08324  -0.177124  0  3.760256  0
C  C155  1  0.51488208  0.40465153  0.17118191  1  -0.028324  0  -0.083273  -0.177165  0  3.760085  0
C  C156  1  0.12692527  0.06886405  0.80842852  1  -0.031976  0  -0.165823  -0.16356  0  3.892264  0
C  C157  1  0.37307275  0.93113404  0.30842699  1  -0.032007  0  -0.165829  -0.163684  0  3.892321  0
C  C158  1  0.87307209  0.56886564  0.69157347  1  -0.032032  0  -0.165785  -0.163592  0  3.892228  0
C  C159  1  0.62693049  0.43113323  0.19157286  1  -0.032121  0  -0.16579  -0.163574  0  3.892226  0
C  C160  1  0.19155540  0.15946734  0.81353067  1  -0.033177  0  -0.164232  -0.188139  0  3.899275  0
C  C161  1  0.30844339  0.84053076  0.31353059  1  -0.033185  0  -0.164221  -0.188092  0  3.899252  0
C  C162  1  0.80844343  0.65946897  0.68647039  1  -0.033178  0  -0.164203  -0.188094  0  3.899212  0
C  C163  1  0.69155837  0.34053060  0.18646808  1  -0.033103  0  -0.164204  -0.188076  0  3.899331  0
C  C164  1  0.12697868  0.22601557  0.85996416  1  0.037632  0  -0.009093  0.011759  0  3.736685  0
C  C165  1  0.37302167  0.77398404  0.35996400  1  0.037609  0  -0.00911  0.011668  0  3.736756  0
C  C166  1  0.87302010  0.72601564  0.64003699  1  0.037612  0  -0.009017  0.011942  0  3.736522  0
C  C167  1  0.62697860  0.27398382  0.14003564  1  0.037578  0  -0.00904  0.011786  0  3.736746  0
C  C168  1  0.01170782  0.20571747  0.83431187  1  0.038841  0  0.003923  0.211147  0  3.666413  0
C  C169  1  0.48829174  0.79428139  0.33431121  1  0.038978  0  0.003881  0.21127  0  3.666243  0
C  C170  1  0.98829019  0.70571821  0.66568768  1  0.039122  0  0.003912  0.211157  0  3.666556  0
C  C171  1  0.51171006  0.29428130  0.16568793  1  0.038998  0  0.003914  0.211224  0  3.666385  0
C  C172  1  0.93482259  0.05477379  0.77912753  1  1.524918  0  0.219973  0.657715  0  4.091606  0
C  C173  1  0.56517612  0.94522459  0.27912706  1  1.524911  0  0.219997  0.657721  0  4.091685  0
C  C174  1  0.06517633  0.55477460  0.72087234  1  1.524913  0  0.219918  0.657561  0  4.091729  0
C  C175  1  0.43482401  0.44522539  0.22087227  1  1.524926  0  0.219942  0.6576  0  4.091717  0
C  C176  1  0.15481423  0.32897133  0.84896165  1  1.532804  0  0.222594  0.599988  0  4.089875  0
C  C177  1  0.34518533  0.67102896  0.34896136  1  1.532792  0  0.222692  0.600195  0  4.089752  0
C  C178  1  0.84518368  0.82897144  0.65103858  1  1.532766  0  0.222607  0.599877  0  4.089705  0
C  C179  1  0.65481579  0.17102874  0.15103815  1  1.532758  0  0.222609  0.599972  0  4.089853  0
C  C180  1  0.14272897  0.19936693  0.93785859  1  -0.101389  0  -0.239701  -0.398504  0  3.913915  0
C  C181  1  0.35727215  0.80063428  0.43785794  1  -0.101332  0  -0.239708  -0.398434  0  3.914009  0
C  C182  1  0.85726828  0.69936471  0.56214358  1  -0.101239  0  -0.239711  -0.398533  0  3.91385  0
C  C183  1  0.64272809  0.30063246  0.06214174  1  -0.101397  0  -0.239749  -0.398521  0  3.913927  0
C  C184  1  0.99035653  0.25156289  0.76244714  1  -0.031275  0  -0.246093  -0.428135  0  3.880562  0
C  C185  1  0.50964373  0.74843616  0.26244642  1  -0.031247  0  -0.246047  -0.428195  0  3.880614  0
C  C186  1  0.00964378  0.75156307  0.73755193  1  -0.031183  0  -0.246109  -0.428201  0  3.880672  0
C  C187  1  0.49035656  0.24843696  0.23755266  1  -0.031245  0  -0.246108  -0.428211  0  3.880558  0
C  C188  1  0.92924253  0.23905269  0.88663423  1  -0.087831  0  -0.244407  -0.427668  0  3.896911  0
C  C189  1  0.57075696  0.76094805  0.38663352  1  -0.08759  0  -0.24441  -0.427719  0  3.896811  0
C  C190  1  0.07075546  0.73905184  0.61336483  1  -0.08794  0  -0.244376  -0.427679  0  3.896978  0
C  C191  1  0.42924410  0.26094860  0.11336558  1  -0.087606  0  -0.244399  -0.427706  0  3.896862  0
C  C192  1  0.44488561  0.93173450  0.74077625  1  0.02815  0  -0.008469  0.018586  0  3.717333  0
C  C193  1  0.05511473  0.06826694  0.24077674  1  0.028148  0  -0.008471  0.018587  0  3.717383  0
C  C194  1  0.55511532  0.43173390  0.75922358  1  0.028238  0  -0.008497  0.018569  0  3.717405  0
C  C195  1  0.94488649  0.56826724  0.25922368  1  0.028233  0  -0.008533  0.018643  0  3.717238  0
C  C196  1  0.35808043  0.92644779  0.79612239  1  -0.019915  0  -0.168864  -0.192255  0  3.900217  0
C  C197  1  0.14191991  0.07355378  0.29612236  1  -0.01968  0  -0.168869  -0.192314  0  3.900294  0
C  C198  1  0.64191973  0.42644701  0.70387797  1  -0.020035  0  -0.168878  -0.192292  0  3.900286  0
C  C199  1  0.85808052  0.57355330  0.20387807  1  -0.019689  0  -0.168844  -0.192293  0  3.900232  0
C  C200  1  0.27395676  0.86416752  0.76370263  1  -0.015306  0  -0.17063  -0.163073  0  3.918758  0
C  C201  1  0.22604281  0.13583257  0.26370321  1  -0.015323  0  -0.170635  -0.163078  0  3.918758  0
C  C202  1  0.72604268  0.36416816  0.73629660  1  -0.015344  0  -0.17066  -0.163148  0  3.918829  0
C  C203  1  0.77395757  0.63583293  0.23629731  1  -0.015328  0  -0.170655  -0.163169  0  3.918855  0
C  C204  1  0.32858561  0.80340151  0.70775580  1  -0.040313  0  -0.086058  -0.183717  0  3.77495  0
C  C205  1  0.17141550  0.19659915  0.20775593  1  -0.040323  0  -0.08602  -0.183747  0  3.775013  0
C  C206  1  0.67141465  0.30340161  0.79224387  1  -0.040319  0  -0.08603  -0.183701  0  3.775035  0
C  C207  1  0.82858483  0.69659891  0.29224414  1  -0.040319  0  -0.086031  -0.183657  0  3.774969  0
C  C208  1  0.44771595  0.82877025  0.70911163  1  0.050644  0  0.001702  0.210542  0  3.658435  0
C  C209  1  0.05228517  0.17123041  0.20911172  1  0.050631  0  0.001641  0.210412  0  3.658603  0
C  C210  1  0.55228507  0.32877044  0.79088860  1  0.050742  0  0.001659  0.210391  0  3.658605  0
C  C211  1  0.94771596  0.67123078  0.29088884  1  0.050627  0  0.001701  0.210449  0  3.658564  0
C  C212  1  0.54858342  0.95559247  0.77531857  1  1.554911  0  0.235094  0.645909  0  4.081864  0
C  C213  1  0.95141683  0.04441011  0.27531903  1  1.555341  0  0.235024  0.645775  0  4.081987  0
C  C214  1  0.45141749  0.45559046  0.72468131  1  1.555396  0  0.235102  0.645888  0  4.081832  0
C  C215  1  0.04858362  0.54441024  0.22468084  1  1.554913  0  0.235081  0.64579  0  4.081909  0
C  C216  1  0.31187980  0.69859739  0.71567543  1  1.57393  0  0.23748  0.682272  0  4.099827  0
C  C217  1  0.18811976  0.30140258  0.21567570  1  1.573921  0  0.237482  0.682328  0  4.099753  0
C  C218  1  0.68811900  0.19859747  0.78432410  1  1.57393  0  0.237509  0.682347  0  4.099687  0
C  C219  1  0.81188125  0.80140303  0.28432345  1  1.57393  0  0.237501  0.682313  0  4.099654  0
C  C220  1  0.41867479  0.00486011  0.68396031  1  -0.086438  0  -0.242356  -0.396233  0  3.898103  0
C  C221  1  0.08132709  0.99513909  0.18396202  1  -0.085938  0  -0.242357  -0.396269  0  3.898248  0
C  C222  1  0.58132572  0.50485939  0.81604002  1  -0.086524  0  -0.242356  -0.396255  0  3.898174  0
C  C223  1  0.91867531  0.49514119  0.31603949  1  -0.086523  0  -0.242327  -0.396152  0  3.898043  0
C  C224  1  0.50796198  0.76266844  0.75809633  1  -0.096435  0  -0.247267  -0.432386  0  3.886639  0
C  C225  1  0.99203827  0.23733200  0.25809652  1  -0.096451  0  -0.247289  -0.432386  0  3.886607  0
C  C226  1  0.49203831  0.26266784  0.74190434  1  -0.096536  0  -0.24728  -0.432373  0  3.886666  0
C  C227  1  0.00796125  0.73733220  0.24190412  1  -0.096444  0  -0.247291  -0.432408  0  3.88671  0
C  C228  1  0.49615254  0.82206025  0.63561472  1  -0.097971  0  -0.244237  -0.416024  0  3.896838  0
C  C229  1  0.00384857  0.17793954  0.13561535  1  -0.097743  0  -0.244247  -0.415987  0  3.896842  0
C  C230  1  0.50384848  0.32206064  0.86438550  1  -0.097858  0  -0.24426  -0.415985  0  3.89676  0
C  C231  1  0.99615255  0.67794005  0.36438522  1  -0.097761  0  -0.244228  -0.415947  0  3.896841  0
C  C232  1  0.57071510  0.76716420  0.01694576  1  -0.021904  0  -0.010024  -0.033041  0  3.950543  0
C  C233  1  0.92928360  0.23283777  0.51694593  1  -0.02195  0  -0.009979  -0.033038  0  3.950753  0
C  C234  1  0.42928595  0.26716281  0.48305387  1  -0.022076  0  -0.00995  -0.032921  0  3.950805  0
C  C235  1  0.07071595  0.73283709  0.98305523  1  -0.021792  0  -0.009972  -0.032935  0  3.950488  0
C  C236  1  0.52344412  0.75450829  0.95106162  1  -0.072819  0  -0.084752  -0.108138  0  3.971133  0
C  C237  1  0.97655381  0.24549330  0.45106235  1  -0.072981  0  -0.084753  -0.10818  0  3.971265  0
C  C238  1  0.47655695  0.25450796  0.54893746  1  -0.072824  0  -0.084759  -0.108135  0  3.971353  0
C  C239  1  0.02344338  0.74549233  0.04893936  1  -0.072786  0  -0.084754  -0.108208  0  3.971142  0
C  C240  1  0.46121028  0.67646447  0.93885665  1  -0.033835  0  -0.076784  -0.083261  0  3.961724  0
C  C241  1  0.03878697  0.32353743  0.43885641  1  -0.037925  0  -0.076776  -0.083177  0  3.96173  0
C  C242  1  0.53878931  0.17646342  0.56114233  1  -0.033832  0  -0.07676  -0.08322  0  3.961751  0
C  C243  1  0.96120938  0.82353585  0.06114435  1  -0.038108  0  -0.076834  -0.083363  0  3.961738  0
C  C244  1  0.44577700  0.60982446  0.99224628  1  -0.118908  0  -0.010958  -0.047728  0  3.954234  0
C  C245  1  0.05422335  0.39017616  0.49224614  1  -0.114766  0  -0.010952  -0.047668  0  3.954358  0
C  C246  1  0.55422342  0.10982398  0.50775260  1  -0.118991  0  -0.010944  -0.0477  0  3.954238  0
C  C247  1  0.94577759  0.89017657  0.00775471  1  -0.114787  0  -0.01094  -0.04766  0  3.954242  0
C  C248  1  0.49187385  0.62368243  0.05849060  1  0.012229  0  -0.079019  -0.090929  0  3.97593  0
C  C249  1  0.00812493  0.37631858  0.55848937  1  0.012257  0  -0.07901  -0.090935  0  3.976169  0
C  C250  1  0.50812499  0.12368230  0.44150884  1  0.012274  0  -0.079  -0.090873  0  3.976032  0
C  C251  1  0.99187449  0.87631857  0.94151039  1  0.012289  0  -0.079015  -0.090919  0  3.976003  0
C  C252  1  0.55384652  0.70171923  0.07086591  1  0.014494  0  -0.078659  -0.086475  0  3.953266  0
C  C253  1  0.94615217  0.29828287  0.57086669  1  0.014569  0  -0.07868  -0.086486  0  3.953452  0
C  C254  1  0.44615303  0.20171841  0.42913258  1  0.014735  0  -0.078633  -0.086531  0  3.95346  0
C  C255  1  0.05384732  0.79828207  0.92913508  1  0.0145  0  -0.0787  -0.086557  0  3.953364  0
C  C256  1  0.63846150  0.85085199  0.02963168  1  1.599129  0  0.249013  0.679765  0  4.126544  0
C  C257  1  0.86153874  0.14915071  0.52963121  1  1.598995  0  0.249032  0.679748  0  4.126491  0
C  C258  1  0.36154180  0.35084992  0.47036859  1  1.598875  0  0.248985  0.679706  0  4.126489  0
C  C259  1  0.13846087  0.64914855  0.97036931  1  1.598992  0  0.24904  0.679804  0  4.126394  0
C  C260  1  0.37837159  0.52590019  0.97918700  1  1.557885  0  0.238218  0.654928  0  4.16618  0
C  C261  1  0.12162953  0.47410111  0.47918486  1  1.558032  0  0.238161  0.654753  0  4.16644  0
C  C262  1  0.62162967  0.02589969  0.52081388  1  1.558019  0  0.238175  0.654821  0  4.166216  0
C  C263  1  0.87837134  0.97410089  0.02081399  1  1.558005  0  0.238196  0.654889  0  4.166269  0
O  O264  1  0.84407732  0.03287159  0.80356109  1  -1.225916  0  -0.456805  -0.788319  0  2.412722  0
O  O265  1  0.65592139  0.96712544  0.30356066  1  -1.225867  0  -0.456829  -0.788388  0  2.412727  0
O  O266  1  0.15592084  0.53287298  0.69643822  1  -1.225856  0  -0.456799  -0.78832  0  2.412733  0
O  O267  1  0.34407872  0.46712555  0.19643818  1  -1.225829  0  -0.456813  -0.788335  0  2.41269  0
O  O268  1  0.95358296  0.04363522  0.71426910  1  -1.179068  0  -0.362513  -0.605984  0  2.155888  0
O  O269  1  0.54641729  0.95636371  0.21426864  1  -1.179074  0  -0.362492  -0.605962  0  2.155987  0
O  O270  1  0.04641829  0.54363760  0.78573181  1  -1.179073  0  -0.362471  -0.605929  0  2.155955  0
O  O271  1  0.45358283  0.45636465  0.28573071  1  -1.179057  0  -0.362502  -0.605936  0  2.155969  0
O  O272  1  0.13671646  0.39046993  0.89642557  1  -1.199251  0  -0.339279  -0.617749  0  2.241084  0
O  O273  1  0.36328234  0.60953187  0.39642520  1  -1.199222  0  -0.339361  -0.617901  0  2.241047  0
O  O274  1  0.86328063  0.89046711  0.60357316  1  -1.199228  0  -0.339326  -0.617754  0  2.241077  0
O  O275  1  0.63671807  0.10953226  0.10357264  1  -1.19919  0  -0.339255  -0.617723  0  2.241141  0
O  O276  1  0.19742670  0.35627189  0.79129890  1  -1.205348  0  -0.368166  -0.649588  0  2.325068  0
O  O277  1  0.30257441  0.64372897  0.29129804  1  -1.205386  0  -0.368166  -0.649642  0  2.325058  0
O  O278  1  0.80257119  0.85627146  0.70870190  1  -1.205346  0  -0.368137  -0.649508  0  2.324919  0
O  O279  1  0.69742829  0.14372675  0.20870091  1  -1.205372  0  -0.368203  -0.649584  0  2.325006  0
O  O280  1  0.62686517  0.97479512  0.73676897  1  -1.232136  0  -0.422448  -0.733282  0  2.398982  0
O  O281  1  0.87313431  0.02520596  0.23677046  1  -1.232615  0  -0.422426  -0.733196  0  2.39897  0
O  O282  1  0.37313495  0.47479256  0.76323040  1  -1.232599  0  -0.422417  -0.733218  0  2.398946  0
O  O283  1  0.12686772  0.52520753  0.26322832  1  -1.232113  0  -0.422442  -0.733219  0  2.399037  0
O  O284  1  0.55513448  0.95394349  0.84226845  1  -1.204239  0  -0.396511  -0.660902  0  2.271545  0
O  O285  1  0.94486733  0.04605574  0.34226997  1  -1.204209  0  -0.39649  -0.660872  0  2.271538  0
O  O286  1  0.44486798  0.45393993  0.65773089  1  -1.204261  0  -0.396558  -0.660946  0  2.271533  0
O  O287  1  0.05513235  0.54606061  0.15773042  1  -1.204283  0  -0.39654  -0.660905  0  2.271475  0
O  O288  1  0.32882359  0.64913479  0.66049854  1  -1.223307  0  -0.412909  -0.712794  0  2.325017  0
O  O289  1  0.17117829  0.35086506  0.16049834  1  -1.223297  0  -0.412912  -0.712818  0  2.32494  0
O  O290  1  0.67117757  0.14913640  0.83950199  1  -1.223298  0  -0.412902  -0.712818  0  2.324929  0
O  O291  1  0.82882269  0.85086492  0.33950140  1  -1.223309  0  -0.412936  -0.71283  0  2.324874  0
O  O292  1  0.28433406  0.66548725  0.77492497  1  -1.209277  0  -0.39248  -0.663793  0  2.280603  0
O  O293  1  0.21566550  0.33451357  0.27492528  1  -1.209308  0  -0.392492  -0.663821  0  2.280632  0
O  O294  1  0.71566321  0.16548646  0.72507399  1  -1.209299  0  -0.392525  -0.663837  0  2.280563  0
O  O295  1  0.78433471  0.83451319  0.22507444  1  -1.209315  0  -0.392499  -0.663802  0  2.28057  0
O  O296  1  0.65847969  0.87252275  0.09303306  1  -1.19923  0  -0.406042  -0.666492  0  2.286626  0
O  O297  1  0.84151978  0.12747870  0.59303046  1  -1.199166  0  -0.40604  -0.666408  0  2.286504  0
O  O298  1  0.34152127  0.37252265  0.40697040  1  -1.199136  0  -0.406006  -0.666413  0  2.286498  0
O  O299  1  0.15848217  0.62747637  0.90696951  1  -1.19919  0  -0.406059  -0.666461  0  2.286465  0
O  O300  1  0.67273423  0.89473340  0.97602317  1  -1.217449  0  -0.416523  -0.691953  0  2.30731  0
O  O301  1  0.82726525  0.10526754  0.47602212  1  -1.217437  0  -0.416566  -0.692019  0  2.307198  0
O  O302  1  0.32726595  0.39473311  0.52397821  1  -1.217321  0  -0.41658  -0.692021  0  2.307195  0
O  O303  1  0.17273515  0.60526852  0.02397835  1  -1.217424  0  -0.416533  -0.692022  0  2.307281  0
O  O304  1  0.35461326  0.47421980  0.03191431  1  -1.209269  0  -0.41834  -0.701326  0  2.283276  0
O  O305  1  0.14538707  0.52577905  0.53191487  1  -1.209209  0  -0.418344  -0.701263  0  2.283297  0
O  O306  1  0.64538839  0.97421939  0.46808559  1  -1.209335  0  -0.418359  -0.701334  0  2.283285  0
O  O307  1  0.85461110  0.02578014  0.96808655  1  -1.209229  0  -0.418345  -0.701337  0  2.283357  0
O  O308  1  0.34822960  0.50979973  0.91663307  1  -1.203798  0  -0.407886  -0.683446  0  2.359702  0
O  O309  1  0.15176996  0.49019931  0.41663148  1  -1.203869  0  -0.407876  -0.683412  0  2.359822  0
O  O310  1  0.65176935  0.00980146  0.58336779  1  -1.203828  0  -0.407864  -0.683386  0  2.359664  0
O  O311  1  0.84822935  0.99020137  0.08336792  1  -1.203851  0  -0.407866  -0.683394  0  2.359652  0
O  O312  1  0.77262295  0.84876738  0.84562864  1  -1.278157  0  -0.625852  -0.86005  0  2.043736  0
O  O313  1  0.72737808  0.15123256  0.34562871  1  -1.278159  0  -0.625878  -0.860038  0  2.043754  0
O  O314  1  0.22737650  0.34876676  0.65437056  1  -1.278178  0  -0.625851  -0.86006  0  2.043775  0
O  O315  1  0.27262074  0.65123097  0.15437182  1  -1.278089  0  -0.62591  -0.860072  0  2.043783  0
O  O316  1  0.61035576  0.09772886  0.96705827  1  -1.260029  0  -0.645856  -0.861349  0  2.025789  0
O  O317  1  0.88964528  0.90227067  0.46705828  1  -1.260017  0  -0.645836  -0.861316  0  2.025805  0
O  O318  1  0.38964390  0.59772900  0.53294219  1  -1.260031  0  -0.645853  -0.861332  0  2.02575  0
O  O319  1  0.11035566  0.40227195  0.03294206  1  -1.260022  0  -0.645836  -0.861323  0  2.025785  0
