# generated using pymatgen
data_CuH14C15N2O5
_symmetry_space_group_name_H-M   'P 1'
_cell_length_a   8.83091125
_cell_length_b   10.72129295
_cell_length_c   11.55245128
_cell_angle_alpha   100.24438606
_cell_angle_beta   104.87238619
_cell_angle_gamma   101.66406796
_symmetry_Int_Tables_number   1
_chemical_formula_structural   CuH14C15N2O5
_chemical_formula_sum   'Cu2 H28 C30 N4 O10'
_cell_volume   1004.34309955
_cell_formula_units_Z   2
loop_
 _symmetry_equiv_pos_site_id
 _symmetry_equiv_pos_as_xyz
  1  'x, y, z'
loop_
 _atom_site_type_symbol
 _atom_site_label
 _atom_site_symmetry_multiplicity
 _atom_site_fract_x
 _atom_site_fract_y
 _atom_site_fract_z
 _atom_site_occupancy
 _atom_site_hle17_ddec_charge
 _atom_site_hle17_ddec_spin_density
 _atom_site_hle17_ddec_sum_bond_order
 _atom_site_hle17_magmom
 _atom_site_hse06_10hf_ddec_charge
 _atom_site_hse06_10hf_ddec_spin_density
 _atom_site_hse06_10hf_ddec_sum_bond_order
 _atom_site_hse06_10hf_magmom
 _atom_site_hse06_ddec_charge
 _atom_site_hse06_ddec_spin_density
 _atom_site_hse06_ddec_sum_bond_order
 _atom_site_hse06_magmom
 _atom_site_pbe_cm5_charge
 _atom_site_pbe_ddec_charge
 _atom_site_pbe_ddec_spin_density
 _atom_site_pbe_ddec_sum_bond_order
 _atom_site_pbe_magmom
Cu  Cu0  1  0.00000064  0.00000198  0.00000217  1  0.811522  0.691115  1.691027  0.47  0.783325  0.777243  2.059288  0.581  0.869744  0.851608  1.996115  0.659  0.728327  0.730514  0.724523  2.103256  0.532
Cu  Cu1  1  0.49999905  0.99999836  0.49999942  1  0.829407  -0.70921  1.776589  -0.491  0.800593  -0.792573  2.158717  -0.602  0.89035  -0.868804  2.091058  -0.683  0.739413  0.744446  -0.736145  2.207537  -0.548
H  H2  1  0.01878107  0.83672403  0.32720324  1  0.155018  0.000121  0.939427  0.0  0.162201  0.000293  1.002757  0.0  0.166724  0.000221  0.998179  0.0  0.119526  0.158724  0.000347  1.006511  0.0
H  H3  1  0.98122550  0.16328311  0.67279891  1  0.15504  0.000121  0.939414  0.0  0.16218  0.000293  1.00279  0.0  0.166704  0.000221  0.998213  0.0  0.119516  0.158704  0.000347  1.006537  0.0
H  H4  1  0.94519084  0.42610314  0.71764756  1  0.101153  2e-05  0.932412  0.0  0.112395  2.5e-05  0.987613  0.0  0.11596  1.9e-05  0.98481  0.0  0.105872  0.109839  2e-05  0.989641  0.0
H  H5  1  0.05480252  0.57389220  0.28234668  1  0.101118  2e-05  0.932472  0.0  0.112394  2.5e-05  0.987646  0.0  0.115927  1.9e-05  0.984881  0.0  0.10587  0.109837  2e-05  0.989674  0.0
H  H6  1  0.06938146  0.65209303  0.69741369  1  0.124636  -7.9e-05  0.92773  0.0  0.136218  -6e-05  0.98162  0.0  0.139698  -3.6e-05  0.980401  0.0  0.111368  0.133793  -7.6e-05  0.982558  0.0
H  H7  1  0.93061724  0.34790429  0.30258451  1  0.124627  -7.9e-05  0.927726  0.0  0.136212  -6e-05  0.981614  0.0  0.139692  -3.6e-05  0.980396  0.0  0.11137  0.133787  -7.6e-05  0.982554  0.0
H  H8  1  0.70654656  0.82768472  0.56137644  1  0.105601  -0.000704  0.950269  -0.002  0.112091  -0.0007  1.018045  -0.001  0.115127  -0.0005  1.015211  -0.001  0.123288  0.109686  -0.000848  1.02049  -0.002
H  H9  1  0.29345470  0.17230965  0.43862179  1  0.105632  -0.000703  0.950216  -0.002  0.112109  -0.0007  1.018003  -0.001  0.115146  -0.0005  1.015169  -0.001  0.123276  0.109705  -0.000848  1.02045  -0.002
H  H10  1  0.65183929  0.05243662  0.30318533  1  0.097994  -0.000595  0.956141  -0.001  0.102825  -0.000535  1.025236  -0.001  0.106414  -0.000399  1.020829  -0.001  0.121907  0.100073  -0.000647  1.028624  -0.001
H  H11  1  0.34815922  0.94756370  0.69681850  1  0.097959  -0.000596  0.956192  -0.001  0.102779  -0.000535  1.025297  -0.001  0.10637  -0.000399  1.020889  -0.001  0.121889  0.100026  -0.000647  1.028687  -0.001
H  H12  1  0.67897636  0.59282358  0.36393753  1  0.110699  1.5e-05  0.946607  0.0  0.122861  4e-06  0.999246  0.0  0.125739  0.0  0.99921  0.0  0.10478  0.120884  -1e-06  0.999397  0.0
H  H13  1  0.32102179  0.40717568  0.63605827  1  0.110649  1.6e-05  0.946656  0.0  0.122806  4e-06  0.999302  0.0  0.125682  0.0  0.999268  0.0  0.104771  0.120826  -1e-06  0.999453  0.0
H  H14  1  0.56006000  0.36930682  0.38426786  1  0.089126  -0.00029  0.966028  0.0  0.097651  -0.000193  1.031258  0.0  0.101381  -0.000129  1.028027  0.0  0.097946  0.095049  -0.000235  1.033508  0.0
H  H15  1  0.43993549  0.63069145  0.61572640  1  0.089113  -0.000292  0.96595  0.0  0.097659  -0.000193  1.031169  0.0  0.101389  -0.000129  1.027937  0.0  0.097971  0.095072  -0.000235  1.033403  0.0
H  H16  1  0.14387856  0.20079516  0.24658840  1  0.098957  0.000473  0.959355  0.001  0.116795  0.000398  1.026694  0.001  0.116503  0.000284  1.028798  0.001  0.103353  0.116882  0.000474  1.025256  0.001
H  H17  1  0.85612559  0.79920808  0.75341612  1  0.098906  0.000472  0.95938  0.001  0.116764  0.000398  1.026704  0.001  0.116472  0.000284  1.028807  0.001  0.103347  0.116851  0.000474  1.025265  0.001
H  H18  1  0.13572533  0.28813953  0.12943109  1  0.104922  0.00016  0.918014  0.0  0.127184  5.6e-05  0.97504  0.0  0.127365  2.4e-05  0.975436  0.0  0.111186  0.126723  8.3e-05  0.975129  0.0
H  H19  1  0.86427882  0.71186372  0.87057430  1  0.104932  0.000161  0.917917  0.0  0.127185  5.5e-05  0.974965  0.0  0.127366  2.4e-05  0.97536  0.0  0.111191  0.126723  8.3e-05  0.975053  0.0
H  H20  1  0.32734304  0.29989083  0.23780298  1  0.086082  0.004305  0.940303  0.005  0.110804  0.003016  0.997872  0.003  0.11105  0.002243  0.998066  0.003  0.098747  0.110494  0.00352  0.997771  0.004
H  H21  1  0.67266164  0.70011045  0.76220047  1  0.086062  0.004306  0.94014  0.005  0.110769  0.003016  0.997739  0.003  0.111017  0.002244  0.997929  0.003  0.098744  0.110458  0.00352  0.997641  0.004
H  H22  1  0.44714184  0.11343808  0.22003469  1  0.094416  0.004514  0.946429  0.006  0.114697  0.003028  1.00943  0.004  0.115537  0.002231  1.008527  0.003  0.097325  0.11404  0.003538  1.010052  0.004
H  H23  1  0.55285752  0.88656124  0.77996828  1  0.094373  0.004515  0.946493  0.006  0.114673  0.003028  1.009471  0.004  0.115513  0.002231  1.00857  0.003  0.097318  0.114017  0.003538  1.01009  0.004
H  H24  1  0.34373101  0.96946524  0.09604102  1  0.11275  0.000178  0.922428  0.0  0.133214  0.000104  0.981208  0.0  0.133836  6.6e-05  0.981271  0.0  0.10941  0.132535  0.000141  0.981451  0.0
H  H25  1  0.65626749  0.03053506  0.90396107  1  0.112792  0.000178  0.922362  0.0  0.133235  0.000104  0.981173  0.0  0.133858  6.6e-05  0.981235  0.0  0.109431  0.132558  0.000141  0.981418  0.0
H  H26  1  0.27103765  0.00049190  0.22606788  1  0.116892  0.000599  0.939393  0.001  0.134105  0.000483  1.005862  0.001  0.134665  0.000359  1.005956  0.001  0.10568  0.133361  0.000572  1.006283  0.001
H  H27  1  0.72896085  0.99950840  0.77393421  1  0.116928  0.000601  0.939387  0.001  0.13414  0.000483  1.005839  0.001  0.134702  0.000359  1.005933  0.001  0.105685  0.133396  0.000572  1.006259  0.001
H  H28  1  0.26815865  0.14905041  0.03418744  1  0.248019  -0.000921  0.883365  -0.002  0.254062  0.000292  0.914468  0.0  0.258274  -2.8e-05  0.914732  -0.001  0.310132  0.251241  0.000548  0.914433  0.0
H  H29  1  0.73184400  0.85095185  0.96581577  1  0.248033  -0.00092  0.883407  -0.002  0.254078  0.000292  0.914506  0.0  0.25829  -2.7e-05  0.914771  -0.001  0.310136  0.251258  0.000548  0.914471  0.0
C  C30  1  0.91975224  0.86584093  0.35613001  1  -0.115913  0.006727  3.632227  0.006  -0.156176  0.00293  3.880046  0.002  -0.151101  0.00305  3.893356  0.003  -0.068175  -0.160177  0.002737  3.872171  0.002
C  C31  1  0.08025157  0.13416132  0.64387170  1  -0.115954  0.006734  3.632172  0.006  -0.156208  0.00293  3.879957  0.002  -0.151136  0.003052  3.893268  0.003  -0.068196  -0.160204  0.002737  3.872076  0.002
C  C32  1  0.88840214  0.46429547  0.64090672  1  -0.042302  0.000661  3.744731  0.0  -0.06637  -0.0002  3.993762  0.0  -0.064072  2.9e-05  4.013374  0.0  -0.078941  -0.067566  -0.000296  3.9801  0.0
C  C33  1  0.11159366  0.53570379  0.35908776  1  -0.042302  0.000705  3.744683  0.0  -0.066432  -0.000203  3.993737  0.0  -0.064109  3e-05  4.013354  0.0  -0.078994  -0.067625  -0.000296  3.980074  0.0
C  C34  1  0.95727485  0.58875500  0.63033312  1  -0.179723  -0.00132  3.746787  -0.001  -0.201344  -0.0004  4.006237  0.0  -0.20814  -0.000364  4.027326  0.0  -0.098619  -0.196729  -0.000674  3.99166  -0.001
C  C35  1  0.04272299  0.41124329  0.36966333  1  -0.179761  -0.001362  3.7467  -0.001  -0.201374  -0.000401  4.006169  0.0  -0.208169  -0.000361  4.027242  0.0  -0.098601  -0.196759  -0.000673  3.991589  -0.001
C  C36  1  0.88182948  0.63335217  0.52963536  1  0.275806  0.001316  3.794228  0.001  0.264731  0.000323  4.060167  0.0  0.276262  0.000352  4.076806  0.0  0.089179  0.257001  0.000374  4.048512  0.0
C  C37  1  0.11816985  0.36664710  0.47036154  1  0.275881  0.001353  3.794092  0.001  0.26476  0.000326  4.060062  0.0  0.276293  0.000349  4.076702  0.0  0.089174  0.257052  0.000374  4.048406  0.0
C  C38  1  0.83554578  0.94715636  0.29929472  1  -0.080164  9e-06  3.741585  0.0  -0.052135  0.001237  3.973518  0.001  -0.063882  0.000326  3.99483  0.0  -0.011046  -0.04469  0.001883  3.959767  0.002
C  C39  1  0.16445953  0.05284688  0.70071003  1  -0.080245  3e-06  3.741693  0.0  -0.052125  0.001238  3.973481  0.001  -0.063872  0.000322  3.994791  0.0  -0.011044  -0.044682  0.001882  3.959738  0.002
C  C40  1  0.74609489  0.38372592  0.55165562  1  -0.078526  -0.008234  3.76854  -0.008  -0.058222  -0.00486  4.00233  -0.005  -0.06769  -0.003621  4.024758  -0.004  -0.026785  -0.051673  -0.005801  3.98698  -0.006
C  C41  1  0.25390378  0.61627136  0.44833737  1  -0.078363  -0.008272  3.768296  -0.009  -0.057986  -0.004854  4.00204  -0.005  -0.067445  -0.003626  4.024455  -0.004  -0.026677  -0.051436  -0.0058  3.986692  -0.006
C  C42  1  0.87482261  0.82460412  0.45307565  1  0.216522  -0.006904  3.813361  -0.007  0.212049  -0.003338  4.080475  -0.004  0.215376  -0.003107  4.097882  -0.004  0.087538  0.209164  -0.003406  4.069064  -0.004
C  C43  1  0.12517822  0.17539616  0.54692516  1  0.216509  -0.006909  3.81326  -0.007  0.212042  -0.003337  4.080315  -0.004  0.215368  -0.003109  4.097723  -0.004  0.087524  0.209178  -0.003406  4.068901  -0.004
C  C44  1  0.74835194  0.86224145  0.48905926  1  0.028205  0.004953  3.662839  0.006  -0.013136  0.000588  3.924111  0.002  -0.004506  0.001659  3.939146  0.003  0.045371  -0.01846  -0.000243  3.914927  0.001
C  C45  1  0.25164559  0.13775587  0.51093870  1  0.028157  0.004958  3.662793  0.006  -0.013161  0.000588  3.924031  0.002  -0.004537  0.00166  3.939072  0.003  0.045418  -0.018485  -0.000243  3.914843  0.001
C  C46  1  0.68077473  0.24666253  0.55987472  1  0.625353  0.004327  3.922036  0.008  0.581933  0.000774  4.226998  0.004  0.619221  0.001138  4.220287  0.003  0.189671  0.556473  0.000412  4.231153  0.004
C  C47  1  0.31922715  0.75333378  0.44012134  1  0.625093  0.00433  3.922333  0.008  0.581629  0.000772  4.227337  0.004  0.618916  0.001139  4.220626  0.003  0.189535  0.556169  0.000411  4.231494  0.004
C  C48  1  0.71408912  0.98513211  0.34269432  1  0.123213  0.005901  3.641656  0.006  0.080098  0.001337  3.893371  0.002  0.090719  0.002193  3.910303  0.003  0.055284  0.072887  0.000592  3.882659  0.001
C  C49  1  0.28591087  0.01486917  0.65730822  1  0.123338  0.005906  3.641826  0.006  0.080199  0.001336  3.893545  0.002  0.090821  0.002197  3.910474  0.003  0.055336  0.072991  0.000591  3.882836  0.001
C  C50  1  0.73694644  0.55668767  0.44169539  1  -0.208711  -0.001249  3.790731  -0.001  -0.227476  -0.000327  4.042284  0.0  -0.235404  -0.000327  4.064244  0.0  -0.109477  -0.222065  -0.000245  4.027303  0.0
C  C51  1  0.26305255  0.44331058  0.55829782  1  -0.208664  -0.001287  3.790708  -0.001  -0.227403  -0.000329  4.042272  0.0  -0.23533  -0.000326  4.064234  0.0  -0.109437  -0.221991  -0.000245  4.027289  0.0
C  C52  1  0.67080873  0.43191248  0.45320512  1  -0.042738  0.001273  3.765891  0.002  -0.06499  5.7e-05  4.014432  0.0  -0.061827  0.00019  4.033178  0.0  -0.087252  -0.066885  -3.1e-05  4.001485  0.0
C  C53  1  0.32918708  0.56808678  0.54678936  1  -0.04282  0.001316  3.765729  0.002  -0.065126  5.3e-05  4.014309  0.0  -0.061966  0.000193  4.033056  0.0  -0.087361  -0.067033  -3.1e-05  4.001348  0.0
C  C54  1  0.87052775  0.99468794  0.19128143  1  0.610582  -0.004264  3.960214  -0.007  0.567094  -0.000842  4.264624  -0.004  0.603506  -0.001064  4.258445  -0.003  0.190495  0.542657  -0.000627  4.268114  -0.004
C  C55  1  0.12947117  0.00531727  0.80872065  1  0.610725  -0.004263  3.960043  -0.007  0.56723  -0.000842  4.264414  -0.004  0.603642  -0.001064  4.258233  -0.003  0.190637  0.542793  -0.000627  4.267904  -0.004
C  C56  1  0.20745759  0.23392334  0.18332298  1  -0.151751  -0.001928  3.667542  -0.004  -0.248422  0.000451  3.92956  -0.002  -0.244618  -0.000227  3.942459  -0.002  -0.14821  -0.250545  0.000993  3.921087  -0.001
C  C57  1  0.79254772  0.76607990  0.81668091  1  -0.151637  -0.001935  3.66734  -0.004  -0.248309  0.000451  3.929374  -0.002  -0.244501  -0.000228  3.942274  -0.002  -0.148204  -0.250436  0.000993  3.920901  -0.001
C  C58  1  0.32841216  0.04641564  0.16503721  1  -0.160192  -0.001504  3.621595  -0.004  -0.256205  0.000817  3.880709  -0.001  -0.252387  7e-05  3.892055  -0.002  -0.153076  -0.258325  0.001395  3.873363  -0.001
C  C59  1  0.67158836  0.95358367  0.83496512  1  -0.160188  -0.001508  3.621597  -0.004  -0.256191  0.000816  3.880705  -0.001  -0.252376  6.9e-05  3.892054  -0.002  -0.153078  -0.258311  0.001395  3.87336  -0.001
N  N60  1  0.67095382  0.94218928  0.43488274  1  -0.267947  -0.072485  3.360276  -0.089  -0.214694  -0.053742  3.653869  -0.07  -0.244122  -0.04588  3.675178  -0.063  -0.34528  -0.196717  -0.057395  3.64165  -0.072
N  N61  1  0.32904553  0.05781004  0.56511936  1  -0.267958  -0.072488  3.360288  -0.089  -0.214735  -0.053741  3.653918  -0.07  -0.244162  -0.04588  3.675229  -0.063  -0.345309  -0.196757  -0.057394  3.641701  -0.072
N  N62  1  0.22231124  0.11883912  0.10026346  1  -0.288427  0.093303  3.323672  0.112  -0.231192  0.064453  3.601633  0.082  -0.259752  0.054302  3.62001  0.073  -0.499085  -0.213711  0.069119  3.590296  0.085
N  N63  1  0.77769024  0.88116315  0.89974039  1  -0.288555  0.093307  3.323778  0.112  -0.231332  0.064453  3.601743  0.082  -0.259895  0.054303  3.620127  0.073  -0.499112  -0.21385  0.06912  3.590403  0.085
O  O64  1  0.96293273  0.75356869  0.51876823  1  -0.285253  -0.001412  2.362412  -0.002  -0.218772  -0.000748  2.587648  -0.001  -0.237864  -0.000548  2.594089  -0.001  -0.145992  -0.204561  -0.001152  2.5829  -0.001
O  O65  1  0.03706713  0.24642860  0.48122672  1  -0.285254  -0.001411  2.36224  -0.002  -0.218728  -0.000748  2.587439  -0.001  -0.237814  -0.000548  2.593873  -0.001  -0.145995  -0.204565  -0.001152  2.58272  -0.001
O  O66  1  0.73955850  0.20598627  0.65215545  1  -0.615816  0.00026  1.895843  -0.001  -0.587276  0.000625  2.120683  0.0  -0.611541  0.001331  2.10939  0.001  -0.335005  -0.570079  -6.2e-05  2.128404  -0.001
O  O67  1  0.26044136  0.79401102  0.34783950  1  -0.615707  0.000254  1.895979  -0.001  -0.587161  0.000625  2.120834  0.0  -0.611425  0.00133  2.10954  0.001  -0.334915  -0.569965  -6.2e-05  2.128561  -0.001
O  O68  1  0.56146967  0.17360258  0.46402233  1  -0.621166  -0.108162  2.060358  -0.138  -0.593918  -0.069687  2.346599  -0.097  -0.638502  -0.0552  2.340698  -0.081  -0.337414  -0.564371  -0.077992  2.350975  -0.105
O  O69  1  0.43852637  0.82639376  0.53597520  1  -0.621033  -0.108157  2.060374  -0.138  -0.593796  -0.069683  2.346625  -0.097  -0.638387  -0.055197  2.340745  -0.081  -0.337384  -0.56425  -0.077987  2.351005  -0.105
O  O70  1  0.97092046  0.94205659  0.14757614  1  -0.602326  0.09189  2.03429  0.117  -0.56947  0.063058  2.304344  0.087  -0.610025  0.051564  2.294475  0.075  -0.335998  -0.542713  0.069323  2.311075  0.093
O  O71  1  0.02907782  0.05794666  0.85242637  1  -0.602361  0.091885  2.034185  0.117  -0.569518  0.063055  2.304246  0.087  -0.610072  0.05156  2.294376  0.075  -0.336055  -0.542762  0.069321  2.310978  0.093
O  O72  1  0.80292375  0.07603684  0.14966666  1  -0.605462  -0.001909  1.86438  -0.001  -0.575154  -0.001054  2.077779  -0.001  -0.597956  -0.001624  2.067517  -0.002  -0.331573  -0.559704  -0.000532  2.084697  0.0
O  O73  1  0.19708262  0.92397328  0.85034026  1  -0.605519  -0.00191  1.864249  -0.001  -0.575232  -0.001054  2.077663  -0.001  -0.598033  -0.001624  2.067399  -0.002  -0.331646  -0.559783  -0.000532  2.08458  0.0
