# generated using pymatgen
data_CuH18C24SN2O7
_symmetry_space_group_name_H-M   'P 1'
_cell_length_a   6.76717242
_cell_length_b   16.40190108
_cell_length_c   23.37497251
_cell_angle_alpha   89.99988624
_cell_angle_beta   92.44161391
_cell_angle_gamma   89.99967091
_symmetry_Int_Tables_number   1
_chemical_formula_structural   CuH18C24SN2O7
_chemical_formula_sum   'Cu4 H72 C96 S4 N8 O28'
_cell_volume   2592.13781026
_cell_formula_units_Z   4
loop_
 _symmetry_equiv_pos_site_id
 _symmetry_equiv_pos_as_xyz
  1  'x, y, z'
loop_
 _atom_site_type_symbol
 _atom_site_label
 _atom_site_symmetry_multiplicity
 _atom_site_fract_x
 _atom_site_fract_y
 _atom_site_fract_z
 _atom_site_occupancy
 _atom_site_pbe_bader_charge
 _atom_site_pbe_bader_spin_density
 _atom_site_pbe_cm5_charge
 _atom_site_pbe_ddec_charge
 _atom_site_pbe_ddec_spin_density
 _atom_site_pbe_ddec_sum_bond_order
 _atom_site_pbe_magmom
Cu  Cu0  1  0.74607223  0.61944852  0.10489544  1  1.104103  -0.578699  0.746487  0.791388  -0.805822  2.314459  -0.577
Cu  Cu1  1  0.75391599  0.11944569  0.39510788  1  1.104177  0.578702  0.746573  0.791244  0.754906  2.315085  0.577
Cu  Cu2  1  0.25392766  0.38056224  0.89511274  1  1.104314  0.57869  0.746587  0.791281  0.754885  2.315143  0.577
Cu  Cu3  1  0.24603948  0.88054617  0.60489509  1  1.104189  0.578721  0.746517  0.791365  0.754923  2.314547  0.577
H  H4  1  0.73518596  0.47754352  0.18857541  1  0.115194  -0.00284  0.125206  0.10117  -0.001459  0.983775  -0.002
H  H5  1  0.76479556  0.97755852  0.31142177  1  0.114928  0.002843  0.125177  0.101108  0.001371  0.983776  0.002
H  H6  1  0.26486712  0.52245078  0.81142739  1  0.114895  0.002843  0.125196  0.10102  0.001368  0.983748  0.002
H  H7  1  0.23515245  0.02245895  0.68857470  1  0.115047  0.002842  0.125203  0.101061  0.001371  0.983754  0.002
H  H8  1  0.70743249  0.32456130  0.17860084  1  0.10885  -0.00104  0.114991  0.125567  -0.000573  0.990722  -0.001
H  H9  1  0.79250676  0.82457072  0.32138495  1  0.108705  0.001043  0.114837  0.125482  0.000547  0.990575  0.001
H  H10  1  0.29259537  0.67543788  0.82139355  1  0.108679  0.00102  0.114926  0.125528  0.000519  0.990898  0.001
H  H11  1  0.20743220  0.17544248  0.67859344  1  0.108555  0.001021  0.114999  0.125553  0.000525  0.990844  0.001
H  H12  1  0.68738853  0.26540125  0.07907909  1  0.124564  -2.3e-05  0.111732  0.119971  -1.2e-05  1.017889  0.0
H  H13  1  0.81257079  0.76539632  0.42090530  1  0.12418  2.3e-05  0.111721  0.120088  7e-06  1.01766  0.0
H  H14  1  0.31261123  0.73460768  0.92091540  1  0.124335  2.1e-05  0.111688  0.120024  3e-06  1.01781  0.0
H  H15  1  0.18740957  0.23459920  0.57907100  1  0.124587  2.1e-05  0.111738  0.119949  4e-06  1.017838  0.0
H  H16  1  0.71210361  0.35711550  0.99540361  1  0.169754  -0.001314  0.111686  0.135723  -0.000712  1.048543  -0.001
H  H17  1  0.78786555  0.85710633  0.50458840  1  0.169746  0.001283  0.111558  0.135689  0.000673  1.048503  0.001
H  H18  1  0.28787995  0.64289709  0.00459840  1  0.169482  0.001312  0.111597  0.135721  0.000668  1.048494  0.001
H  H19  1  0.21211640  0.14287578  0.49539989  1  0.169752  0.001284  0.111662  0.135711  0.000673  1.048541  0.001
H  H20  1  0.73911950  0.44476333  0.92922988  1  0.147637  -0.001494  0.118802  0.141074  -0.00083  1.012443  -0.001
H  H21  1  0.76085589  0.94476440  0.57077192  1  0.14762  0.001375  0.118812  0.141023  0.00068  1.012438  0.001
H  H22  1  0.26085228  0.55523340  0.07077670  1  0.14766  0.001492  0.118789  0.14104  0.000778  1.012515  0.001
H  H23  1  0.23910400  0.05522137  0.42922895  1  0.147954  0.001376  0.118762  0.14106  0.000681  1.01253  0.001
H  H24  1  0.77146760  0.55628522  0.85886730  1  0.075431  -4.4e-05  0.118263  0.117341  -3.3e-05  0.962694  0.0
H  H25  1  0.72854147  0.05629598  0.64113244  1  0.081288  5e-06  0.118293  0.117402  4e-06  0.962684  0.0
H  H26  1  0.22851893  0.44370176  0.14113602  1  0.081172  4.6e-05  0.118256  0.11736  2.7e-05  0.962601  0.0
H  H27  1  0.27142432  0.94369954  0.35886637  1  0.08134  5e-06  0.11829  0.117338  5e-06  0.962729  0.0
H  H28  1  0.80106929  0.70164512  0.89437903  1  0.091969  -0.001102  0.109228  0.115287  -0.000608  1.004082  -0.001
H  H29  1  0.69892876  0.20165788  0.60561567  1  0.091989  0.001093  0.109244  0.115345  0.000563  1.003938  0.001
H  H30  1  0.19891865  0.29834064  0.10561703  1  0.091892  0.001108  0.109241  0.115276  0.000576  1.003987  0.001
H  H31  1  0.30103406  0.79834191  0.39438225  1  0.091609  0.001087  0.109207  0.115202  0.000559  1.004152  0.001
H  H32  1  0.79695658  0.72714100  0.00019103  1  0.178679  -0.002558  0.122104  0.102013  -0.001309  1.015503  -0.002
H  H33  1  0.70303292  0.22713129  0.49979931  1  0.179117  0.002553  0.122197  0.102134  0.001223  1.015844  0.002
H  H34  1  0.20303133  0.27287098  0.99980161  1  0.178664  0.002549  0.122174  0.102092  0.001219  1.015784  0.002
H  H35  1  0.29691802  0.77285082  0.50019419  1  0.178974  0.002561  0.122173  0.102117  0.001228  1.015629  0.002
H  H36  1  0.73125003  0.88130963  0.11696577  1  0.129724  -0.000415  0.112172  0.122567  -0.000359  0.981876  0.0
H  H37  1  0.76877429  0.38131594  0.38303118  1  0.129727  0.000415  0.112191  0.122634  0.000338  0.981781  0.0
H  H38  1  0.26873059  0.11868894  0.88303834  1  0.12962  0.000421  0.112135  0.122521  0.000343  0.981847  0.0
H  H39  1  0.23125208  0.61869116  0.61696233  1  0.129512  0.000422  0.112156  0.12257  0.000344  0.981897  0.0
H  H40  1  0.64587478  0.02987246  0.10819452  1  0.104263  -2.5e-05  0.101979  0.104685  -8e-06  1.045518  0.0
H  H41  1  0.85414869  0.52987727  0.39180249  1  0.104059  2.6e-05  0.102023  0.104682  8e-06  1.045659  0.0
H  H42  1  0.35410582  0.97012428  0.89180703  1  0.104193  3.1e-05  0.102008  0.104776  9e-06  1.04552  0.0
H  H43  1  0.14590289  0.47012556  0.60819902  1  0.10429  3.3e-05  0.102007  0.104668  1e-05  1.04547  0.0
H  H44  1  0.06970848  0.96446429  0.03511823  1  0.09725  -0.000194  0.105901  0.112747  -0.0001  1.032175  0.0
H  H45  1  0.43031292  0.46446451  0.46489103  1  0.123903  0.000205  0.105827  0.11264  0.000105  1.032307  0.0
H  H46  1  0.93027952  0.03553001  0.96488383  1  0.097216  0.000198  0.105922  0.112748  9.7e-05  1.032203  0.0
H  H47  1  0.56973282  0.53551943  0.53511768  1  0.097364  0.000211  0.105909  0.112725  0.000107  1.03213  0.0
H  H48  1  0.15501832  0.81807261  0.04586633  1  0.102796  -1.6e-05  0.10921  0.11891  -3e-06  0.99663  0.0
H  H49  1  0.34498443  0.31807732  0.45413778  1  0.102811  2e-05  0.109154  0.118846  4e-06  0.996802  0.0
H  H50  1  0.84495781  0.18191864  0.95413217  1  0.103022  1.6e-05  0.109248  0.118984  1e-06  0.996715  0.0
H  H51  1  0.65502276  0.68191027  0.54586065  1  0.102723  1.9e-05  0.10922  0.118962  3e-06  0.996643  0.0
H  H52  1  0.18254688  0.12189563  0.27304215  1  0.157919  0.000234  0.108901  0.121809  0.000216  1.012927  0.0
H  H53  1  0.31747647  0.62190161  0.22696418  1  0.158135  -0.000234  0.108802  0.1217  -0.00023  1.012905  0.0
H  H54  1  0.81745887  0.87809623  0.72696054  1  0.157965  0.000234  0.108877  0.121769  0.000216  1.012902  0.0
H  H55  1  0.68255302  0.37811830  0.77304605  1  0.15769  0.000235  0.108873  0.12176  0.000217  1.012944  0.0
H  H56  1  0.39311142  0.10904944  0.18903223  1  0.076415  3.6e-05  0.106749  0.111421  1.4e-05  1.022281  0.0
H  H57  1  0.10690175  0.60905810  0.31097272  1  0.07673  -3.6e-05  0.106777  0.111459  -1.6e-05  1.02214  0.0
H  H58  1  0.60688100  0.89093450  0.81096817  1  0.076531  3.7e-05  0.106793  0.111505  1.4e-05  1.022249  0.0
H  H59  1  0.89313514  0.39095022  0.68903846  1  0.076377  3.7e-05  0.106737  0.111454  1.4e-05  1.022423  0.0
H  H60  1  0.87754410  0.14238176  0.07554545  1  0.118517  0.000228  0.10876  0.116301  0.000115  1.01889  0.0
H  H61  1  0.62247934  0.64237848  0.42446252  1  0.118292  -0.00023  0.108839  0.116372  -0.000127  1.018648  0.0
H  H62  1  0.12244987  0.85762412  0.92446138  1  0.118558  0.000227  0.108789  0.116281  0.000116  1.018828  0.0
H  H63  1  0.37757824  0.35761704  0.57554633  1  0.118859  0.000224  0.108774  0.11632  0.000111  1.018882  0.0
H  H64  1  0.67240819  0.16422081  0.16074734  1  0.124632  4.1e-05  0.104347  0.105931  -2e-06  1.048298  0.0
H  H65  1  0.82761788  0.66421363  0.33926020  1  0.124555  -4.1e-05  0.104344  0.105878  -1e-06  1.048233  0.0
H  H66  1  0.32760206  0.83578751  0.83926139  1  0.124439  7.1e-05  0.104399  0.105933  2.8e-05  1.048302  0.0
H  H67  1  0.17242488  0.33578798  0.66074634  1  0.124932  7.1e-05  0.104337  0.105854  2.8e-05  1.048289  0.0
H  H68  1  0.01726338  0.66285338  0.17577886  1  0.634602  -4.9e-05  0.27755  0.373221  -4.3e-05  0.972874  0.0
H  H69  1  0.48276077  0.16285876  0.32421843  1  0.634592  5.7e-05  0.277514  0.373152  3.8e-05  0.972944  0.0
H  H70  1  0.98274384  0.33716531  0.82422299  1  0.634653  4.9e-05  0.277444  0.373025  3.5e-05  0.973113  0.0
H  H71  1  0.51724785  0.83715505  0.67577530  1  0.63465  5.7e-05  0.277481  0.373179  3.7e-05  0.972881  0.0
H  H72  1  0.15812254  0.66975737  0.12174345  1  0.618887  0.000111  0.285542  0.393052  3e-05  0.936187  0.0
H  H73  1  0.34187933  0.16975743  0.37825401  1  0.618937  -0.000111  0.285513  0.392938  -3e-05  0.936359  0.0
H  H74  1  0.84187730  0.33024242  0.87825874  1  0.618789  -0.000111  0.285523  0.393018  -3.5e-05  0.936239  0.0
H  H75  1  0.65809822  0.83024540  0.62173852  1  0.618885  -0.000111  0.285643  0.393122  -3e-05  0.936116  0.0
C  C76  1  0.73338265  0.44751048  0.14698054  1  0.476065  0.002396  0.055738  0.106677  0.00062  3.940242  0.002
C  C77  1  0.76658301  0.94752170  0.35301394  1  0.47733  -0.002572  0.055815  0.106718  -0.001086  3.939748  -0.002
C  C78  1  0.26665710  0.55248809  0.85301998  1  0.476522  -0.002398  0.055743  0.106983  -0.000931  3.93985  -0.002
C  C79  1  0.23335164  0.05249089  0.64697724  1  0.47639  -0.002567  0.055791  0.106778  -0.001087  3.939893  -0.002
C  C80  1  0.71669552  0.36323857  0.14086396  1  0.030161  -0.005768  -0.076888  -0.127901  -0.004229  3.950295  -0.005
C  C81  1  0.78326980  0.86323998  0.35912250  1  0.029673  0.005693  -0.076872  -0.127755  0.003909  3.949349  0.005
C  C82  1  0.28331603  0.63676549  0.85912682  1  0.030103  0.005763  -0.076825  -0.127852  0.00396  3.949774  0.005
C  C83  1  0.21668692  0.13676591  0.64085609  1  0.030043  0.005672  -0.076921  -0.12788  0.003896  3.950181  0.005
C  C84  1  0.70810070  0.33051196  0.08574175  1  -0.068409  0.004223  -0.063205  -0.019646  0.002778  3.942658  0.003
C  C85  1  0.79185775  0.83051746  0.41425066  1  -0.068047  -0.004232  -0.063227  -0.019882  -0.002974  3.94225  -0.003
C  C86  1  0.29189466  0.66949087  0.91425739  1  -0.068069  -0.004231  -0.063259  -0.019945  -0.002968  3.942259  -0.003
C  C87  1  0.20810643  0.16948720  0.58573572  1  -0.067963  -0.004226  -0.063305  -0.019732  -0.00297  3.942455  -0.003
C  C88  1  0.72088667  0.38207128  0.03869055  1  -0.050378  -0.003592  -0.077583  -0.149404  -0.00281  3.899967  -0.003
C  C89  1  0.77908292  0.88207241  0.46130577  1  -0.050177  0.003481  -0.077414  -0.149351  0.002513  3.899679  0.003
C  C90  1  0.27911023  0.61793338  0.96131374  1  -0.050304  0.003586  -0.077497  -0.149309  0.002631  3.899673  0.003
C  C91  1  0.22089611  0.11792189  0.53868592  1  -0.050433  0.003483  -0.07755  -0.149383  0.002515  3.89982  0.003
C  C92  1  0.73921559  0.46584568  0.04804661  1  0.488231  -0.000452  0.115945  0.158515  -0.001121  4.009385  -0.001
C  C93  1  0.76075582  0.96584810  0.45195689  1  0.486987  0.000405  0.115908  0.15847  0.000762  4.008528  0.001
C  C94  1  0.26077100  0.53415959  0.95196185  1  0.487893  0.000443  0.116032  0.15873  0.000809  4.008248  0.001
C  C95  1  0.23920556  0.03414925  0.54804486  1  0.487798  0.000411  0.115985  0.158472  0.000768  4.009337  0.001
C  C96  1  0.75400267  0.52673989  0.00209269  1  0.42253  -0.000658  0.114528  0.154206  -0.001344  4.001246  -0.001
C  C97  1  0.74596905  0.02673374  0.49790029  1  0.422611  0.000372  0.114424  0.154139  0.000809  4.001093  0.001
C  C98  1  0.24597048  0.47327331  0.99790277  1  0.422227  0.000646  0.114419  0.154143  0.001015  4.001043  0.001
C  C99  1  0.25399517  0.97325141  0.50208908  1  0.422972  0.000386  0.114507  0.154197  0.000817  4.001409  0.001
C  C100  1  0.75334801  0.50758345  0.94383796  1  -0.01499  -0.003808  -0.071534  -0.137307  -0.003041  3.884971  -0.003
C  C101  1  0.74664696  0.00757734  0.55616125  1  -0.01532  0.003668  -0.071503  -0.137031  0.002646  3.88448  0.003
C  C102  1  0.24663555  0.49242609  0.05616404  1  -0.014897  0.003809  -0.071529  -0.137246  0.002853  3.884525  0.003
C  C103  1  0.25330846  0.99240659  0.44383615  1  -0.01542  0.003666  -0.071572  -0.137378  0.002645  3.885167  0.003
C  C104  1  0.77095296  0.57055729  0.90437859  1  -0.032174  0.00412  -0.059988  -0.015188  0.002712  3.944121  0.003
C  C105  1  0.72903515  0.07056086  0.59561618  1  -0.037369  -0.004304  -0.059955  -0.01528  -0.003023  3.943872  -0.003
C  C106  1  0.22902465  0.42943701  0.09561906  1  -0.037689  -0.004131  -0.059845  -0.015115  -0.002898  3.943561  -0.003
C  C107  1  0.27092765  0.92942857  0.40438046  1  -0.037432  -0.004296  -0.059991  -0.015221  -0.003017  3.944017  -0.003
C  C108  1  0.78792124  0.65070770  0.92383795  1  0.056163  -0.006149  -0.076597  -0.120098  -0.004533  3.961761  -0.005
C  C109  1  0.71207161  0.15071625  0.57615505  1  0.055663  0.006073  -0.076712  -0.120249  0.004169  3.961513  0.005
C  C110  1  0.21206819  0.34928355  0.07615899  1  0.055856  0.006149  -0.076757  -0.120155  0.00425  3.96155  0.005
C  C111  1  0.28788381  0.84927927  0.42384235  1  0.055467  0.006074  -0.076607  -0.119918  0.004168  3.961437  0.005
C  C112  1  0.78642751  0.66568881  0.98251877  1  0.416366  0.002297  0.054798  0.108308  0.000643  3.911372  0.002
C  C113  1  0.71355331  0.16570179  0.51747621  1  0.415336  -0.002409  0.054687  0.108207  -0.00105  3.910932  -0.002
C  C114  1  0.21355009  0.33430244  0.01747846  1  0.415769  -0.002299  0.054829  0.108317  -0.000965  3.910768  -0.002
C  C115  1  0.28639622  0.83430105  0.48252412  1  0.41648  -0.002413  0.05479  0.10818  -0.001052  3.911361  -0.002
C  C116  1  0.49901475  0.75224563  0.08745057  1  1.573626  0.001422  0.208265  0.567924  -0.000298  4.200439  0.003
C  C117  1  0.00101115  0.25225493  0.41255475  1  1.573596  -0.001331  0.208207  0.567589  2.3e-05  4.199901  -0.003
C  C118  1  0.50101177  0.24774684  0.91255792  1  1.573642  -0.001423  0.20822  0.567698  -5.9e-05  4.199786  -0.003
C  C119  1  0.99898272  0.74774791  0.58744267  1  1.57388  -0.001331  0.208322  0.568005  2.5e-05  4.199982  -0.003
C  C120  1  0.44801202  0.84124148  0.08245196  1  0.00116  -0.00902  -0.006551  -0.015462  -0.006711  3.935501  -0.007
C  C121  1  0.05198596  0.34124637  0.41755121  1  0.001368  0.009019  -0.006592  -0.015323  0.006297  3.935845  0.007
C  C122  1  0.55196561  0.15875099  0.91754827  1  0.001102  0.009031  -0.006727  -0.015393  0.006308  3.935669  0.007
C  C123  1  0.94801237  0.65874976  0.58244797  1  0.001245  0.009032  -0.006515  -0.015338  0.006306  3.935954  0.007
C  C124  1  0.58668067  0.90067831  0.09981922  1  -0.008466  -1.5e-05  -0.075432  -0.071673  -0.000107  3.937528  0.0
C  C125  1  0.91334489  0.40068546  0.40018243  1  -0.008963  2.2e-05  -0.075409  -0.071842  6.6e-05  3.937685  0.0
C  C126  1  0.41331176  0.09931599  0.90018246  1  -0.007948  3e-05  -0.075323  -0.071534  7.4e-05  3.937736  0.0
C  C127  1  0.08669778  0.59931555  0.59981513  1  -0.008347  3.5e-05  -0.07531  -0.071611  7.6e-05  3.937424  0.0
C  C128  1  0.53992526  0.98304199  0.09465480  1  -0.060601  -0.000173  -0.085336  -0.094925  -6.2e-05  3.985603  0.0
C  C129  1  0.96008724  0.48305451  0.40534145  1  -0.06027  0.000172  -0.085363  -0.094696  5.2e-05  3.985263  0.0
C  C130  1  0.46004792  0.01694804  0.90534409  1  -0.061085  0.000188  -0.085167  -0.094843  6.7e-05  3.984948  0.0
C  C131  1  0.03993474  0.51695138  0.59465672  1  -0.060888  0.000178  -0.085365  -0.094866  5.9e-05  3.985424  0.0
C  C132  1  0.35435486  0.00512816  0.07107828  1  -0.264301  0.00036  -0.022497  -0.082131  0.000238  4.000619  0.0
C  C133  1  0.14568051  0.50512542  0.42892622  1  -0.263456  -0.000327  -0.022548  -0.0824  -0.000238  4.000676  0.0
C  C134  1  0.64565384  0.99487223  0.92892316  1  -0.264103  -0.000334  -0.022657  -0.082402  -0.000241  4.000687  0.0
C  C135  1  0.85437260  0.49486400  0.57107916  1  -0.263986  -0.000301  -0.022469  -0.082103  -0.000223  4.000634  0.0
C  C136  1  0.21414159  0.94674603  0.05331818  1  0.047357  -0.000813  -0.08271  -0.091944  -0.000575  3.970456  -0.001
C  C137  1  0.28588890  0.44674420  0.44668692  1  0.020079  0.000832  -0.082612  -0.091674  0.000548  3.970685  0.001
C  C138  1  0.78585526  0.05324522  0.94668141  1  0.047154  0.000823  -0.082768  -0.091928  0.000545  3.97099  0.001
C  C139  1  0.71415975  0.55324340  0.55331669  1  0.047017  0.000831  -0.082763  -0.091905  0.000549  3.970531  0.001
C  C140  1  0.26195697  0.86458902  0.05936028  1  -0.045172  -0.000863  -0.074776  -0.073552  -0.000629  3.92601  -0.001
C  C141  1  0.23805404  0.36459159  0.44064899  1  -0.045321  0.000891  -0.074739  -0.073617  0.000582  3.926056  0.001
C  C142  1  0.73803989  0.13540467  0.94064017  1  -0.04523  0.000871  -0.074791  -0.073716  0.000569  3.92581  0.001
C  C143  1  0.76198134  0.63539844  0.55935874  1  -0.044955  0.000889  -0.07494  -0.07389  0.00058  3.926828  0.001
C  C144  1  0.78447192  0.15002094  0.27231630  1  1.60291  -0.000152  0.20813  0.56727  0.001285  4.209541  -0.001
C  C145  1  0.71555281  0.65001313  0.22768397  1  1.603543  0.000153  0.208202  0.567528  -0.001623  4.209654  0.001
C  C146  1  0.21552642  0.84999225  0.72768373  1  1.602896  -0.000149  0.208022  0.567216  0.00129  4.209773  -0.001
C  C147  1  0.28448546  0.35000617  0.77231696  1  1.60251  -0.000148  0.20796  0.567126  0.001288  4.209035  -0.001
C  C148  1  0.91450671  0.14344663  0.22175958  1  0.008035  0.009738  -0.010365  -0.018747  0.006758  3.948572  0.007
C  C149  1  0.58552114  0.64344812  0.27824801  1  0.008048  -0.009719  -0.010508  -0.019119  -0.007193  3.948959  -0.007
C  C150  1  0.08549760  0.85655377  0.77824694  1  0.008027  0.009707  -0.01038  -0.018834  0.006739  3.948751  0.007
C  C151  1  0.41453201  0.35656752  0.72176207  1  0.008711  0.009721  -0.010538  -0.018923  0.006748  3.948593  0.007
C  C152  1  0.11763558  0.12766949  0.22972566  1  -0.050821  0.000294  -0.075189  -0.072368  0.000217  3.907765  0.0
C  C153  1  0.38238915  0.62767031  0.27027854  1  -0.051571  -0.000299  -0.075072  -0.072021  -0.000261  3.907644  0.0
C  C154  1  0.88236868  0.87232542  0.77027530  1  -0.051216  0.000296  -0.075188  -0.072277  0.000216  3.907733  0.0
C  C155  1  0.61765657  0.37234228  0.72972846  1  -0.050827  0.000291  -0.074972  -0.072062  0.000213  3.907836  0.0
C  C156  1  0.23473022  0.11934844  0.18255650  1  0.009634  0.000301  -0.080844  -0.084056  0.000157  3.963654  0.0
C  C157  1  0.26530794  0.61935488  0.31744830  1  0.01039  -0.000258  -0.080831  -0.08413  -0.000136  3.963646  0.0
C  C158  1  0.76528143  0.88064159  0.81744455  1  0.009571  0.000236  -0.080899  -0.084221  0.000109  3.963795  0.0
C  C159  1  0.73474663  0.38065344  0.68255624  1  0.009445  0.000278  -0.080892  -0.084213  0.000142  3.964035  0.0
C  C160  1  0.14578431  0.12456875  0.12748358  1  -0.281104  0.000396  -0.025134  -0.090444  0.000241  4.005383  0.0
C  C161  1  0.35422571  0.62457056  0.37252430  1  -0.281055  -0.000339  -0.025107  -0.090565  -0.000224  4.00561  0.0
C  C162  1  0.85420370  0.87542799  0.87251890  1  -0.280516  0.000313  -0.025131  -0.090454  0.000189  4.005512  0.0
C  C163  1  0.64580671  0.37542740  0.62748383  1  -0.281156  0.000369  -0.025137  -0.090485  0.000222  4.005673  0.0
C  C164  1  0.94366042  0.13965328  0.11883561  1  0.007274  0.000813  -0.086553  -0.102641  0.000551  3.99634  0.001
C  C165  1  0.55636450  0.63965393  0.38116939  1  0.007061  -0.000762  -0.086618  -0.102705  -0.000551  3.995837  -0.001
C  C166  1  0.05633942  0.86034651  0.88116829  1  0.006837  0.000738  -0.086565  -0.102644  0.000489  3.996081  0.001
C  C167  1  0.44367676  0.36034707  0.61883457  1  0.0068  0.00079  -0.086468  -0.102562  0.000527  3.9964  0.001
C  C168  1  0.82955435  0.15086973  0.16643750  1  -0.119242  0.001785  -0.086354  -0.10585  0.001121  3.983199  0.001
C  C169  1  0.67047040  0.65085805  0.33356576  1  -0.119496  -0.001788  -0.086276  -0.105629  -0.001214  3.983351  -0.001
C  C170  1  0.17044993  0.84914225  0.83356560  1  -0.119038  0.001858  -0.086355  -0.105762  0.001177  3.983364  0.001
C  C171  1  0.32957974  0.34914234  0.66643829  1  -0.119351  0.001854  -0.086339  -0.105739  0.001178  3.983066  0.001
S  S172  1  0.29088144  0.10996426  0.06663624  1  2.464682  5.4e-05  0.475472  0.961714  4e-05  5.742353  0.0
S  S173  1  0.20913611  0.60997172  0.43336448  1  2.464745  -5.3e-05  0.475633  0.961976  -3.7e-05  5.742571  0.0
S  S174  1  0.70912429  0.89002638  0.93336388  1  2.464594  -1.3e-05  0.475543  0.961937  -1.3e-05  5.742168  0.0
S  S175  1  0.79090218  0.39002989  0.56663902  1  2.463503  -1.2e-05  0.475479  0.961785  -6e-06  5.742011  0.0
N  N176  1  0.74305790  0.49723038  0.10170398  1  -1.227719  -0.083596  -0.343395  -0.274659  -0.060237  3.620676  -0.072
N  N177  1  0.75692769  0.99724820  0.39828381  1  -1.226897  0.083466  -0.343248  -0.274435  0.056321  3.619442  0.072
N  N178  1  0.25694922  0.50275600  0.89828718  1  -1.22723  0.083635  -0.34338  -0.274815  0.056439  3.619467  0.072
N  N179  1  0.24303650  0.00276805  0.60170300  1  -1.227672  0.083411  -0.343339  -0.274467  0.056285  3.620679  0.072
N  N180  1  0.76953745  0.60504358  0.02043050  1  -1.213723  -0.087991  -0.343328  -0.275375  -0.063385  3.611833  -0.076
N  N181  1  0.73045519  0.10505153  0.47954893  1  -1.213064  0.088039  -0.343292  -0.275386  0.059406  3.61094  0.076
N  N182  1  0.23045480  0.39495560  0.97955150  1  -1.212844  0.088004  -0.343347  -0.275391  0.059356  3.610863  0.076
N  N183  1  0.26950450  0.89494886  0.52043183  1  -1.213847  0.088019  -0.343284  -0.275303  0.059392  3.612067  0.076
O  O184  1  0.68396021  0.73666611  0.09748298  1  -1.091615  -0.106029  -0.321463  -0.524631  -0.073611  2.323345  -0.096
O  O185  1  0.81606333  0.23667714  0.40252358  1  -1.091457  0.106207  -0.321382  -0.524443  0.069031  2.323342  0.096
O  O186  1  0.31606035  0.26332819  0.90252117  1  -1.091409  0.106055  -0.321456  -0.524585  0.068937  2.323071  0.096
O  O187  1  0.18391144  0.76333423  0.59748688  1  -1.091444  0.106217  -0.32156  -0.52469  0.069036  2.323717  0.096
O  O188  1  0.36480610  0.69943119  0.08077691  1  -1.197702  -0.000189  -0.316287  -0.576799  0.00013  2.240131  -0.001
O  O189  1  0.13525454  0.19941881  0.41922461  1  -1.19784  0.000602  -0.316232  -0.576671  -1.5e-05  2.239008  0.001
O  O190  1  0.63524558  0.30057287  0.91923444  1  -1.197851  0.000188  -0.316196  -0.57668  -0.000286  2.23948  0.001
O  O191  1  0.86475995  0.80056634  0.58076406  1  -1.19805  0.000602  -0.316254  -0.576841  -1.6e-05  2.239622  0.001
O  O192  1  0.47124279  0.15765668  0.07461832  1  -1.311757  4.8e-05  -0.311471  -0.529664  2.1e-05  2.22227  0.0
O  O193  1  0.02876073  0.65765727  0.42537874  1  -1.311673  -1.4e-05  -0.311547  -0.529769  -6e-06  2.222355  0.0
O  O194  1  0.52874218  0.84234311  0.92537600  1  -1.311744  -1.3e-05  -0.311462  -0.529745  -6e-06  2.222262  0.0
O  O195  1  0.97128509  0.34233947  0.57463852  1  -1.310988  1.9e-05  -0.311512  -0.529742  7e-06  2.221851  0.0
O  O196  1  0.16331556  0.12374398  0.01600037  1  -1.305446  8.8e-05  -0.304215  -0.517161  6.5e-05  2.214146  0.0
O  O197  1  0.33667523  0.62374918  0.48400601  1  -1.305416  3.9e-05  -0.304325  -0.517289  4e-05  2.214321  0.0
O  O198  1  0.83665029  0.87625093  0.98400529  1  -1.305527  5.7e-05  -0.304264  -0.517181  2.1e-05  2.214251  0.0
O  O199  1  0.66337938  0.37623903  0.51600194  1  -1.305078  0.000186  -0.304198  -0.517134  0.000134  2.214364  0.0
O  O200  1  0.86017672  0.11662893  0.31811744  1  -1.118361  0.102471  -0.327794  -0.541363  0.066614  2.379215  0.093
O  O201  1  0.63986481  0.61662081  0.18188821  1  -1.118793  -0.102448  -0.327815  -0.541349  -0.071135  2.379534  -0.093
O  O202  1  0.13982903  0.88337695  0.68188525  1  -1.11851  0.102467  -0.327775  -0.54124  0.066609  2.379668  0.093
O  O203  1  0.36021201  0.38337593  0.81812300  1  -1.118363  0.102469  -0.327797  -0.541307  0.066608  2.379061  0.093
O  O204  1  0.61789824  0.18356055  0.26607298  1  -1.169865  0.001404  -0.317464  -0.537629  0.000522  2.1359  0.001
O  O205  1  0.88211571  0.68354441  0.23393268  1  -1.170109  -0.001388  -0.317522  -0.53786  -0.000649  2.136063  -0.001
O  O206  1  0.38210014  0.81646667  0.73393219  1  -1.169605  0.001468  -0.317424  -0.537739  0.000564  2.136008  0.001
O  O207  1  0.11788118  0.31648221  0.76607076  1  -1.169812  0.001448  -0.317301  -0.537562  0.000551  2.135584  0.001
O  O208  1  0.06127668  0.63481090  0.14051357  1  -1.253471  0.001361  -0.609556  -0.804183  0.000643  2.047379  0.0
O  O209  1  0.43872866  0.13481262  0.35948440  1  -1.253571  -0.001221  -0.609543  -0.804011  -0.000594  2.047382  0.0
O  O210  1  0.93871730  0.36519742  0.85949454  1  -1.253539  -0.001355  -0.609463  -0.803967  -0.000693  2.047605  0.0
O  O211  1  0.56125776  0.86519265  0.64050737  1  -1.253573  -0.001224  -0.609577  -0.80416  -0.000597  2.047502  0.0
