# generated using pymatgen
data_CoH18C12(N12Cl)2
_symmetry_space_group_name_H-M   'P 1'
_cell_length_a   6.83943927
_cell_length_b   9.06512914
_cell_length_c   9.28796258
_cell_angle_alpha   100.63092182
_cell_angle_beta   91.83590338
_cell_angle_gamma   99.10569790
_symmetry_Int_Tables_number   1
_chemical_formula_structural   CoH18C12(N12Cl)2
_chemical_formula_sum   'Co1 H18 C12 N24 Cl2'
_cell_volume   557.72743957
_cell_formula_units_Z   1
loop_
 _symmetry_equiv_pos_site_id
 _symmetry_equiv_pos_as_xyz
  1  'x, y, z'
loop_
 _atom_site_type_symbol
 _atom_site_label
 _atom_site_symmetry_multiplicity
 _atom_site_fract_x
 _atom_site_fract_y
 _atom_site_fract_z
 _atom_site_occupancy
 _atom_site_hle17_ddec_charge
 _atom_site_hle17_ddec_spin_density
 _atom_site_hle17_ddec_sum_bond_order
 _atom_site_hle17_magmom
 _atom_site_hse06_10hf_ddec_charge
 _atom_site_hse06_10hf_ddec_spin_density
 _atom_site_hse06_10hf_ddec_sum_bond_order
 _atom_site_hse06_10hf_magmom
 _atom_site_hse06_ddec_charge
 _atom_site_hse06_ddec_spin_density
 _atom_site_hse06_ddec_sum_bond_order
 _atom_site_hse06_magmom
 _atom_site_pbe_cm5_charge
 _atom_site_pbe_ddec_charge
 _atom_site_pbe_ddec_spin_density
 _atom_site_pbe_ddec_sum_bond_order
 _atom_site_pbe_magmom
Co  Co0  1  0.00000024  0.00000064  0.50000132  1  0.514122  1.01602  2.695695  0.893  0.509457  0.978901  3.101295  0.892  0.577544  0.993979  3.033809  0.923  0.62173  0.469239  0.958389  3.143327  0.855
H  H1  1  0.28433258  0.38796022  0.44086677  1  0.112249  -0.000205  0.922483  0.0  0.119931  -0.000163  0.995317  0.0  0.121688  -0.000137  0.993055  0.0  0.120123  0.117827  -0.000203  0.997334  0.0
H  H2  1  0.71566816  0.61204039  0.55913492  1  0.112244  -0.000206  0.922489  0.0  0.119929  -0.000163  0.99532  0.0  0.121685  -0.000137  0.993061  0.0  0.120129  0.117828  -0.000203  0.997335  0.0
H  H3  1  0.97092369  0.66096863  0.30897176  1  0.13025  -0.000184  0.987344  0.0  0.124739  -0.000244  1.071102  0.0  0.12977  -0.000187  1.063572  0.0  0.136308  0.120479  -0.000312  1.076811  0.0
H  H4  1  0.02907999  0.33903193  0.69102895  1  0.130232  -0.000183  0.987355  0.0  0.124715  -0.000244  1.071118  0.0  0.129745  -0.000187  1.063586  0.0  0.136295  0.120447  -0.000312  1.076838  0.0
H  H5  1  0.08816486  0.38578011  0.30824338  1  0.107525  8e-06  0.918169  0.0  0.11539  7e-06  0.988563  0.0  0.116399  7e-06  0.987329  0.0  0.123957  0.114615  1e-05  0.988781  0.0
H  H6  1  0.91183274  0.61421944  0.69175585  1  0.107511  8e-06  0.918272  0.0  0.115363  7e-06  0.98866  0.0  0.116412  7e-06  0.987377  0.0  0.123935  0.114588  1e-05  0.988877  0.0
H  H7  1  0.44198063  0.35695210  0.21627092  1  0.09943  -4.1e-05  0.938146  0.0  0.108595  1e-05  1.007816  0.0  0.109071  5e-06  1.008306  0.0  0.121059  0.10802  1.5e-05  1.009001  0.0
H  H8  1  0.55801870  0.64304855  0.78372857  1  0.099413  -4.1e-05  0.938201  0.0  0.108579  1e-05  1.007889  0.0  0.109056  5e-06  1.008378  0.0  0.121054  0.108002  1.5e-05  1.009075  0.0
H  H9  1  0.38901771  0.04771335  0.87083294  1  0.106133  -8.2e-05  0.939428  0.0  0.113507  -2.6e-05  1.013725  0.0  0.115436  -3.1e-05  1.012466  0.0  0.114292  0.111404  -2.2e-05  1.015846  0.0
H  H10  1  0.61097447  0.95228176  0.12916202  1  0.10614  -8.5e-05  0.93945  0.0  0.113459  -2.6e-05  1.013791  0.0  0.115388  -3.1e-05  1.012534  0.0  0.114299  0.111358  -2.2e-05  1.015912  0.0
H  H11  1  0.58683613  0.06034930  0.65057932  1  0.131333  4.2e-05  0.973145  0.0  0.131987  3.7e-05  1.046981  0.0  0.136402  1.8e-05  1.041594  0.0  0.131097  0.128528  7.9e-05  1.051022  0.0
H  H12  1  0.41315985  0.93964345  0.34941535  1  0.131322  4.1e-05  0.973153  0.0  0.131994  3.7e-05  1.046985  0.0  0.13641  1.8e-05  1.041597  0.0  0.131094  0.128536  7.9e-05  1.051027  0.0
H  H13  1  0.51115191  0.55477780  0.28899704  1  0.107381  0.000673  0.962677  0.0  0.114596  0.000792  1.037212  0.0  0.117292  0.000572  1.03503  0.0  0.109066  0.112289  0.001021  1.039954  0.0
H  H14  1  0.48884911  0.44522394  0.71100487  1  0.107346  0.000673  0.962605  0.0  0.114578  0.000793  1.037135  0.0  0.117275  0.000572  1.034953  0.0  0.109049  0.112269  0.001021  1.039879  0.0
H  H15  1  0.21378089  0.28309188  0.96514278  1  0.120083  -5.8e-05  0.948819  0.0  0.119741  -2e-05  1.026528  0.0  0.123378  -2.2e-05  1.021838  0.0  0.141712  0.116856  -6e-06  1.031189  0.0
H  H16  1  0.78622364  0.71691209  0.03485860  1  0.12007  -6e-05  0.948887  0.0  0.119722  -2e-05  1.026621  0.0  0.123361  -2.2e-05  1.021925  0.0  0.141706  0.116837  -6e-06  1.031281  0.0
H  H17  1  0.37853627  0.85833910  0.89821533  1  0.090131  4.5e-05  0.967207  0.0  0.08802  2e-06  1.059878  0.0  0.089824  7e-06  1.057922  0.0  0.111744  0.086534  -1e-05  1.061536  0.0
H  H18  1  0.62145996  0.14165477  0.10178064  1  0.090083  4.5e-05  0.967263  0.0  0.088017  2e-06  1.059895  0.0  0.089823  7e-06  1.057939  0.0  0.111709  0.086529  -1e-05  1.061557  0.0
C  C19  1  0.38554942  0.46405244  0.24525298  1  -0.050692  0.000789  3.621565  0.001  -0.117402  0.000846  3.88338  0.001  -0.114457  0.000628  3.891893  0.001  -0.050599  -0.128304  0.001115  3.873984  0.001
C  C20  1  0.61445118  0.53595280  0.75474310  1  -0.05063  0.000788  3.621429  0.001  -0.117321  0.000846  3.883156  0.001  -0.114393  0.000628  3.891698  0.001  -0.050551  -0.128226  0.001115  3.873761  0.001
C  C21  1  0.08113631  0.69033396  0.40109384  1  0.148429  -0.009625  3.583699  -0.006  0.069295  -0.00406  3.858043  -0.003  0.095152  -0.003343  3.868781  -0.002  0.172511  0.05828  -0.004768  3.854581  -0.003
C  C22  1  0.91886322  0.30966780  0.59890910  1  0.148355  -0.009628  3.583725  -0.006  0.069262  -0.004061  3.858075  -0.003  0.095138  -0.003344  3.868816  -0.002  0.172486  0.058249  -0.004768  3.854613  -0.003
C  C23  1  0.68933146  0.00882406  0.71000576  1  0.161201  -0.011504  3.584266  -0.008  0.078339  -0.004496  3.857552  -0.003  0.094355  -0.003676  3.866146  -0.002  0.178307  0.067602  -0.004902  3.852271  -0.003
C  C24  1  0.31066702  0.99117318  0.28999307  1  0.161214  -0.011501  3.584178  -0.008  0.078354  -0.004495  3.857456  -0.003  0.094368  -0.003678  3.86605  -0.002  0.178318  0.067621  -0.004902  3.852183  -0.003
C  C25  1  0.23122088  0.44890642  0.35944154  1  -0.036093  -0.000153  3.577776  0.0  -0.110912  -6.3e-05  3.837618  0.0  -0.098358  -7e-05  3.850033  0.0  -0.043823  -0.112914  -7.3e-05  3.833713  0.0
C  C26  1  0.76878043  0.55109646  0.64056059  1  -0.036076  -0.000152  3.57783  0.0  -0.110857  -6.3e-05  3.83769  0.0  -0.098307  -6.9e-05  3.850081  0.0  -0.043801  -0.112862  -7.3e-05  3.833786  0.0
C  C27  1  0.22931251  0.40620939  0.98437420  1  0.146037  7.6e-05  3.641703  0.0  0.080328  0.000103  3.922813  0.0  0.091985  5.9e-05  3.934176  0.0  0.166103  0.062921  0.000223  3.912185  0.0
C  C28  1  0.77068999  0.59379233  0.01562669  1  0.146064  8e-05  3.641778  0.0  0.080341  0.000102  3.922906  0.0  0.091999  6e-05  3.93427  0.0  0.166146  0.062934  0.000223  3.912275  0.0
C  C29  1  0.47131510  0.97169652  0.91820254  1  -0.040091  -0.000105  3.593047  0.0  -0.116965  -4.5e-05  3.853011  0.0  -0.114768  -5.5e-05  3.863597  0.0  -0.047438  -0.117583  -1.6e-05  3.846004  0.0
C  C30  1  0.52867842  0.02829852  0.08179677  1  -0.040116  -0.000101  3.593172  0.0  -0.116966  -4.5e-05  3.853143  0.0  -0.114777  -5.3e-05  3.863738  0.0  -0.047459  -0.117578  -1.6e-05  3.846133  0.0
N  N31  1  0.86808953  0.97634193  0.67621045  1  -0.193252  -0.010473  3.325267  -0.005  -0.160787  -0.00642  3.646077  -0.004  -0.186581  -0.006642  3.66127  -0.004  -0.23736  -0.144957  -0.005477  3.636199  -0.003
N  N32  1  0.13191127  0.02365869  0.32378909  1  -0.193182  -0.010474  3.325186  -0.005  -0.160705  -0.006414  3.645988  -0.004  -0.186498  -0.006656  3.661184  -0.004  -0.23732  -0.144887  -0.005476  3.636124  -0.003
N  N33  1  0.30615143  0.49967212  0.11054463  1  0.020648  -0.000107  3.531169  0.0  0.110846  -2.5e-05  3.757505  0.0  0.097866  -4.5e-05  3.783704  0.0  -0.128553  0.147545  5.8e-05  3.704931  0.0
N  N34  1  0.69384870  0.50033192  0.88945767  1  0.020651  -0.000104  3.530998  0.0  0.110875  -2.3e-05  3.757324  0.0  0.097894  -5.3e-05  3.783526  0.0  -0.128568  0.147585  5.8e-05  3.704741  0.0
N  N35  1  0.22390846  0.63774603  0.96433474  1  -0.074805  8.5e-05  2.965026  0.0  -0.066539  0.000107  3.278912  0.0  -0.065488  6.1e-05  3.288686  0.0  -0.083444  -0.066882  0.000199  3.275243  0.0
N  N36  1  0.77608940  0.36225464  0.03566577  1  -0.074778  8.7e-05  2.964949  0.0  -0.066512  0.000105  3.27885  0.0  -0.065461  6.5e-05  3.288623  0.0  -0.08343  -0.066854  0.000199  3.27518  0.0
N  N37  1  0.20012701  0.59734862  0.43823120  1  0.031083  0.000505  3.525067  0.001  0.146163  -3.7e-05  3.719989  0.0  0.105746  3.2e-05  3.777908  0.0  -0.12409  0.153196  -6.7e-05  3.706228  0.0
N  N38  1  0.79987486  0.40265081  0.56177139  1  0.031312  0.000504  3.524809  0.001  0.146289  -3.7e-05  3.719844  0.0  0.105824  3.3e-05  3.77781  0.0  -0.123976  0.153322  -6.7e-05  3.706083  0.0
N  N39  1  0.80502892  0.90423506  0.88280194  1  -0.105257  -0.002304  2.863011  -0.002  -0.11444  -0.001157  3.144622  -0.001  -0.114653  -0.000757  3.153766  0.0  -0.066917  -0.113706  -0.001539  3.138916  -0.001
N  N40  1  0.19496602  0.09576567  0.11719848  1  -0.105335  -0.002296  2.863006  -0.002  -0.114513  -0.001163  3.144652  -0.001  -0.114728  -0.000744  3.153796  0.0  -0.066939  -0.113776  -0.001538  3.138943  -0.001
N  N41  1  0.11868945  0.81916314  0.50095054  1  -0.196427  -0.006258  3.309438  -0.002  -0.157215  -0.004275  3.61851  -0.002  -0.18253  -0.004855  3.630855  -0.003  -0.232232  -0.141523  -0.003045  3.60887  -0.001
N  N42  1  0.88131128  0.18083746  0.49905115  1  -0.196366  -0.006257  3.309356  -0.002  -0.157153  -0.004275  3.618411  -0.002  -0.18247  -0.004856  3.630748  -0.003  -0.2322  -0.141462  -0.003045  3.608769  -0.001
N  N43  1  0.93638194  0.91214232  0.78540783  1  -0.030863  -0.009267  2.887451  -0.008  -0.037133  -0.00354  3.203017  -0.003  -0.030833  -0.002839  3.211954  -0.002  -0.065465  -0.041463  -0.00439  3.197282  -0.004
N  N44  1  0.06361908  0.08785942  0.21459409  1  -0.030863  -0.009269  2.887497  -0.008  -0.037127  -0.003545  3.20306  -0.003  -0.030828  -0.002829  3.211995  -0.002  -0.065451  -0.04145  -0.004389  3.197327  -0.004
N  N45  1  0.65021046  0.96495507  0.83740708  1  0.043983  0.000883  3.512954  0.002  0.168084  -8.2e-05  3.692986  0.0  0.157232  1.7e-05  3.714022  0.0  -0.115899  0.1738  -1.6e-05  3.681238  0.0
N  N46  1  0.34978697  0.03504337  0.16258763  1  0.044078  0.000883  3.512861  0.002  0.168101  -8.3e-05  3.692982  0.0  0.157259  1.4e-05  3.714001  0.0  -0.115882  0.173818  -1.6e-05  3.681232  0.0
N  N47  1  0.31320055  0.66954719  0.56171053  1  -0.090408  -0.001347  2.848962  -0.001  -0.099955  -0.000808  3.131295  -0.001  -0.089072  -0.000521  3.145524  0.0  -0.062417  -0.100774  -0.00088  3.126433  -0.001
N  N48  1  0.68679867  0.33045342  0.43829326  1  -0.090516  -0.001344  2.848797  -0.001  -0.100033  -0.00081  3.131151  -0.001  -0.089134  -0.000517  3.145385  0.0  -0.062521  -0.100852  -0.000881  3.126292  -0.001
N  N49  1  0.30133969  0.64530229  0.09594044  1  -0.10626  0.000423  2.864615  0.0  -0.10856  0.000662  3.154227  0.001  -0.107639  0.000472  3.166007  0.0  -0.077429  -0.118392  0.000966  3.141514  0.001
N  N50  1  0.69865727  0.35470069  0.90406047  1  -0.106272  0.00042  2.864566  0.0  -0.108593  0.000663  3.154202  0.001  -0.107669  0.000472  3.16598  0.0  -0.077454  -0.118427  0.000966  3.141484  0.001
N  N51  1  0.26347916  0.80267234  0.59884118  1  -0.02331  -0.006794  2.902225  -0.006  -0.02461  -0.002994  3.216298  -0.003  -0.019897  -0.00248  3.222752  -0.002  -0.05504  -0.028516  -0.003663  3.2112  -0.003
N  N52  1  0.73651980  0.19732715  0.40116131  1  -0.023373  -0.006799  2.902255  -0.006  -0.024662  -0.00299  3.216317  -0.003  -0.01995  -0.002486  3.222768  -0.002  -0.05504  -0.028569  -0.003663  3.211222  -0.003
N  N53  1  0.17798930  0.49050036  0.89157404  1  -0.262868  -3e-06  2.97956  0.0  -0.237646  3.5e-05  3.281887  0.0  -0.249028  5e-06  3.295059  0.0  -0.217778  -0.230383  2.9e-05  3.276263  0.0
N  N54  1  0.82201318  0.50950135  0.10842792  1  -0.26293  -5e-06  2.979564  0.0  -0.237707  3.5e-05  3.28191  0.0  -0.249091  5e-06  3.295082  0.0  -0.217819  -0.230447  2.9e-05  3.276284  0.0
Cl  Cl55  1  0.30622796  0.17891670  0.64044565  1  -0.602634  0.04697  0.859884  0.077  -0.592152  0.036404  1.120671  0.056  -0.617094  0.026787  1.101947  0.042  -0.328667  -0.569141  0.046478  1.132362  0.069
Cl  Cl56  1  0.69377226  0.82108165  0.35955344  1  -0.602656  0.046967  0.859901  0.077  -0.592132  0.036404  1.12063  0.056  -0.617074  0.026786  1.101903  0.042  -0.328668  -0.569132  0.046477  1.132338  0.069
