# generated using pymatgen
data_ZnH6C7(N2O)2
_symmetry_space_group_name_H-M   'P 1'
_cell_length_a   6.05003621
_cell_length_b   9.27697772
_cell_length_c   14.45251657
_cell_angle_alpha   94.24850769
_cell_angle_beta   90.00050475
_cell_angle_gamma   89.99980025
_symmetry_Int_Tables_number   1
_chemical_formula_structural   ZnH6C7(N2O)2
_chemical_formula_sum   'Zn4 H24 C28 N16 O8'
_cell_volume   808.93370233
_cell_formula_units_Z   4
loop_
 _symmetry_equiv_pos_site_id
 _symmetry_equiv_pos_as_xyz
  1  'x, y, z'
loop_
 _atom_site_type_symbol
 _atom_site_label
 _atom_site_symmetry_multiplicity
 _atom_site_fract_x
 _atom_site_fract_y
 _atom_site_fract_z
 _atom_site_occupancy
 _atom_site_pbe_bader_spin_density
 _atom_site_pbe_cm5_charge
 _atom_site_pbe_ddec_charge
 _atom_site_pbe_ddec_spin_density
 _atom_site_pbe_ddec_sum_bond_order
 _atom_site_pbe_magmom
Zn  Zn0  1  0.82095461  0.04889062  0.79899746  1  0  0.703139  0.852535  0  2.362445  0
Zn  Zn1  1  0.67904771  0.04889422  0.29899700  1  0  0.703146  0.852577  0  2.362278  0
Zn  Zn2  1  0.17904981  0.95110960  0.20100265  1  0  0.703142  0.852591  0  2.362403  0
Zn  Zn3  1  0.32095340  0.95110708  0.70100385  1  0  0.703132  0.852559  0  2.362344  0
H  H4  1  0.35401115  0.54790354  0.80214077  1  0  0.103349  0.10733  0  1.026033  0
H  H5  1  0.14597572  0.54791876  0.30214725  1  0  0.103355  0.107384  0  1.026  0
H  H6  1  0.64599162  0.45210100  0.19785884  1  0  0.103368  0.107386  0  1.026032  0
H  H7  1  0.85401382  0.45209230  0.69785820  1  0  0.103362  0.107359  0  1.026013  0
H  H8  1  0.31888022  0.29360084  0.84460170  1  0  0.100766  0.114777  0  1.023535  0
H  H9  1  0.18111545  0.29361848  0.34460948  1  0  0.100795  0.114861  0  1.023534  0
H  H10  1  0.68113576  0.70640369  0.15539653  1  0  0.100796  0.114765  0  1.023526  0
H  H11  1  0.81886252  0.70639148  0.65539384  1  0  0.100796  0.114848  0  1.023557  0
H  H12  1  0.66300303  0.38672970  0.94907164  1  0  0.105044  0.115318  0  1.004078  0
H  H13  1  0.83700002  0.38672204  0.44907324  1  0  0.105046  0.115335  0  1.004107  0
H  H14  1  0.33701131  0.61326297  0.05092951  1  0  0.105022  0.1153  0  1.004215  0
H  H15  1  0.16298621  0.61327170  0.55092658  1  0  0.105052  0.115277  0  1.004083  0
H  H16  1  0.70364980  0.64268998  0.91060907  1  0  0.098436  0.096803  0  1.036678  0
H  H17  1  0.79634811  0.64268327  0.41061094  1  0  0.098463  0.096814  0  1.036751  0
H  H18  1  0.29635296  0.35730377  0.08939283  1  0  0.098437  0.096822  0  1.036729  0
H  H19  1  0.20364474  0.35731263  0.58939105  1  0  0.098497  0.096853  0  1.036678  0
H  H20  1  0.10444816  0.12961518  0.93128103  1  0  0.309772  0.304398  0  0.916161  0
H  H21  1  0.39555023  0.12961583  0.43127437  1  0  0.309791  0.304361  0  0.916246  0
H  H22  1  0.89557279  0.87038286  0.06871484  1  0  0.309807  0.304447  0  0.916152  0
H  H23  1  0.60442773  0.87038218  0.56871665  1  0  0.309825  0.304434  0  0.916207  0
H  H24  1  0.84756146  0.16376747  0.96693317  1  0  0.295234  0.2876  0  0.992263  0
H  H25  1  0.65242843  0.16375658  0.46693566  1  0  0.295214  0.287631  0  0.992119  0
H  H26  1  0.15245948  0.83623059  0.03306684  1  0  0.295303  0.287743  0  0.992188  0
H  H27  1  0.34754127  0.83623932  0.53306495  1  0  0.295284  0.287673  0  0.992252  0
C  C28  1  0.05045445  0.75861833  0.81918126  1  0  0.207953  0.583446  0  4.198199  0
C  C29  1  0.44955093  0.75861563  0.31918867  1  0  0.208005  0.583526  0  4.197899  0
C  C30  1  0.94954665  0.24138406  0.18081965  1  0  0.20789  0.583453  0  4.198202  0
C  C31  1  0.55045183  0.24138676  0.68081292  1  0  0.207995  0.583614  0  4.19772  0
C  C32  1  0.03066589  0.61114185  0.85283495  1  0  -0.031022  -0.076771  0  4.007012  0
C  C33  1  0.46932577  0.61113976  0.35284090  1  0  -0.030949  -0.076566  0  4.00675  0
C  C34  1  0.96933687  0.38885945  0.14716383  1  0  -0.031093  -0.076826  0  4.007137  0
C  C35  1  0.53066377  0.38886372  0.64716144  1  0  -0.03104  -0.076856  0  4.006936  0
C  C36  1  0.20385548  0.51234412  0.83508081  1  0  -0.08202  -0.065569  0  3.975295  0
C  C37  1  0.29613891  0.51235148  0.33508470  1  0  -0.082074  -0.06589  0  3.975709  0
C  C38  1  0.79615224  0.48766152  0.16492163  1  0  -0.082  -0.065596  0  3.975454  0
C  C39  1  0.70385062  0.48765631  0.66491714  1  0  -0.081962  -0.065508  0  3.975373  0
C  C40  1  0.18363524  0.37020433  0.85820666  1  0  -0.10141  -0.195678  0  3.95451  0
C  C41  1  0.31634653  0.37021448  0.35821541  1  0  -0.101442  -0.195687  0  3.954433  0
C  C42  1  0.81637579  0.62979588  0.14179068  1  0  -0.101478  -0.195716  0  3.954599  0
C  C43  1  0.68363309  0.62979224  0.64178845  1  0  -0.101513  -0.195922  0  3.954474  0
C  C44  1  0.98713342  0.32508524  0.89796331  1  0  0.08907  0.286245  0  3.99676  0
C  C45  1  0.51287313  0.32508842  0.39796308  1  0  0.089144  0.286432  0  3.996848  0
C  C46  1  0.01288918  0.67491391  0.10203883  1  0  0.089254  0.2865  0  3.996741  0
C  C47  1  0.48710979  0.67491178  0.60203289  1  0  0.08914  0.286485  0  3.99689  0
C  C48  1  0.81471908  0.42306382  0.91751806  1  0  -0.09137  -0.166341  0  3.942265  0
C  C49  1  0.68526500  0.42305543  0.41752394  1  0  -0.091443  -0.1666  0  3.942664  0
C  C50  1  0.18529360  0.57693206  0.08248048  1  0  -0.091471  -0.16647  0  3.942431  0
C  C51  1  0.31471793  0.57694373  0.58247890  1  0  -0.091419  -0.16646  0  3.942594  0
C  C52  1  0.83770963  0.56586814  0.89598746  1  0  -0.081523  -0.070865  0  3.982672  0
C  C53  1  0.66230210  0.56586136  0.39599354  1  0  -0.081565  -0.070817  0  3.98233  0
C  C54  1  0.16229975  0.43412994  0.10401532  1  0  -0.081502  -0.070858  0  3.982773  0
C  C55  1  0.33769240  0.43413671  0.60400786  1  0  -0.081564  -0.070808  0  3.982606  0
N  N56  1  0.95814917  0.17563783  0.91379085  1  0  -0.591246  -0.580287  0  3.375953  0
N  N57  1  0.54183895  0.17564142  0.41379255  1  0  -0.591207  -0.580267  0  3.375786  0
N  N58  1  0.04186682  0.82435914  0.08620773  1  0  -0.591392  -0.580613  0  3.376077  0
N  N59  1  0.45813902  0.82435987  0.58620554  1  0  -0.591357  -0.580509  0  3.376155  0
N  N60  1  0.99663747  0.01372055  0.67500208  1  0  -0.327846  -0.570175  0  3.207205  0
N  N61  1  0.50336243  0.01372718  0.17499998  1  0  -0.327799  -0.570072  0  3.207557  0
N  N62  1  0.00336198  0.98628181  0.32499467  1  0  -0.327971  -0.570387  0  3.20648  0
N  N63  1  0.49664198  0.98627412  0.82499879  1  0  -0.327799  -0.570118  0  3.207222  0
N  N64  1  0.96129962  0.08529814  0.60989934  1  0  0.100069  0.447852  0  4.470621  0
N  N65  1  0.53869027  0.08529965  0.10990442  1  0  0.099989  0.447729  0  4.47043  0
N  N66  1  0.03870314  0.91468913  0.39010365  1  0  0.099939  0.447661  0  4.470632  0
N  N67  1  0.46131250  0.91469520  0.89010237  1  0  0.100016  0.44783  0  4.470876  0
N  N68  1  0.92588734  0.15172789  0.54665833  1  0  -0.153795  -0.334855  0  2.670618  0
N  N69  1  0.57410070  0.15174043  0.04665679  1  0  -0.15382  -0.334881  0  2.669941  0
N  N70  1  0.07410385  0.84826363  0.45333101  1  0  -0.15347  -0.334392  0  2.671367  0
N  N71  1  0.42590867  0.84826517  0.95333872  1  0  -0.153773  -0.334863  0  2.670882  0
O  O72  1  0.92712379  0.86050627  0.85517193  1  0  -0.337205  -0.584924  0  2.325039  0
O  O73  1  0.57288262  0.86050585  0.35516566  1  0  -0.337257  -0.584983  0  2.325097  0
O  O74  1  0.07287236  0.13949397  0.14483164  1  0  -0.337144  -0.584902  0  2.325048  0
O  O75  1  0.42712014  0.13949653  0.64483316  1  0  -0.33721  -0.584983  0  2.324997  0
O  O76  1  0.19053911  0.77176489  0.75467511  1  0  -0.315406  -0.550833  0  2.411202  0
O  O77  1  0.30947363  0.77177299  0.25467274  1  0  -0.31546  -0.550929  0  2.411065  0
O  O78  1  0.80946365  0.22823641  0.24532505  1  0  -0.31538  -0.550855  0  2.411253  0
O  O79  1  0.69053244  0.22822831  0.74532673  1  0  -0.31544  -0.550925  0  2.410986  0
