# generated using pymatgen
data_Ni3P4H24C14(NO9)2
_symmetry_space_group_name_H-M   'P 1'
_cell_length_a   6.41917738
_cell_length_b   9.98303560
_cell_length_c   11.96578991
_cell_angle_alpha   71.15255053
_cell_angle_beta   80.16731098
_cell_angle_gamma   78.35768302
_symmetry_Int_Tables_number   1
_chemical_formula_structural   Ni3P4H24C14(NO9)2
_chemical_formula_sum   'Ni3 P4 H24 C14 N2 O18'
_cell_volume   706.13205053
_cell_formula_units_Z   1
loop_
 _symmetry_equiv_pos_site_id
 _symmetry_equiv_pos_as_xyz
  1  'x, y, z'
loop_
 _atom_site_type_symbol
 _atom_site_label
 _atom_site_symmetry_multiplicity
 _atom_site_fract_x
 _atom_site_fract_y
 _atom_site_fract_z
 _atom_site_occupancy
 _atom_site_pbe_cm5_charge
 _atom_site_pbe_ddec_charge
 _atom_site_pbe_ddec_spin_density
 _atom_site_pbe_ddec_sum_bond_order
 _atom_site_pbe_magmom
Ni  Ni0  1  0.49999822  0.50000183  0.99999912  1  0.655758  0.961261  -1.832216  2.293559  -1.601
Ni  Ni1  1  0.86910896  0.55149529  0.29849086  1  0.659446  0.978873  1.801835  2.336873  1.597
Ni  Ni2  1  0.13088698  0.44850376  0.70150985  1  0.659437  0.978858  1.801833  2.336865  1.597
P  P3  1  0.62482088  0.47376497  0.75382092  1  0.320414  1.214886  0.004778  5.505635  0.009
P  P4  1  0.37517620  0.52623621  0.24617829  1  0.320387  1.214804  0.004777  5.50588  0.009
P  P5  1  0.79677299  0.68910092  0.82621122  1  0.368974  1.229691  -0.00107  5.25401  0.001
P  P6  1  0.20322611  0.31089811  0.17378753  1  0.368974  1.229666  -0.00107  5.254165  0.001
H  H7  1  0.94742783  0.31987477  0.46285300  1  0.300056  0.367706  0.000164  0.955015  0.0
H  H8  1  0.05257266  0.68012527  0.53714787  1  0.30004  0.367637  0.000163  0.955021  0.0
H  H9  1  0.82807113  0.41887344  0.54230315  1  0.294137  0.395265  0.000425  0.944706  0.0
H  H10  1  0.17192641  0.58112557  0.45769826  1  0.294107  0.395166  0.000426  0.944842  0.0
H  H11  1  0.85472010  0.65231353  0.06936475  1  0.293385  0.403457  0.000477  0.923551  0.0
H  H12  1  0.14527922  0.34768442  0.93063427  1  0.293392  0.403487  0.000477  0.923512  0.0
H  H13  1  0.07873416  0.66249318  0.10593947  1  0.290079  0.38918  0.000382  0.950151  0.0
H  H14  1  0.92126653  0.33750580  0.89406082  1  0.290077  0.389186  0.000382  0.950146  0.0
H  H15  1  0.25960956  0.65149345  0.82288303  1  0.313288  0.372687  -0.000598  0.913266  -0.001
H  H16  1  0.74038867  0.34850983  0.17711636  1  0.313263  0.372611  -0.000598  0.913309  -0.001
H  H17  1  0.67572958  0.88793458  0.86993092  1  0.361438  0.423408  0.000432  0.822711  0.0
H  H18  1  0.32427223  0.11206657  0.13006535  1  0.361451  0.423424  0.000433  0.822634  0.0
H  H19  1  0.34951673  0.75420143  0.63367594  1  0.109353  0.129564  -0.00019  0.983035  0.0
H  H20  1  0.65048373  0.24579864  0.36632241  1  0.109364  0.129588  -0.00019  0.983014  0.0
H  H21  1  0.46053978  0.88070430  0.67150365  1  0.096862  0.103996  7.5e-05  1.009647  0.0
H  H22  1  0.53945708  0.11929795  0.32849530  1  0.096873  0.104007  7.5e-05  1.009665  0.0
H  H23  1  0.76559384  0.98233111  0.54474900  1  0.107822  0.111591  2.7e-05  1.004195  0.0
H  H24  1  0.23441185  0.01766671  0.45525280  1  0.107828  0.111553  2.7e-05  1.004239  0.0
H  H25  1  0.99099702  0.01421815  0.34507702  1  0.106346  0.120431  0.000482  1.035453  0.001
H  H26  1  0.00900708  0.98577970  0.65492408  1  0.106346  0.120396  0.000482  1.035462  0.001
H  H27  1  0.00507089  0.83512022  0.23751601  1  0.126286  0.108332  0.000894  0.976273  0.002
H  H28  1  0.99492958  0.16487985  0.76248234  1  0.126261  0.108324  0.000893  0.976319  0.002
H  H29  1  0.55683884  0.62661274  0.49063474  1  0.128041  0.1215  0.001032  0.997344  0.002
H  H30  1  0.44316302  0.37338834  0.50936656  1  0.128038  0.121463  0.001032  0.997311  0.002
C  C31  1  0.57124256  0.66173548  0.76017287  1  0.045686  -0.19775  0.000672  3.843014  0.002
C  C32  1  0.42875497  0.33826354  0.23982770  1  0.04573  -0.197628  0.000673  3.842911  0.002
C  C33  1  0.49948247  0.77978874  0.64871336  1  -0.158314  -0.221645  -0.000335  3.974232  0.0
C  C34  1  0.50051324  0.22021139  0.35128626  1  -0.158374  -0.221719  -0.000335  3.974321  0.0
C  C35  1  0.64785292  0.79923657  0.53518338  1  -0.007014  0.075384  0.003062  3.960829  0.004
C  C36  1  0.35214575  0.20076458  0.46481653  1  -0.007043  0.075334  0.003062  3.960969  0.004
C  C37  1  0.77249737  0.90909775  0.49305965  1  -0.073458  -0.10556  -0.003985  3.953273  -0.004
C  C38  1  0.22750650  0.09090118  0.50694035  1  -0.073473  -0.105581  -0.003986  3.953095  -0.004
C  C39  1  0.89856327  0.92668109  0.38349350  1  -0.089753  -0.138518  0.004206  4.002869  0.006
C  C40  1  0.10143384  0.07332004  0.61650906  1  -0.089751  -0.138425  0.004206  4.00278  0.006
C  C41  1  0.90475775  0.82953531  0.32148233  1  0.048852  0.089202  -0.001788  3.930655  -0.003
C  C42  1  0.09524203  0.17046046  0.67851972  1  0.048875  0.089229  -0.001788  3.930678  -0.003
C  C43  1  0.65735015  0.71003069  0.46448190  1  0.056095  0.050319  -0.001733  3.860368  -0.003
C  C44  1  0.34264736  0.28996835  0.53551699  1  0.056119  0.050441  -0.001733  3.860394  -0.003
N  N45  1  0.78847581  0.72171495  0.36286145  1  -0.329752  -0.222896  0.053386  3.603971  0.081
N  N46  1  0.21152605  0.27828614  0.63713902  1  -0.329731  -0.222969  0.053387  3.603836  0.081
O  O47  1  0.82620152  0.39535656  0.46667003  1  -0.562593  -0.736105  0.031754  2.178481  0.048
O  O48  1  0.17379919  0.60464241  0.53333109  1  -0.562544  -0.735932  0.031755  2.17852  0.048
O  O49  1  0.82915988  0.45570329  0.66770677  1  -0.367733  -0.770994  0.031273  2.463229  0.049
O  O50  1  0.17083924  0.54429570  0.33229449  1  -0.367741  -0.770951  0.031272  2.463229  0.049
O  O51  1  0.91936208  0.68134601  0.12609940  1  -0.577905  -0.769264  0.038992  2.114646  0.06
O  O52  1  0.08063429  0.31865089  0.87390183  1  -0.577917  -0.769297  0.038993  2.114594  0.06
O  O53  1  0.43412278  0.45015656  0.70942926  1  -0.37645  -0.730077  0.029291  2.434091  0.043
O  O54  1  0.56587769  0.54984350  0.29056993  1  -0.376446  -0.73008  0.029292  2.434093  0.043
O  O55  1  0.65897296  0.38819550  0.88437312  1  -0.372846  -0.740995  -0.032572  2.294337  -0.048
O  O56  1  0.34102573  0.61180561  0.11562931  1  -0.37285  -0.740988  -0.032569  2.294554  -0.048
O  O57  1  0.38885077  0.66340166  0.85318429  1  -0.360592  -0.454827  -0.033828  2.405018  -0.053
O  O58  1  0.61114791  0.33659948  0.14681645  1  -0.360582  -0.454772  -0.033828  2.404928  -0.053
O  O59  1  0.77029451  0.86047198  0.80526744  1  -0.377875  -0.622568  0.000236  2.170617  0.0
O  O60  1  0.22970934  0.13952697  0.19473088  1  -0.377885  -0.622581  0.000236  2.170515  0.0
O  O61  1  0.01275799  0.64977466  0.76029336  1  -0.348303  -0.729589  0.017254  2.235407  0.024
O  O62  1  0.98724429  0.35022431  0.23970595  1  -0.348291  -0.729583  0.017253  2.235564  0.024
O  O63  1  0.75503828  0.61453449  0.95917285  1  -0.351822  -0.725299  -0.028921  2.317884  -0.042
O  O64  1  0.24496037  0.38546667  0.04082538  1  -0.351841  -0.725312  -0.028922  2.317909  -0.042
