# generated using pymatgen
data_CuH3(CN)6
_symmetry_space_group_name_H-M   'P 1'
_cell_length_a   28.10833132
_cell_length_b   29.08968435
_cell_length_c   32.53677310
_cell_angle_alpha   96.87944017
_cell_angle_beta   89.52980788
_cell_angle_gamma   89.70148760
_symmetry_Int_Tables_number   1
_chemical_formula_structural   CuH3(CN)6
_chemical_formula_sum   'Cu12 H36 C72 N72'
_cell_volume   26411.15630249
_cell_formula_units_Z   12
loop_
 _symmetry_equiv_pos_site_id
 _symmetry_equiv_pos_as_xyz
  1  'x, y, z'
loop_
 _atom_site_type_symbol
 _atom_site_label
 _atom_site_symmetry_multiplicity
 _atom_site_fract_x
 _atom_site_fract_y
 _atom_site_fract_z
 _atom_site_occupancy
 _atom_site_pbe_bader_charge
 _atom_site_pbe_bader_spin_density
 _atom_site_pbe_cm5_charge
 _atom_site_pbe_ddec_charge
 _atom_site_pbe_ddec_spin_density
 _atom_site_pbe_ddec_sum_bond_order
 _atom_site_pbe_magmom
Cu  Cu0  1  0.07120491  0.04555239  0.84139979  1  0.555217  0  0.497054  0.217783  0  2.09223  0
Cu  Cu1  1  0.10611060  0.09210181  0.92726185  1  0.548126  0  0.498324  0.221345  0  2.092061  0
Cu  Cu2  1  0.06582705  0.15518499  0.86245682  1  0.554167  0  0.49688  0.219949  0  2.08131  0
Cu  Cu3  1  0.91777372  0.40424771  0.34582058  1  0.549216  0  0.498701  0.218787  0  2.102367  0
Cu  Cu4  1  0.86574900  0.37698593  0.42516896  1  0.553593  0  0.494842  0.216191  0  2.079238  0
Cu  Cu5  1  0.96156152  0.32250737  0.38853299  1  0.555735  0  0.497082  0.222442  0  2.06585  0
Cu  Cu6  1  0.57413471  0.95606401  0.65966511  1  0.542662  0  0.496679  0.216896  0  2.091652  0
Cu  Cu7  1  0.60959696  0.90870923  0.57309627  1  0.553581  0  0.498421  0.222082  0  2.087415  0
Cu  Cu8  1  0.56653686  0.84698923  0.63801046  1  0.553824  0  0.496797  0.219842  0  2.083167  0
Cu  Cu9  1  0.42422487  0.59068341  0.14912865  1  0.552102  0  0.499629  0.220646  0  2.103334  0
Cu  Cu10  1  0.36880591  0.62136880  0.07328482  1  0.555078  0  0.494295  0.215636  0  2.076997  0
Cu  Cu11  1  0.46065957  0.67875115  0.11200020  1  0.556302  0  0.496836  0.223027  0  2.066552  0
H  H12  1  0.13385129  0.95131082  0.83310300  1  0.081445  0  0.131628  0.132266  0  0.973645  0
H  H13  1  0.16590542  0.01053020  0.95860132  1  0.111461  0  0.133921  0.134086  0  0.971347  0
H  H14  1  0.99885234  0.18083130  0.78987895  1  0.100059  0  0.13055  0.131073  0  0.976226  0
H  H15  1  0.99081627  0.03076607  0.77259185  1  0.138309  0  0.134422  0.135476  0  0.972909  0
H  H16  1  0.12479768  0.16813268  0.00391658  1  0.128776  0  0.130403  0.131418  0  0.977596  0
H  H17  1  0.09412185  0.25552937  0.90803144  1  0.103136  0  0.133142  0.133965  0  0.974182  0
H  H18  1  0.84566298  0.47757369  0.31731422  1  0.133815  0  0.13264  0.132699  0  0.975354  0
H  H19  1  0.77347937  0.44468845  0.42852337  1  0.114297  0  0.130833  0.131822  0  0.975962  0
H  H20  1  0.04104107  0.28467410  0.31972389  1  0.12933  0  0.134527  0.135702  0  0.970849  0
H  H21  1  0.98668193  0.40576073  0.26896876  1  0.118565  0  0.130005  0.129527  0  0.97649  0
H  H22  1  0.84665664  0.32493406  0.50323895  1  0.109748  0  0.13015  0.130684  0  0.976707  0
H  H23  1  0.97810454  0.25701337  0.45835448  1  0.100115  0  0.13451  0.135161  0  0.97252  0
H  H24  1  0.63706894  0.04904599  0.66734790  1  0.164865  0  0.131515  0.132404  0  0.973488  0
H  H25  1  0.67075488  0.98927730  0.54171222  1  0.119893  0  0.134009  0.134569  0  0.97051  0
H  H26  1  0.49834044  0.82272129  0.71096379  1  0.137251  0  0.13064  0.131255  0  0.977091  0
H  H27  1  0.49428066  0.97296747  0.73036620  1  0.157861  0  0.134558  0.135509  0  0.973025  0
H  H28  1  0.62715566  0.83188798  0.49602757  1  0.127358  0  0.130831  0.131988  0  0.9769  0
H  H29  1  0.59207207  0.74582922  0.59209580  1  0.132607  0  0.133945  0.134749  0  0.975575  0
H  H30  1  0.35687119  0.51296220  0.17565390  1  0.140287  0  0.133902  0.134596  0  0.97416  0
H  H31  1  0.27805489  0.55280980  0.07117898  1  0.108192  0  0.130659  0.130677  0  0.976263  0
H  H32  1  0.53336308  0.71916555  0.18454363  1  0.118534  0  0.134435  0.135716  0  0.969946  0
H  H33  1  0.49264513  0.58795614  0.22514020  1  0.120788  0  0.13032  0.130738  0  0.977387  0
H  H34  1  0.34862416  0.67534081  0.99662299  1  0.12616  0  0.129865  0.130175  0  0.97626  0
H  H35  1  0.47527967  0.74720863  0.04417115  1  0.129768  0  0.133764  0.134568  0  0.971591  0
H  H36  1  0.24603972  0.93560158  0.85208436  1  0.12975  0  0.142051  0.148532  0  0.977569  0
H  H37  1  0.73772556  0.54466773  0.41765663  1  0.173255  0  0.141925  0.149231  0  0.975441  0
H  H38  1  0.74770382  0.06622009  0.64922691  1  0.185404  0  0.142275  0.149249  0  0.977793  0
H  H39  1  0.24316729  0.45193254  0.08005923  1  0.158212  0  0.142194  0.149364  0  0.975567  0
H  H40  1  0.96319477  0.15993765  0.70073215  1  0.161354  0  0.142069  0.149259  0  0.974337  0
H  H41  1  0.58907025  0.60342069  0.26210090  1  0.123632  0  0.141594  0.148536  0  0.975477  0
H  H42  1  0.08943995  0.39651576  0.23690033  1  0.172546  0  0.141505  0.148019  0  0.975664  0
H  H43  1  0.46355199  0.84276588  0.80033695  1  0.172311  0  0.142735  0.149705  0  0.973519  0
H  H44  1  0.10590515  0.25218044  0.05470560  1  0.18621  0  0.140865  0.147273  0  0.977414  0
H  H45  1  0.60301875  0.74732730  0.44568225  1  0.159412  0  0.142037  0.149085  0  0.975888  0
H  H46  1  0.33889293  0.77428633  0.97122937  1  0.162598  0  0.141768  0.14802  0  0.978448  0
H  H47  1  0.84058789  0.22645591  0.52944816  1  0.184029  0  0.141704  0.148155  0  0.978034  0
C  C48  1  0.67047381  0.59555183  0.36659693  1  1.099159  0  0.257481  0.379632  0  4.048521  0
C  C49  1  0.62008736  0.64859721  0.34536303  1  1.121245  0  0.256726  0.380733  0  4.047066  0
C  C50  1  0.64340324  0.65483376  0.41217443  1  1.111298  0  0.257876  0.383087  0  4.040271  0
C  C51  1  0.30639251  0.86714147  0.88870704  1  1.101356  0  0.257775  0.382292  0  4.045274  0
C  C52  1  0.37116943  0.86745974  0.84697480  1  1.070502  0  0.255818  0.379304  0  4.050965  0
C  C53  1  0.37095852  0.82383549  0.89995556  1  1.101127  0  0.25698  0.379992  0  4.041804  0
C  C54  1  0.17762487  0.40097919  0.13298725  1  1.119912  0  0.256822  0.380679  0  4.043174  0
C  C55  1  0.12633507  0.34946953  0.15518397  1  1.077904  0  0.257407  0.379829  0  4.045661  0
C  C56  1  0.14856343  0.34312704  0.08774858  1  1.106652  0  0.256866  0.380809  0  4.044856  0
C  C57  1  0.80791160  0.13472281  0.61247396  1  1.110837  0  0.257234  0.379238  0  4.049665  0
C  C58  1  0.87170038  0.17902054  0.60186930  1  1.108191  0  0.256457  0.380829  0  4.039155  0
C  C59  1  0.87099477  0.13618282  0.65540005  1  1.142765  0  0.25803  0.381213  0  4.051074  0
C  C60  1  0.13625478  0.97230386  0.86289840  1  0.500514  0  0.014509  -0.079017  0  3.956028  0
C  C61  1  0.16310633  0.96538176  0.89763984  1  0.375175  0  0.075464  0.047642  0  4.098443  0
C  C62  1  0.15238146  0.00269304  0.92745582  1  0.449556  0  0.018357  -0.067674  0  3.951461  0
C  C63  1  0.00343016  0.14387192  0.79055498  1  0.474141  0  0.009438  -0.08673  0  3.96265  0
C  C64  1  0.98053109  0.10659717  0.76799545  1  0.380436  0  0.075887  0.048752  0  4.100132  0
C  C65  1  0.99940161  0.06676868  0.78191632  1  0.439408  0  0.017139  -0.072874  0  3.949442  0
C  C66  1  0.11474738  0.18255959  0.97596567  1  0.434103  0  0.009712  -0.087588  0  3.963842  0
C  C67  1  0.11412026  0.22855270  0.96753116  1  0.303954  0  0.077138  0.057878  0  4.101784  0
C  C68  1  0.09917775  0.22732466  0.92654678  1  0.542085  0  0.017902  -0.070044  0  3.940766  0
C  C69  1  0.83499507  0.46437397  0.34575637  1  0.4685  0  0.017238  -0.07141  0  3.954108  0
C  C70  1  0.79412520  0.47430500  0.37000132  1  0.350672  0  0.075553  0.048052  0  4.09957  0
C  C71  1  0.79778198  0.44772349  0.40293060  1  0.45338  0  0.012125  -0.084825  0  3.958049  0
C  C72  1  0.02252427  0.31588298  0.31358800  1  0.487246  0  0.019651  -0.068186  0  3.943145  0
C  C73  1  0.02745796  0.34167490  0.28021415  1  0.373456  0  0.074887  0.046946  0  4.097873  0
C  C74  1  0.99482496  0.37820008  0.28756653  1  0.433486  0  0.01117  -0.083661  0  3.967834  0
C  C75  1  0.87856647  0.31275581  0.48625461  1  0.451282  0  0.011117  -0.086049  0  3.96519  0
C  C76  1  0.91188213  0.27939646  0.49466618  1  0.392963  0  0.075971  0.05142  0  4.095752  0
C  C77  1  0.94616151  0.27808181  0.46320601  1  0.476361  0  0.017512  -0.071544  0  3.947975  0
C  C78  1  0.63989103  0.02795798  0.63756960  1  0.414884  0  0.013634  -0.0821  0  3.959367  0
C  C79  1  0.66718772  0.03452714  0.60265895  1  0.362702  0  0.075557  0.049988  0  4.094063  0
C  C80  1  0.65684615  0.99728257  0.57294012  1  0.465513  0  0.018634  -0.067904  0  3.948415  0
C  C81  1  0.50392101  0.85955668  0.71070088  1  0.40151  0  0.010451  -0.087159  0  3.963256  0
C  C82  1  0.48207614  0.89733425  0.73419102  1  0.380332  0  0.076085  0.050708  0  4.098235  0
C  C83  1  0.50191590  0.93675888  0.72043422  1  0.438264  0  0.016916  -0.07304  0  3.948658  0
C  C84  1  0.61631470  0.81789639  0.52407879  1  0.437075  0  0.010377  -0.087657  0  3.961362  0
C  C85  1  0.61384698  0.77194461  0.53244849  1  0.372987  0  0.076729  0.059038  0  4.098768  0
C  C86  1  0.59842848  0.77381545  0.57357430  1  0.434329  0  0.016038  -0.072446  0  3.944054  0
C  C87  1  0.34446366  0.52795428  0.14870415  1  0.497619  0  0.016024  -0.072753  0  3.953298  0
C  C88  1  0.30239512  0.51955333  0.12656513  1  0.331397  0  0.075023  0.047809  0  4.099266  0
C  C89  1  0.30379434  0.54824549  0.09503337  1  0.457025  0  0.012186  -0.082163  0  3.956023  0
C  C90  1  0.51857130  0.68549574  0.18802131  1  0.484587  0  0.020161  -0.066919  0  3.938478  0
C  C91  1  0.52570439  0.65728589  0.21935793  1  0.386051  0  0.074529  0.046489  0  4.095243  0
C  C92  1  0.49793968  0.61798615  0.20883608  1  0.43696  0  0.010789  -0.085802  0  3.968952  0
C  C93  1  0.37938988  0.68835052  0.01418274  1  0.444078  0  0.011272  -0.084169  0  3.962752  0
C  C94  1  0.41130030  0.72315032  0.00675371  1  0.34092  0  0.074514  0.046668  0  4.09778  0
C  C95  1  0.44455931  0.72502194  0.03857962  1  0.474749  0  0.018829  -0.069888  0  3.946413  0
C  C96  1  0.25941400  0.88668989  0.89958435  1  0.448934  0  0.086303  0.031925  0  4.045808  0
C  C97  1  0.23619488  0.91939442  0.87918095  1  0.391771  0  0.04203  -0.111661  0  3.855866  0
C  C98  1  0.70270583  0.55613914  0.35748226  1  0.478533  0  0.087488  0.03198  0  4.045845  0
C  C99  1  0.73240852  0.53663775  0.38465448  1  0.334331  0  0.041636  -0.115089  0  3.84827  0
C  C100  1  0.76200833  0.11405560  0.60092444  1  0.507343  0  0.087694  0.035996  0  4.041077  0
C  C101  1  0.73869782  0.08154693  0.62153805  1  0.323313  0  0.041168  -0.113819  0  3.854934  0
C  C102  1  0.21107323  0.43901599  0.14146946  1  0.421681  0  0.088372  0.032439  0  4.042734  0
C  C103  1  0.23970023  0.45876006  0.11341183  1  0.392425  0  0.04056  -0.116177  0  3.849583  0
C  C104  1  0.89482572  0.11994310  0.69065875  1  0.43545  0  0.086938  0.031551  0  4.04491  0
C  C105  1  0.93780022  0.13433221  0.70836971  1  0.357448  0  0.039453  -0.118052  0  3.849855  0
C  C106  1  0.59184501  0.66415110  0.31213758  1  0.484758  0  0.088003  0.035282  0  4.045258  0
C  C107  1  0.57979848  0.63838020  0.27507856  1  0.371333  0  0.040134  -0.11727  0  3.854739  0
C  C108  1  0.09788942  0.33430378  0.18877815  1  0.516473  0  0.088163  0.03591  0  4.043301  0
C  C109  1  0.08292379  0.36078439  0.22486675  1  0.308476  0  0.038717  -0.118987  0  3.856616  0
C  C110  1  0.39580625  0.88444661  0.81221488  1  0.447414  0  0.088217  0.032909  0  4.04491  0
C  C111  1  0.43867322  0.86941083  0.79372613  1  0.370725  0  0.041438  -0.115119  0  3.848885  0
C  C112  1  0.14397703  0.31851637  0.04620304  1  0.507583  0  0.087989  0.033726  0  4.043131  0
C  C113  1  0.12303282  0.27565787  0.03586466  1  0.288976  0  0.041121  -0.107512  0  3.856395  0
C  C114  1  0.64020977  0.68010518  0.45364162  1  0.423715  0  0.088241  0.034092  0  4.041924  0
C  C115  1  0.62031216  0.72370570  0.46421892  1  0.405803  0  0.040044  -0.10904  0  3.855596  0
C  C116  1  0.39454778  0.79318032  0.92585292  1  0.428227  0  0.087252  0.032293  0  4.04454  0
C  C117  1  0.37459449  0.77292615  0.95837436  1  0.376403  0  0.041427  -0.114006  0  3.854342  0
C  C118  1  0.89517217  0.21004113  0.57613635  1  0.484938  0  0.087004  0.032256  0  4.044937  0
C  C119  1  0.87565649  0.22920562  0.54300754  1  0.330259  0  0.040485  -0.115867  0  3.855974  0
N  N120  1  0.64507983  0.60910219  0.33541607  1  -1.164264  0  -0.315373  -0.407854  0  3.175865  0
N  N121  1  0.61871816  0.67350792  0.38279290  1  -1.176628  0  -0.315765  -0.41133  0  3.169794  0
N  N122  1  0.67008096  0.61622252  0.40599909  1  -1.165915  0  -0.315721  -0.408603  0  3.164511  0
N  N123  1  0.32708998  0.88345316  0.85590011  1  -1.125753  0  -0.314612  -0.407909  0  3.19167  0
N  N124  1  0.39513937  0.83750005  0.86785505  1  -1.146065  0  -0.31593  -0.409554  0  3.163982  0
N  N125  1  0.32622227  0.83702125  0.91168142  1  -1.153989  0  -0.316318  -0.409578  0  3.160627  0
N  N126  1  0.15219372  0.38808808  0.16473041  1  -1.146635  0  -0.315204  -0.407107  0  3.169292  0
N  N127  1  0.12405473  0.32487894  0.11767599  1  -1.157999  0  -0.315301  -0.408976  0  3.170357  0
N  N128  1  0.17617462  0.38076779  0.09348136  1  -1.185332  0  -0.314879  -0.408156  0  3.167101  0
N  N129  1  0.82783847  0.16481697  0.58947121  1  -1.181858  0  -0.316096  -0.409557  0  3.16319  0
N  N130  1  0.89502780  0.16615282  0.63449312  1  -1.157649  0  -0.316227  -0.409152  0  3.162456  0
N  N131  1  0.82766477  0.11943284  0.64596885  1  -1.18529  0  -0.314798  -0.407753  0  3.192674  0
N  N132  1  0.12093849  0.03058497  0.91137415  1  -0.757795  0  -0.334026  -0.133831  0  3.748255  0
N  N133  1  0.11103327  0.01192881  0.87153664  1  -0.757785  0  -0.332473  -0.129779  0  3.755153  0
N  N134  1  0.03196459  0.07956631  0.81115227  1  -0.759271  0  -0.330943  -0.125908  0  3.754868  0
N  N135  1  0.03456699  0.12707949  0.81649904  1  -0.772943  0  -0.332625  -0.132078  0  3.75211  0
N  N136  1  0.09131650  0.18284367  0.91134566  1  -0.766847  0  -0.330559  -0.127883  0  3.752607  0
N  N137  1  0.10073918  0.15525907  0.94178636  1  -0.742459  0  -0.334302  -0.133506  0  3.75843  0
N  N138  1  0.83890693  0.42329718  0.39852923  1  -0.753541  0  -0.330854  -0.128466  0  3.751848  0
N  N139  1  0.86166993  0.43360616  0.36330432  1  -0.774085  0  -0.334536  -0.12935  0  3.766887  0
N  N140  1  0.97176662  0.37451133  0.32349174  1  -0.765041  0  -0.334659  -0.130865  0  3.766667  0
N  N141  1  0.98873105  0.33607048  0.33950174  1  -0.771125  0  -0.329772  -0.129249  0  3.746252  0
N  N142  1  0.93385199  0.30893309  0.43729485  1  -0.768438  0  -0.328916  -0.127335  0  3.753141  0
N  N143  1  0.89212591  0.33026439  0.45145100  1  -0.772091  0  -0.332019  -0.130811  0  3.765161  0
N  N144  1  0.62518792  0.96976759  0.58924273  1  -0.761678  0  -0.333825  -0.135271  0  3.750765  0
N  N145  1  0.61477601  0.98859496  0.62911494  1  -0.768074  0  -0.332197  -0.127987  0  3.757149  0
N  N146  1  0.53407249  0.92322711  0.69043198  1  -0.772754  0  -0.331865  -0.126727  0  3.755492  0
N  N147  1  0.53542738  0.87566170  0.68442292  1  -0.744216  0  -0.332903  -0.132141  0  3.753553  0
N  N148  1  0.59203994  0.81859149  0.58890657  1  -0.746337  0  -0.332212  -0.13104  0  3.754095  0
N  N149  1  0.60288964  0.84577664  0.55842259  1  -0.764428  0  -0.332161  -0.129912  0  3.75486  0
N  N150  1  0.34476634  0.57245176  0.09822108  1  -0.764816  0  -0.330322  -0.128493  0  3.750345  0
N  N151  1  0.36966787  0.55988929  0.13130345  1  -0.776919  0  -0.334631  -0.131323  0  3.764928  0
N  N152  1  0.47553459  0.62242248  0.17304397  1  -0.771126  0  -0.336007  -0.131731  0  3.76626  0
N  N153  1  0.48813621  0.66404493  0.16024513  1  -0.772126  0  -0.328921  -0.129924  0  3.746113  0
N  N154  1  0.43302126  0.69310061  0.06374856  1  -0.765326  0  -0.329419  -0.127723  0  3.749854  0
N  N155  1  0.39278812  0.67051622  0.04874813  1  -0.757317  0  -0.332119  -0.130862  0  3.758196  0
N  N156  1  0.19486097  0.90515884  0.93568545  1  -0.072119  0  -0.099746  -0.12754  0  3.080821  0
N  N157  1  0.23280219  0.87919770  0.93368629  1  -0.526049  0  -0.196855  -0.182853  0  3.253775  0
N  N158  1  0.19643632  0.93021227  0.90202533  1  -0.887593  0  -0.121761  0.146548  0  3.798089  0
N  N159  1  0.74351206  0.50275713  0.31943718  1  -0.060337  0  -0.097065  -0.12487  0  3.090282  0
N  N160  1  0.71092680  0.53428652  0.31826387  1  -0.535656  0  -0.194336  -0.178787  0  3.265549  0
N  N161  1  0.75726018  0.50372154  0.36038346  1  -0.87242  0  -0.12015  0.150282  0  3.793615  0
N  N162  1  0.69959112  0.09369383  0.56377389  1  -0.084429  0  -0.100184  -0.12738  0  3.080489  0
N  N163  1  0.73677966  0.12024707  0.56604788  1  -0.538446  0  -0.1978  -0.184996  0  3.253796  0
N  N164  1  0.70027218  0.06955257  0.59802520  1  -0.869782  0  -0.120071  0.147759  0  3.794708  0
N  N165  1  0.25459897  0.48973444  0.17868399  1  -0.08355  0  -0.097789  -0.126858  0  3.096073  0
N  N166  1  0.22162324  0.45906236  0.18066779  1  -0.497282  0  -0.193255  -0.176524  0  3.269294  0
N  N167  1  0.26622082  0.49005201  0.13717341  1  -0.884505  0  -0.119324  0.150682  0  3.793545  0
N  N168  1  0.90621741  0.07713501  0.74039568  1  -0.084662  0  -0.098099  -0.126719  0  3.0958  0
N  N169  1  0.87719633  0.08504055  0.71122918  1  -0.517326  0  -0.194052  -0.179393  0  3.270196  0
N  N170  1  0.94393847  0.10743496  0.73913241  1  -0.882661  0  -0.117894  0.153986  0  3.796181  0
N  N171  1  0.54771358  0.70979562  0.27957030  1  -0.072837  0  -0.099025  -0.126954  0  3.081598  0
N  N172  1  0.57158103  0.70734549  0.31325952  1  -0.521795  0  -0.195546  -0.181685  0  3.26001  0
N  N173  1  0.55227359  0.66720474  0.25561099  1  -0.891987  0  -0.120175  0.150658  0  3.791334  0
N  N174  1  0.05528074  0.28810415  0.22218358  1  -0.073547  0  -0.09992  -0.127201  0  3.084774  0
N  N175  1  0.08022411  0.29036942  0.18871789  1  -0.524679  0  -0.195165  -0.181305  0  3.259478  0
N  N176  1  0.05631615  0.33160052  0.24484406  1  -0.88658  0  -0.120349  0.149134  0  3.791196  0
N  N177  1  0.40832250  0.92861305  0.76358465  1  -0.074309  0  -0.096952  -0.123493  0  3.095371  0
N  N178  1  0.37892720  0.92055320  0.79277979  1  -0.529072  0  -0.195184  -0.181997  0  3.267978  0
N  N179  1  0.44548663  0.89713653  0.76364231  1  -0.86075  0  -0.121273  0.148848  0  3.798339  0
N  N180  1  0.14956266  0.30455644  0.97892972  1  -0.067682  0  -0.097926  -0.118291  0  3.086427  0
N  N181  1  0.15941533  0.33466936  0.01049113  1  -0.532031  0  -0.195844  -0.180875  0  3.250001  0
N  N182  1  0.12718367  0.26774347  0.99418182  1  -0.876634  0  -0.119905  0.128015  0  3.835761  0
N  N183  1  0.64780471  0.69487741  0.52060401  1  -0.089244  0  -0.09719  -0.117226  0  3.087432  0
N  N184  1  0.65630526  0.66404807  0.48903261  1  -0.518095  0  -0.196925  -0.182572  0  3.253603  0
N  N185  1  0.62567589  0.73211545  0.50569540  1  -0.868388  0  -0.120505  0.126818  0  3.835074  0
N  N186  1  0.45260373  0.75591781  0.95164731  1  -0.066067  0  -0.099989  -0.128549  0  3.080448  0
N  N187  1  0.44204592  0.78180003  0.92312022  1  -0.516509  0  -0.194595  -0.178952  0  3.255847  0
N  N188  1  0.41113439  0.75001381  0.97373345  1  -0.890431  0  -0.118845  0.152466  0  3.792082  0
N  N189  1  0.95256233  0.24888693  0.55103590  1  -0.077166  0  -0.098396  -0.126806  0  3.083375  0
N  N190  1  0.94200557  0.22303295  0.57966521  1  -0.516977  0  -0.195377  -0.180139  0  3.257243  0
N  N191  1  0.91176147  0.25310905  0.52808553  1  -0.880378  0  -0.121347  0.149429  0  3.794339  0
