# generated using pymatgen
data_CuH7C6N7
_symmetry_space_group_name_H-M   'P 1'
_cell_length_a   6.59962541
_cell_length_b   13.35597451
_cell_length_c   13.35583125
_cell_angle_alpha   61.21613733
_cell_angle_beta   81.00479675
_cell_angle_gamma   81.00456257
_symmetry_Int_Tables_number   1
_chemical_formula_structural   CuH7C6N7
_chemical_formula_sum   'Cu4 H28 C24 N28'
_cell_volume   1014.61639044
_cell_formula_units_Z   4
loop_
 _symmetry_equiv_pos_site_id
 _symmetry_equiv_pos_as_xyz
  1  'x, y, z'
loop_
 _atom_site_type_symbol
 _atom_site_label
 _atom_site_symmetry_multiplicity
 _atom_site_fract_x
 _atom_site_fract_y
 _atom_site_fract_z
 _atom_site_occupancy
 _atom_site_hle17_ddec_charge
 _atom_site_hle17_ddec_spin_density
 _atom_site_hle17_ddec_sum_bond_order
 _atom_site_hle17_magmom
 _atom_site_hse06_10hf_ddec_charge
 _atom_site_hse06_10hf_ddec_spin_density
 _atom_site_hse06_10hf_ddec_sum_bond_order
 _atom_site_hse06_10hf_magmom
 _atom_site_hse06_ddec_charge
 _atom_site_hse06_ddec_spin_density
 _atom_site_hse06_ddec_sum_bond_order
 _atom_site_hse06_magmom
 _atom_site_pbe_cm5_charge
 _atom_site_pbe_ddec_charge
 _atom_site_pbe_ddec_spin_density
 _atom_site_pbe_ddec_sum_bond_order
 _atom_site_pbe_magmom
Cu  Cu0  1  0.34711373  0.99562052  0.86752455  1  0.767075  -0.503793  1.979921  -0.346  0.784114  -0.701309  2.39203  -0.539  0.880283  -0.816927  2.319448  -0.649  0.757913  0.730831  -0.590032  2.438004  -0.446
Cu  Cu1  1  0.15289309  0.13247421  0.00437497  1  0.767127  0.503832  1.979854  0.346  0.783991  0.701326  2.39206  0.539  0.880174  0.816922  2.319474  0.649  0.757902  0.730752  0.590075  2.437971  0.446
Cu  Cu2  1  0.65314664  0.00467650  0.13238106  1  0.766921  0.503124  1.978164  0.346  0.783855  0.70126  2.390222  0.539  0.880165  0.817197  2.317934  0.649  0.756983  0.730485  0.589603  2.43633  0.446
Cu  Cu3  1  0.84687733  0.86759889  0.99534562  1  0.766771  -0.503128  1.97888  -0.346  0.783771  -0.701301  2.391009  -0.539  0.879956  -0.817195  2.318814  -0.649  0.757035  0.730445  -0.589622  2.437058  -0.446
H  H4  1  0.12874745  0.12946401  0.66259288  1  0.08654  -0.000924  0.936388  -0.001  0.09612  -0.001174  0.999352  -0.002  0.097699  -0.000909  0.998717  -0.001  0.119299  0.094529  -0.001246  1.000241  -0.002
H  H5  1  0.37124185  0.33740810  0.87053496  1  0.08655  0.000925  0.93642  0.001  0.096127  0.001174  0.999387  0.002  0.097707  0.000909  0.998749  0.001  0.119264  0.09454  0.001246  1.000268  0.002
H  H6  1  0.87177211  0.87060464  0.33777510  1  0.08648  0.00092  0.936385  0.001  0.096075  0.001172  0.999249  0.002  0.097645  0.000907  0.998612  0.001  0.119108  0.094501  0.001243  1.00011  0.002
H  H7  1  0.62821970  0.66221199  0.12941318  1  0.086534  -0.000919  0.936185  -0.001  0.096072  -0.001171  0.99911  -0.002  0.097641  -0.000907  0.998476  -0.001  0.119137  0.094496  -0.001243  0.999977  -0.002
H  H8  1  0.57606251  0.18060085  0.37356501  1  0.100726  0.000299  0.959364  0.0  0.107895  0.000463  1.029392  0.0  0.110391  0.000388  1.027608  0.0  0.106291  0.105951  0.000503  1.030875  0.0
H  H9  1  0.92392250  0.62643395  0.81941152  1  0.1008  -0.000298  0.959157  0.0  0.107854  -0.000463  1.029335  0.0  0.110365  -0.000389  1.027519  0.0  0.106337  0.105907  -0.000503  1.030818  0.0
H  H10  1  0.42393581  0.81930213  0.62662463  1  0.100762  -0.000298  0.959908  0.0  0.107782  -0.00046  1.030145  0.0  0.110342  -0.000387  1.028199  0.0  0.106127  0.105823  -0.0005  1.031673  0.0
H  H11  1  0.07605616  0.37336729  0.18069064  1  0.100801  0.000297  0.959844  0.0  0.107755  0.000461  1.030148  0.0  0.110314  0.000387  1.028204  0.0  0.10611  0.105787  0.0005  1.031707  0.0
H  H12  1  0.83232529  0.05558373  0.51287558  1  0.101737  -0.000366  0.958548  0.0  0.110593  -0.000448  1.02305  -0.001  0.113331  -0.000331  1.022344  0.0  0.106841  0.108526  -0.000484  1.023843  -0.001
H  H13  1  0.66766226  0.48711706  0.94442376  1  0.101846  0.000366  0.958616  0.0  0.110789  0.000448  1.023005  0.001  0.113474  0.000331  1.02235  0.0  0.106905  0.10872  0.000484  1.023798  0.001
H  H14  1  0.16782573  0.94412312  0.48726153  1  0.101839  0.000372  0.958937  0.0  0.110762  0.000451  1.023207  0.001  0.113504  0.000333  1.022494  0.0  0.10686  0.108667  0.000488  1.024061  0.001
H  H15  1  0.33218144  0.51272903  0.05589943  1  0.101736  -0.000372  0.958896  0.0  0.11061  -0.000451  1.023248  -0.001  0.113352  -0.000333  1.022533  0.0  0.106802  0.108517  -0.000488  1.024099  -0.001
H  H16  1  0.72330475  0.97602286  0.72380605  1  0.071792  -0.000607  0.99275  -0.001  0.077342  -0.000835  1.064613  -0.001  0.078351  -0.000632  1.064554  -0.001  0.113383  0.076199  -0.00091  1.065103  -0.001
H  H17  1  0.77668827  0.27618635  0.02397415  1  0.071734  0.000606  0.992811  0.001  0.077328  0.000835  1.064605  0.001  0.078348  0.000632  1.064539  0.001  0.113366  0.076177  0.000909  1.0651  0.001
H  H18  1  0.27699687  0.02383727  0.27635901  1  0.071901  0.000606  0.991735  0.001  0.077058  0.000836  1.06403  0.001  0.078053  0.000632  1.063974  0.001  0.113278  0.075971  0.000912  1.064454  0.001
H  H19  1  0.22302226  0.72363103  0.97619936  1  0.072055  -0.000606  0.991732  -0.001  0.077151  -0.000835  1.064132  -0.001  0.078148  -0.000632  1.064084  -0.001  0.113297  0.076064  -0.000911  1.064557  -0.001
H  H20  1  0.24106824  0.31602816  0.35284110  1  0.116982  -0.000276  0.950021  0.0  0.142423  -0.000197  1.004925  0.0  0.142843  -0.000147  1.005958  0.0  0.097394  0.141969  -0.000217  1.004388  0.0
H  H21  1  0.25892723  0.64716534  0.68398796  1  0.116949  0.000277  0.949948  0.0  0.142431  0.000197  1.004833  0.0  0.142838  0.000147  1.005878  0.0  0.097409  0.141974  0.000217  1.004296  0.0
H  H22  1  0.75895287  0.68386680  0.64746144  1  0.116784  0.000277  0.949125  0.0  0.141824  0.0002  1.004588  0.0  0.142239  0.000149  1.005622  0.0  0.097073  0.14137  0.00022  1.004046  0.0
H  H23  1  0.74102052  0.35252785  0.31614293  1  0.116747  -0.000277  0.949048  0.0  0.141833  -0.000199  1.00449  0.0  0.14225  -0.000148  1.005532  0.0  0.097107  0.141381  -0.00022  1.003948  0.0
H  H24  1  0.04848878  0.27920588  0.47123346  1  0.120248  -2.7e-05  0.930338  0.0  0.144944  -4.7e-05  0.981818  0.0  0.146343  -3.9e-05  0.98164  0.0  0.099055  0.143682  -4.8e-05  0.98223  0.0
H  H25  1  0.45151549  0.52877367  0.72081754  1  0.120285  2.8e-05  0.930396  0.0  0.145065  4.7e-05  0.981784  0.0  0.146467  3.9e-05  0.981597  0.0  0.099096  0.143781  4.7e-05  0.982223  0.0
H  H26  1  0.95182733  0.72075892  0.52920750  1  0.120295  2.6e-05  0.929784  0.0  0.144797  4.8e-05  0.981463  0.0  0.146201  3.9e-05  0.981271  0.0  0.098919  0.143521  4.8e-05  0.981889  0.0
H  H27  1  0.54814123  0.47078958  0.27922067  1  0.120262  -2.7e-05  0.929745  0.0  0.144813  -4.7e-05  0.981377  0.0  0.146231  -3.9e-05  0.98117  0.0  0.098955  0.143539  -4.8e-05  0.981802  0.0
H  H28  1  0.09961036  0.19811504  0.39453396  1  0.114132  -2.4e-05  0.973751  0.0  0.131514  0.000109  1.047733  0.0  0.13204  5e-05  1.047976  0.0  0.091309  0.131074  0.000151  1.047577  0.0
H  H29  1  0.40035968  0.60546600  0.80191219  1  0.114162  2.5e-05  0.973735  0.0  0.131594  -0.000109  1.047689  0.0  0.132107  -5.1e-05  1.047936  0.0  0.091329  0.131153  -0.000151  1.047531  0.0
H  H30  1  0.90033542  0.80176217  0.60600378  1  0.11366  7e-06  0.973361  0.0  0.131146  -0.000119  1.047347  0.0  0.131693  -5.9e-05  1.047577  0.0  0.091157  0.130701  -0.000163  1.047187  0.0
H  H31  1  0.59968068  0.39397777  0.19823007  1  0.113763  -9e-06  0.973253  0.0  0.131221  0.000119  1.04727  0.0  0.131764  5.8e-05  1.04751  0.0  0.091157  0.130788  0.000163  1.047099  0.0
C  C32  1  0.28329128  0.11589797  0.62521345  1  0.060365  0.004909  3.662047  0.005  0.027138  0.000501  3.904609  0.001  0.035  0.001662  3.924496  0.003  0.040524  0.022148  -0.000341  3.892384  0.0
C  C33  1  0.21670134  0.37478751  0.88409997  1  0.060271  -0.004923  3.66218  -0.005  0.026997  -0.000501  3.904788  -0.001  0.034864  -0.001661  3.924676  -0.003  0.040507  0.022004  0.000341  3.89256  0.0
C  C34  1  0.71709520  0.88415043  0.37504422  1  0.060832  -0.004892  3.66139  -0.005  0.027827  -0.000496  3.903999  -0.001  0.035721  -0.001655  3.923862  -0.003  0.040589  0.022823  0.000343  3.891778  0.0
C  C35  1  0.78290269  0.62494306  0.11586508  1  0.060873  0.004884  3.661217  0.005  0.027926  0.000497  3.903779  0.001  0.035814  0.001656  3.923645  0.003  0.040572  0.022926  -0.000344  3.891554  0.0
C  C36  1  0.33028970  0.16730973  0.50642279  1  0.111679  -0.007209  3.737139  -0.007  0.146968  -0.003997  3.964397  -0.005  0.142426  -0.003896  3.989686  -0.005  0.004909  0.149561  -0.003736  3.947454  -0.004
C  C37  1  0.16969649  0.49357847  0.83269901  1  0.11167  0.007225  3.73736  0.007  0.147015  0.003998  3.964571  0.005  0.142468  0.003895  3.989856  0.005  0.004943  0.149606  0.003737  3.947628  0.004
C  C38  1  0.66994709  0.83267093  0.49385945  1  0.111409  0.007181  3.736144  0.007  0.146314  0.004003  3.963837  0.005  0.141753  0.003898  3.989133  0.005  0.005069  0.14891  0.003741  3.946896  0.004
C  C39  1  0.83005674  0.50613132  0.16733037  1  0.111212  -0.007186  3.736152  -0.007  0.146163  -0.004003  3.963778  -0.005  0.141601  -0.003898  3.989089  -0.005  0.004998  0.148761  -0.003742  3.94683  -0.004
C  C40  1  0.53144023  0.14427256  0.46555793  1  -0.059416  0.006976  3.673889  0.006  -0.083872  0.003053  3.911158  0.003  -0.080763  0.003456  3.929898  0.003  -0.063734  -0.085761  0.002558  3.898582  0.002
C  C41  1  0.96854006  0.53443868  0.85573560  1  -0.059329  -0.006989  3.673918  -0.006  -0.083711  -0.003053  3.911232  -0.003  -0.08059  -0.003455  3.929946  -0.003  -0.06377  -0.085605  -0.002559  3.898661  -0.002
C  C42  1  0.46873082  0.85564313  0.53467143  1  -0.059458  -0.006926  3.673913  -0.006  -0.083685  -0.003053  3.911295  -0.003  -0.080569  -0.003453  3.930045  -0.003  -0.063747  -0.085575  -0.002558  3.898706  -0.002
C  C43  1  0.03126843  0.46531634  0.14436068  1  -0.059406  0.00694  3.673965  0.006  -0.083579  0.003054  3.911301  0.003  -0.080471  0.003454  3.930063  0.003  -0.063635  -0.085468  0.00256  3.898693  0.002
C  C44  1  0.67527089  0.07464679  0.54289475  1  -0.108554  -0.006733  3.755916  -0.007  -0.118664  -0.00351  4.002867  -0.004  -0.12583  -0.003488  4.024779  -0.004  -0.081667  -0.114098  -0.003237  3.988264  -0.004
C  C45  1  0.82471235  0.45710366  0.92535745  1  -0.108768  0.006741  3.756073  0.007  -0.118966  0.00351  4.003059  0.004  -0.126075  0.003487  4.02499  0.004  -0.081705  -0.114402  0.003237  3.988456  0.004
C  C46  1  0.32495184  0.92518070  0.45730552  1  -0.109051  0.006681  3.757875  0.007  -0.119166  0.00351  4.004654  0.004  -0.126331  0.003483  4.026556  0.004  -0.082135  -0.1146  0.003237  3.990053  0.004
C  C47  1  0.17504421  0.54268624  0.07483843  1  -0.108878  -0.006687  3.757925  -0.007  -0.119008  -0.003509  4.004707  -0.004  -0.126173  -0.003483  4.026617  -0.004  -0.082179  -0.114436  -0.003237  3.990092  -0.004
C  C48  1  0.61657704  0.02935159  0.65982463  1  0.111868  0.005004  3.706126  0.005  0.082794  0.000763  3.955722  0.002  0.090836  0.001996  3.976553  0.003  0.035917  0.077876  -0.000119  3.942605  0.0
C  C49  1  0.88340709  0.34017344  0.97064539  1  0.111894  -0.005008  3.705858  -0.005  0.08278  -0.000763  3.955513  -0.002  0.090812  -0.001995  3.976331  -0.003  0.035873  0.077871  0.000119  3.942392  0.0
C  C50  1  0.38371982  0.97053673  0.34037745  1  0.112438  -0.00496  3.706682  -0.005  0.08362  -0.000767  3.956656  -0.002  0.091667  -0.002001  3.977505  -0.003  0.036283  0.078689  0.000117  3.943448  0.0
C  C51  1  0.11630067  0.65961493  0.02948385  1  0.112058  0.004962  3.706916  0.005  0.083309  0.000768  3.956805  0.002  0.091344  0.002002  3.977659  0.003  0.036231  0.078376  -0.000117  3.943599  0.0
C  C52  1  0.17059181  0.24432212  0.42751773  1  -0.343885  -0.000437  3.727862  0.0  -0.428699  -0.000489  3.955391  0.0  -0.430548  -0.000362  3.967055  0.0  -0.238095  -0.426969  -0.000537  3.947627  0.0
C  C53  1  0.32940237  0.57248371  0.75569829  1  -0.343946  0.000429  3.72793  0.0  -0.428897  0.000489  3.955417  0.0  -0.430742  0.000363  3.967146  0.0  -0.238196  -0.427141  0.000536  3.947645  0.0
C  C54  1  0.82952396  0.75563001  0.57286839  1  -0.343323  0.000432  3.725346  0.0  -0.427685  0.000478  3.953282  0.0  -0.429557  0.000356  3.96496  0.0  -0.237771  -0.425931  0.000527  3.945513  0.0
C  C55  1  0.67046052  0.42712141  0.24436682  1  -0.343346  -0.000427  3.724863  0.0  -0.427786  -0.00048  3.95277  0.0  -0.429651  -0.000355  3.9644  0.0  -0.237865  -0.426038  -0.000527  3.94499  0.0
N  N56  1  0.25001709  0.97180379  0.02819282  1  -0.537962  -5e-06  2.928661  0.0  -0.579289  -0.0  3.333795  0.0  -0.639437  0.0  3.351393  0.0  -0.361547  -0.544634  -5e-06  3.324836  0.0
N  N57  1  0.75001069  0.02858153  0.97140165  1  -0.536477  -8e-06  2.925144  0.0  -0.577077  1e-06  3.3301  0.0  -0.637386  0.0  3.348065  0.0  -0.359301  -0.542299  -5e-06  3.320973  0.0
N  N58  1  0.24999976  0.88226353  0.11772718  1  0.389023  5e-06  4.126106  0.0  0.432823  -0.0  4.443357  0.0  0.453754  2e-06  4.480689  0.0  0.099006  0.419724  3e-06  4.417591  0.0
N  N59  1  0.75002666  0.11806601  0.88189638  1  0.389054  0.0  4.127854  0.0  0.431326  -2e-06  4.447235  0.0  0.452344  -1e-06  4.484716  0.0  0.097775  0.418202  -1e-06  4.421298  0.0
N  N60  1  0.24998489  0.79701867  0.20296768  1  -0.266387  -1.7e-05  2.298712  0.0  -0.28867  0.0  2.514084  0.0  -0.296624  -2e-06  2.526197  0.0  -0.140244  -0.281162  -9e-06  2.504562  0.0
N  N61  1  0.75004140  0.20328430  0.79665740  1  -0.266867  -2e-06  2.29838  0.0  -0.288675  3e-06  2.514881  0.0  -0.296923  -4e-06  2.527155  0.0  -0.140413  -0.280948  6e-06  2.505226  0.0
N  N62  1  0.25002566  0.15686233  0.84313798  1  -0.558621  3e-06  2.929376  0.0  -0.602568  2e-06  3.333486  0.0  -0.660627  5e-06  3.349053  0.0  -0.368138  -0.569059  -1e-06  3.32513  0.0
N  N63  1  0.74999538  0.84348084  0.15651615  1  -0.558231  3e-06  2.930722  0.0  -0.60234  1e-06  3.335072  0.0  -0.66052  -0.0  3.350891  0.0  -0.367792  -0.568727  -3e-06  3.326642  0.0
N  N64  1  0.25001426  0.24650058  0.75349671  1  0.378567  1e-06  4.165695  0.0  0.42442  0.0  4.472046  0.0  0.445237  -1e-06  4.50902  0.0  0.094082  0.411809  2e-06  4.445553  0.0
N  N65  1  0.75000859  0.75386835  0.24613519  1  0.379881  -1e-05  4.167044  0.0  0.425626  -2e-06  4.473556  0.0  0.446443  -4e-06  4.510594  0.0  0.094279  0.413037  -2e-06  4.446972  0.0
N  N66  1  0.25000448  0.33169133  0.66830427  1  -0.264073  -6e-06  2.289683  0.0  -0.282119  4e-06  2.48747  0.0  -0.288806  4e-06  2.499874  0.0  -0.13156  -0.275742  -6e-06  2.477484  0.0
N  N67  1  0.75001304  0.66870936  0.33131057  1  -0.264952  1.4e-05  2.289428  0.0  -0.283064  1.3e-05  2.487191  0.0  -0.289795  6e-06  2.499608  0.0  -0.131867  -0.276609  1.7e-05  2.47716  0.0
N  N68  1  0.54800936  0.85692509  0.92131989  1  -0.550215  -0.061642  2.816042  -0.076  -0.594108  -0.035753  3.196704  -0.048  -0.639578  -0.02377  3.206471  -0.035  -0.337195  -0.568633  -0.040044  3.193046  -0.051
N  N69  1  0.95200591  0.07867391  0.14307778  1  -0.550457  0.061682  2.815538  0.076  -0.59434  0.035775  3.196202  0.048  -0.63986  0.023795  3.206026  0.035  -0.337383  -0.568844  0.040061  3.192531  0.051
N  N70  1  0.45279921  0.14362430  0.07838648  1  -0.550461  0.061522  2.813254  0.076  -0.594823  0.035557  3.193995  0.047  -0.64017  0.023576  3.203601  0.035  -0.337437  -0.569437  0.039839  3.190498  0.05
N  N71  1  0.04720606  0.92160048  0.85640446  1  -0.550597  -0.061582  2.812602  -0.076  -0.595014  -0.035582  3.193416  -0.047  -0.640356  -0.0236  3.203004  -0.035  -0.337543  -0.569565  -0.039864  3.18981  -0.05
N  N72  1  0.55860267  0.78711466  0.88709934  1  0.376435  0.022963  4.186838  0.035  0.42289  0.002936  4.499444  0.009  0.442264  0.005366  4.533363  0.011  0.07646  0.410988  7.2e-05  4.476869  0.006
N  N73  1  0.94140514  0.11290690  0.21288778  1  0.376387  -0.022951  4.186533  -0.035  0.422817  -0.002929  4.499157  -0.009  0.442189  -0.005358  4.533065  -0.011  0.076518  0.410918  -6.5e-05  4.476575  -0.006
N  N74  1  0.44093331  0.21343052  0.11267957  1  0.377044  -0.022961  4.188448  -0.035  0.423708  -0.002947  4.500816  -0.009  0.443094  -0.00534  4.53479  -0.011  0.077792  0.411807  -0.000116  4.478186  -0.006
N  N75  1  0.05906416  0.88730728  0.78657871  1  0.37711  0.022947  4.187596  0.035  0.423864  0.00294  4.499844  0.009  0.44325  0.005333  4.533798  0.011  0.077954  0.411962  0.000109  4.477231  0.006
N  N76  1  0.57415914  0.71667172  0.85763362  1  -0.345717  -0.098276  2.375414  -0.106  -0.357559  -0.051857  2.613168  -0.059  -0.365824  -0.043024  2.624443  -0.051  -0.169638  -0.35158  -0.055478  2.605056  -0.061
N  N77  1  0.92583710  0.14237290  0.28332184  1  -0.345424  0.098201  2.375769  0.106  -0.357221  0.051827  2.613489  0.058  -0.365466  0.042996  2.624765  0.051  -0.169451  -0.351256  0.055446  2.605378  0.061
N  N78  1  0.42393429  0.28403171  0.14203847  1  -0.346605  0.098142  2.378235  0.106  -0.358334  0.051625  2.615867  0.058  -0.366737  0.042829  2.627249  0.051  -0.170551  -0.352288  0.055157  2.60771  0.06
N  N79  1  0.07607285  0.85796830  0.71596808  1  -0.346477  -0.098049  2.378349  -0.106  -0.35828  -0.051595  2.615939  -0.058  -0.366661  -0.042806  2.627307  -0.051  -0.170528  -0.352235  -0.05513  2.607781  -0.06
N  N80  1  0.42285995  0.04933210  0.70009734  1  -0.301769  -0.060772  3.394822  -0.073  -0.243401  -0.056397  3.677739  -0.073  -0.275209  -0.050214  3.702022  -0.069  -0.354583  -0.226167  -0.05413  3.664598  -0.068
N  N81  1  0.07713353  0.29990213  0.95066270  1  -0.301641  0.060785  3.394502  0.073  -0.243225  0.056404  3.677369  0.073  -0.275037  0.05022  3.701675  0.069  -0.354527  -0.225989  0.054134  3.66422  0.068
N  N82  1  0.57754940  0.95068990  0.30009861  1  -0.303008  0.060622  3.392994  0.073  -0.244668  0.056428  3.675703  0.073  -0.276514  0.050213  3.700074  0.069  -0.354203  -0.227405  0.054139  3.662567  0.068
N  N83  1  0.92246164  0.69989005  0.04933414  1  -0.302769  -0.060637  3.393017  -0.073  -0.24448  -0.056434  3.675724  -0.073  -0.276308  -0.05022  3.700084  -0.069  -0.35408  -0.22722  -0.054151  3.662592  -0.068
