# generated using pymatgen
data_Ni2H34C48N4O11
_symmetry_space_group_name_H-M   'P 1'
_cell_length_a   13.53078720
_cell_length_b   13.52929764
_cell_length_c   15.64375506
_cell_angle_alpha   110.82038821
_cell_angle_beta   110.23119945
_cell_angle_gamma   100.90271724
_symmetry_Int_Tables_number   1
_chemical_formula_structural   Ni2H34C48N4O11
_chemical_formula_sum   'Ni4 H68 C96 N8 O22'
_cell_volume   2347.26295761
_cell_formula_units_Z   2
loop_
 _symmetry_equiv_pos_site_id
 _symmetry_equiv_pos_as_xyz
  1  'x, y, z'
loop_
 _atom_site_type_symbol
 _atom_site_label
 _atom_site_symmetry_multiplicity
 _atom_site_fract_x
 _atom_site_fract_y
 _atom_site_fract_z
 _atom_site_occupancy
 _atom_site_pbe_bader_charge
 _atom_site_pbe_bader_spin_density
 _atom_site_pbe_cm5_charge
 _atom_site_pbe_ddec_charge
 _atom_site_pbe_ddec_spin_density
 _atom_site_pbe_ddec_sum_bond_order
 _atom_site_pbe_magmom
Ni  Ni0  1  0.70432805  0.79318635  0.28176191  1  1.175162  -1.561552  0.631646  0.795738  -1.783961  2.327064  -1.55
Ni  Ni1  1  0.51142579  0.92249516  0.21821176  1  1.176346  1.561483  0.631365  0.795516  1.862109  2.326507  1.55
Ni  Ni2  1  0.29588131  0.20663763  0.71843129  1  1.175604  -1.566798  0.631198  0.795407  -1.789814  2.326421  -1.555
Ni  Ni3  1  0.48820997  0.07752786  0.78160199  1  1.176434  -1.566731  0.631201  0.795799  -1.78986  2.325636  -1.555
H  H4  1  0.53661439  0.78379122  0.31602203  1  0.653133  0.000525  0.287534  0.38457  0.000506  0.957053  0.001
H  H5  1  0.46773237  0.72049626  0.18389421  1  0.645204  -0.000558  0.287674  0.384495  -0.000454  0.957169  -0.001
H  H6  1  0.46328259  0.21628102  0.68388266  1  0.652636  -0.000307  0.287841  0.384885  -0.000697  0.956608  -0.001
H  H7  1  0.53242558  0.27948922  0.81618485  1  0.644598  -0.000321  0.288034  0.385039  -0.000698  0.956414  -0.001
H  H8  1  0.79449093  0.68912465  0.14108217  1  0.113175  -0.001964  0.119844  0.089822  -0.000727  1.024069  -0.001
H  H9  1  0.54792700  0.15330695  0.35878942  1  0.109524  0.001962  0.120054  0.089692  0.000767  1.025426  0.001
H  H10  1  0.20553604  0.31085482  0.85902604  1  0.111251  -0.00193  0.119895  0.089871  -0.000715  1.024219  -0.001
H  H11  1  0.45194418  0.84660822  0.64109835  1  0.110064  -0.001919  0.119997  0.089621  -0.000712  1.025164  -0.001
H  H12  1  0.97679163  0.71964174  0.13067101  1  0.039895  -0.000975  0.110518  0.117498  -0.000428  0.99153  0.0
H  H13  1  0.58889188  0.34601605  0.36921850  1  0.096651  0.000954  0.110466  0.117703  0.000446  0.991489  0.0
H  H14  1  0.02319699  0.28036307  0.86937508  1  0.039108  -0.001101  0.110525  0.117553  -0.000502  0.991646  0.0
H  H15  1  0.41108221  0.65392742  0.63073444  1  0.095418  -0.001075  0.110536  0.117739  -0.000499  0.991452  0.0
H  H16  1  0.13929755  0.96185378  0.45180259  1  0.122304  -0.000824  0.111612  0.12758  -0.000366  1.028506  0.0
H  H17  1  0.51012782  0.18747207  0.04814425  1  0.12008  0.000834  0.111674  0.128499  0.000383  1.028253  0.0
H  H18  1  0.86076158  0.03821936  0.54823408  1  0.119716  -0.000832  0.111481  0.127558  -0.000352  1.028491  0.0
H  H19  1  0.48990601  0.81254455  0.95181052  1  0.120305  -0.000945  0.111627  0.128193  -0.000452  1.028375  0.0
H  H20  1  0.95012694  0.91288100  0.44826623  1  0.129212  -0.001939  0.12117  0.092285  -0.00074  1.012412  -0.002
H  H21  1  0.46462097  0.00181630  0.05162434  1  0.0988  0.001942  0.120765  0.092708  0.000766  1.012944  0.001
H  H22  1  0.04996667  0.08714012  0.55184110  1  0.129958  -0.001967  0.121088  0.092258  -0.000776  1.012825  -0.001
H  H23  1  0.53529415  0.99816544  0.94826637  1  0.100167  -0.001993  0.120634  0.092417  -0.000771  1.012929  -0.001
H  H24  1  0.10122711  0.85653882  0.13019382  1  0.080007  0.000821  0.109605  0.114981  0.000379  1.002063  0.0
H  H25  1  0.72627906  0.47100336  0.36983095  1  0.082255  -0.000828  0.109613  0.115537  -0.00037  1.001336  0.0
H  H26  1  0.89870077  0.14349354  0.86983358  1  0.080191  -0.001015  0.109621  0.115007  -0.000465  1.00205  0.0
H  H27  1  0.27372762  0.52889273  0.63014037  1  0.081575  -0.001013  0.109541  0.11523  -0.000467  1.001742  0.0
H  H28  1  0.28031292  0.89569310  0.11559999  1  0.106499  0.001785  0.116737  0.08512  0.000678  1.034842  0.001
H  H29  1  0.78014555  0.66472756  0.38450603  1  0.119758  -0.001798  0.11669  0.085085  -0.00065  1.035011  -0.001
H  H30  1  0.71956971  0.10429887  0.88435870  1  0.106485  -0.001793  0.116724  0.085129  -0.000639  1.034918  -0.001
H  H31  1  0.21987932  0.33519961  0.61555085  1  0.11972  -0.001791  0.11666  0.084909  -0.000636  1.035423  -0.001
H  H32  1  0.46550840  0.93198778  0.40455673  1  0.130951  0.00198  0.123538  0.10113  0.00077  0.992682  0.001
H  H33  1  0.52758129  0.56113516  0.09554838  1  0.134192  -0.002016  0.123568  0.101862  -0.000746  0.990649  -0.001
H  H34  1  0.53447941  0.06800237  0.59538754  1  0.130711  -0.002123  0.123427  0.101004  -0.000823  0.992883  -0.001
H  H35  1  0.47246541  0.43891604  0.90451781  1  0.135124  -0.002168  0.123538  0.101755  -0.000855  0.990797  -0.001
H  H36  1  0.29649630  0.90452169  0.43647552  1  0.105284  0.000749  0.108895  0.121491  0.00028  1.033371  0.0
H  H37  1  0.46811178  0.36018033  0.06356029  1  0.100929  -0.001172  0.108817  0.121529  -0.000593  1.03316  -0.001
H  H38  1  0.70352827  0.09548210  0.56352376  1  0.104827  -0.0008  0.108792  0.121325  -0.000275  1.033624  -0.001
H  H39  1  0.53189780  0.63985414  0.93644377  1  0.100418  -0.001272  0.108729  0.121394  -0.000648  1.033222  -0.001
H  H40  1  0.58179876  0.79546479  0.59104998  1  0.080756  -5e-05  0.099403  0.098059  -1.8e-05  1.023503  0.0
H  H41  1  0.20433944  0.49064867  0.90890945  1  0.070369  -4e-05  0.099245  0.09772  -3.8e-05  1.025381  0.0
H  H42  1  0.41825265  0.20457615  0.40896025  1  0.079915  1.3e-05  0.099417  0.097962  3.1e-05  1.023725  0.0
H  H43  1  0.79567605  0.50937066  0.09106249  1  0.070763  -8e-05  0.099321  0.097895  -3.7e-05  1.025309  0.0
H  H44  1  0.67465235  0.83920417  0.77543433  1  0.07046  -0.000158  0.09615  0.106767  -5.5e-05  1.054733  0.0
H  H45  1  0.06376482  0.39918721  0.72453483  1  0.062981  0.000244  0.096226  0.106558  0.000129  1.056833  0.0
H  H46  1  0.32538209  0.16081711  0.22457321  1  0.072133  -0.000233  0.096136  0.106858  -0.000115  1.0546  0.0
H  H47  1  0.93623050  0.60082766  0.27544652  1  0.062901  -0.000164  0.096226  0.106568  -5.8e-05  1.056707  0.0
H  H48  1  0.99910123  0.92037683  0.77718397  1  0.059066  -1.6e-05  0.103044  0.122137  -0.0  1.011475  0.0
H  H49  1  0.14329975  0.72194501  0.72287390  1  0.092284  1.7e-05  0.102711  0.121578  1.3e-05  1.010762  0.0
H  H50  1  0.00095849  0.07964218  0.22286876  1  0.059716  -3e-05  0.103143  0.12235  -1.5e-05  1.011186  0.0
H  H51  1  0.85666974  0.27805652  0.27708260  1  0.092146  -1.5e-05  0.102793  0.121639  -3e-06  1.010678  0.0
H  H52  1  0.90341785  0.87354530  0.59155636  1  0.065282  -0.000256  0.099213  0.096471  -0.000172  1.042239  0.0
H  H53  1  0.28201468  0.81180721  0.90848047  1  0.082683  0.000255  0.099732  0.09754  0.000194  1.042127  0.0
H  H54  1  0.09666635  0.12649019  0.40849722  1  0.064796  -0.000289  0.099348  0.096632  -0.000189  1.042011  0.0
H  H55  1  0.71797350  0.18820927  0.09147282  1  0.082723  -0.000234  0.099805  0.097558  -0.000169  1.04196  0.0
H  H56  1  0.86296514  0.08100582  0.01533753  1  0.063155  -0.000131  0.109877  0.125297  -6e-05  0.989048  0.0
H  H57  1  0.06558156  0.34760647  0.48465280  1  0.084489  6.8e-05  0.109563  0.1245  2.6e-05  0.989941  0.0
H  H58  1  0.13697919  0.91896653  0.98462825  1  0.062481  -0.000105  0.109992  0.12546  -3.7e-05  0.989079  0.0
H  H59  1  0.93441979  0.65237768  0.51537461  1  0.084229  -0.00016  0.109482  0.124385  -7.3e-05  0.990008  0.0
H  H60  1  0.75906696  0.05312111  0.11592197  1  0.09962  0.000227  0.105266  0.108713  0.00016  1.016142  0.0
H  H61  1  0.93704922  0.14318534  0.38396483  1  0.087165  -0.000244  0.105146  0.108864  -0.00015  1.014619  0.0
H  H62  1  0.24083839  0.94684276  0.88400934  1  0.098593  -0.000275  0.105289  0.108792  -0.000159  1.01587  0.0
H  H63  1  0.06297962  0.85678946  0.61610651  1  0.083051  -0.000292  0.105244  0.108951  -0.000156  1.014614  0.0
H  H64  1  0.71806180  0.70178621  0.99274065  1  0.089858  -0.00012  0.106006  0.105724  -8.1e-05  1.012026  0.0
H  H65  1  0.70893693  0.22523563  0.50722802  1  0.078733  8.4e-05  0.106126  0.105908  6.6e-05  1.010645  0.0
H  H66  1  0.28188851  0.29819661  0.00723200  1  0.090539  -0.000186  0.105999  0.105656  -0.000101  1.012096  0.0
H  H67  1  0.29106273  0.77474499  0.49279851  1  0.081359  -0.000141  0.106179  0.105935  -7.1e-05  1.010559  0.0
H  H68  1  0.81515148  0.72686895  0.88752506  1  0.07402  0.000171  0.110731  0.128154  8.4e-05  0.974082  0.0
H  H69  1  0.83925036  0.42749478  0.61244731  1  0.078552  -0.000171  0.111145  0.128466  -8.1e-05  0.975167  0.0
H  H70  1  0.18482672  0.27311945  0.11247022  1  0.073879  -0.000166  0.110768  0.128172  -7.1e-05  0.974138  0.0
H  H71  1  0.16073071  0.57249459  0.38754661  1  0.078636  -0.000164  0.111162  0.128478  -7e-05  0.975136  0.0
C  C72  1  0.87372782  0.74697383  0.20796580  1  0.462377  0.003417  0.046424  0.090087  0.001576  3.968798  0.002
C  C73  1  0.53891779  0.16566713  0.29190753  1  0.501377  -0.003507  0.046199  0.090322  -0.001397  3.970667  -0.003
C  C74  1  0.12631258  0.25300318  0.79213214  1  0.462815  0.002885  0.04631  0.090189  0.001263  3.96813  0.002
C  C75  1  0.46098802  0.83427977  0.70800055  1  0.501053  0.002952  0.046009  0.089948  0.00126  3.970365  0.002
C  C76  1  0.97543144  0.76624434  0.20290151  1  -0.014381  -0.006106  -0.082606  -0.173049  -0.003523  3.942364  -0.005
C  C77  1  0.56325989  0.27244796  0.29696906  1  -0.08386  0.006153  -0.082761  -0.174354  0.003671  3.944186  0.005
C  C78  1  0.02457871  0.23376941  0.79715505  1  -0.011613  -0.004415  -0.082765  -0.173403  -0.002582  3.942158  -0.004
C  C79  1  0.43669964  0.72750583  0.70297126  1  -0.083831  -0.004457  -0.082836  -0.174397  -0.002567  3.943893  -0.004
C  C80  1  0.07495421  0.84524483  0.29051306  1  0.001058  0.005981  0.012456  0.102747  0.003536  3.971406  0.004
C  C81  1  0.55473058  0.28441494  0.20940185  1  0.022149  -0.005965  0.013033  0.105444  -0.003369  3.969697  -0.004
C  C82  1  0.92506531  0.15477059  0.70952842  1  0.001459  0.005276  0.012783  0.10308  0.003138  3.971409  0.003
C  C83  1  0.44525444  0.71555144  0.79055120  1  0.022843  0.005259  0.013059  0.105573  0.003132  3.969399  0.003
C  C84  1  0.06623933  0.89796473  0.38126969  1  0.035093  -0.006644  -0.078328  -0.16662  -0.003818  3.914646  -0.005
C  C85  1  0.51672416  0.18492698  0.11866410  1  -0.004568  0.0067  -0.078443  -0.16866  0.004023  3.915847  0.005
C  C86  1  0.93381244  0.10207634  0.61878883  1  0.037177  -0.004382  -0.078252  -0.166725  -0.002552  3.914939  -0.004
C  C87  1  0.48325764  0.81506050  0.88126578  1  -0.00415  -0.004362  -0.078393  -0.168532  -0.002537  3.915523  -0.004
C  C88  1  0.96085161  0.87314763  0.37985217  1  0.446913  0.003437  0.054271  0.110004  0.001538  3.911347  0.002
C  C89  1  0.49329034  0.08093559  0.12005686  1  0.46281  -0.003471  0.054314  0.109031  -0.001365  3.913601  -0.002
C  C90  1  0.03921975  0.12686876  0.62023561  1  0.446572  0.002931  0.054173  0.109862  0.001216  3.911517  0.002
C  C91  1  0.50664527  0.91904565  0.87984740  1  0.460554  0.00293  0.054282  0.109384  0.001218  3.912885  0.002
C  C92  1  0.18186903  0.87204798  0.28337220  1  -0.084867  -0.00678  0.015006  0.107896  -0.003814  3.968417  -0.005
C  C93  1  0.58871463  0.39853551  0.21661753  1  -0.024258  0.006826  0.014652  0.107101  0.004024  3.967344  0.005
C  C94  1  0.81811966  0.12797081  0.71664383  1  -0.084681  0.005983  0.015063  0.108014  0.003538  3.968362  0.004
C  C95  1  0.41128644  0.60143459  0.78336070  1  -0.025327  0.005977  0.014816  0.107136  0.003541  3.967241  0.004
C  C96  1  0.17962955  0.87126640  0.19281308  1  -0.005135  0.00586  -0.080216  -0.167403  0.003535  3.950385  0.005
C  C97  1  0.67846035  0.48683865  0.30721583  1  0.011566  -0.00587  -0.080914  -0.16918  -0.003394  3.950814  -0.005
C  C98  1  0.82031608  0.12876981  0.80719915  1  -0.012938  -0.004949  -0.080494  -0.167645  -0.002862  3.950074  -0.004
C  C99  1  0.32155545  0.51309180  0.69278081  1  0.013868  -0.004974  -0.080901  -0.168727  -0.002885  3.951121  -0.004
C  C100  1  0.27891708  0.89408850  0.18421819  1  0.497828  -0.004839  0.043597  0.09296  -0.00229  3.964909  -0.004
C  C101  1  0.70991520  0.59475516  0.31587678  1  0.462752  0.004804  0.043614  0.092902  0.002497  3.963824  0.004
C  C102  1  0.72100109  0.10593106  0.81575997  1  0.504831  0.004102  0.043694  0.09289  0.002051  3.96466  0.003
C  C103  1  0.29010453  0.40519163  0.68416932  1  0.461432  0.004093  0.043616  0.092849  0.00207  3.96383  0.003
C  C104  1  0.38299417  0.91663348  0.34657171  1  0.431412  -0.004107  0.055903  0.1111  -0.001583  3.898187  -0.003
C  C105  1  0.57019400  0.53657621  0.15351540  1  0.459795  0.004157  0.055818  0.109611  0.001796  3.89441  0.003
C  C106  1  0.61698297  0.08336830  0.65339320  1  0.431831  0.003386  0.055924  0.111143  0.001319  3.898003  0.002
C  C107  1  0.42984369  0.46344448  0.84652898  1  0.45731  0.003441  0.055667  0.109581  0.001326  3.894764  0.002
C  C108  1  0.28749165  0.89880802  0.36272839  1  0.057115  0.006924  -0.076492  -0.16177  0.004223  3.89832  0.005
C  C109  1  0.53616069  0.42488196  0.13730979  1  -0.019366  -0.007367  -0.075978  -0.161043  -0.004223  3.896338  -0.006
C  C110  1  0.71251196  0.10120013  0.63726616  1  0.057468  -0.005008  -0.076475  -0.161795  -0.002916  3.898625  -0.004
C  C111  1  0.46385407  0.57512571  0.86269747  1  -0.018586  -0.005434  -0.075891  -0.160994  -0.003118  3.896209  -0.004
C  C112  1  0.68224626  0.81599913  0.47199847  1  1.54409  0.000426  0.202027  0.568323  -0.000571  4.204381  0.001
C  C113  1  0.34395604  0.71020677  0.02806370  1  1.554863  -0.000432  0.202591  0.569376  0.000701  4.20095  -0.001
C  C114  1  0.31782205  0.18403989  0.52804866  1  1.544246  0.000386  0.202241  0.568683  -0.000638  4.203374  0.001
C  C115  1  0.65603862  0.28978652  0.97188905  1  1.554277  0.000368  0.202406  0.568651  -0.000633  4.201919  0.001
C  C116  1  0.73674474  0.83284480  0.57999481  1  0.006882  -0.00659  -0.037295  -0.076809  -0.003978  4.007828  -0.005
C  C117  1  0.25276174  0.65670631  0.92009109  1  -0.047048  0.006522  -0.036182  -0.07524  0.00409  4.008229  0.005
C  C118  1  0.26333408  0.16719923  0.42004679  1  0.007362  -0.007009  -0.036878  -0.076004  -0.004229  4.007352  -0.005
C  C119  1  0.74722968  0.34330661  0.07987209  1  -0.045623  -0.00704  -0.036225  -0.07527  -0.004217  4.008239  -0.005
C  C120  1  0.67299488  0.82143006  0.63210275  1  0.002486  -0.000438  -0.085684  -0.064529  -0.000224  3.998973  0.0
C  C121  1  0.18924783  0.54084861  0.86791617  1  0.010176  0.000498  -0.086372  -0.065161  0.000332  4.001911  0.0
C  C122  1  0.32706052  0.17860652  0.36792064  1  0.0021  -0.000551  -0.0858  -0.064568  -0.000307  3.99985  -0.001
C  C123  1  0.81075099  0.45916638  0.13205100  1  0.008787  -0.000532  -0.086591  -0.065488  -0.000296  4.001743  -0.001
C  C124  1  0.72466418  0.84570483  0.73481237  1  -0.122007  -0.00065  -0.115743  -0.230198  -0.000331  4.026949  0.0
C  C125  1  0.11085547  0.48982699  0.76517528  1  -0.023535  0.000903  -0.11588  -0.23002  0.00054  4.027334  0.001
C  C126  1  0.27537428  0.15431548  0.26520250  1  -0.12382  -0.00086  -0.115994  -0.230837  -0.000479  4.027598  -0.001
C  C127  1  0.88914012  0.51018544  0.23479960  1  -0.023564  -0.000669  -0.115913  -0.230016  -0.000351  4.026939  0.0
C  C128  1  0.84238502  0.88348572  0.78677672  1  0.420468  0.000597  0.083952  0.263717  0.000355  4.056144  0.0
C  C129  1  0.09666186  0.55559729  0.71323026  1  0.418381  -0.000535  0.084024  0.263742  -0.000312  4.053364  0.0
C  C130  1  0.15765855  0.11653081  0.21325159  1  0.418722  0.000573  0.084343  0.264298  0.000359  4.056376  0.0
C  C131  1  0.90331898  0.44441398  0.28673757  1  0.418937  0.00061  0.084133  0.263521  0.00037  4.053058  0.0
C  C132  1  0.90760232  0.89108211  0.73515308  1  0.039711  -0.000178  -0.109332  -0.20647  -5.8e-05  3.992244  0.0
C  C133  1  0.15597708  0.67244650  0.76488917  1  -0.023036  0.00015  -0.108478  -0.204271  5.5e-05  3.989357  0.0
C  C134  1  0.09245889  0.10894036  0.26488939  1  0.039408  -0.000153  -0.109505  -0.206752  -4e-05  3.992825  0.0
C  C135  1  0.84400670  0.32756237  0.23507818  1  -0.022233  -0.000188  -0.108727  -0.204394  -7.7e-05  3.989102  0.0
C  C136  1  0.85421878  0.86542355  0.63249551  1  -0.045039  0.000472  -0.089638  -0.077087  0.000256  4.015164  0.0
C  C137  1  0.23291599  0.72168355  0.86756332  1  -0.06154  -0.000212  -0.091104  -0.080393  -6.5e-05  4.018152  0.0
C  C138  1  0.14585642  0.13460616  0.36755163  1  -0.043217  0.000162  -0.089964  -0.077689  6.1e-05  4.015527  0.0
C  C139  1  0.76707789  0.27833316  0.13240318  1  -0.062575  0.000431  -0.090815  -0.079891  0.000236  4.017491  0.0
C  C140  1  0.84188599  0.90473501  0.94463695  1  0.431824  -0.00096  0.0834  0.257753  -0.000549  4.04957  -0.001
C  C141  1  0.95999319  0.39721866  0.55534285  1  0.456614  0.000919  0.083681  0.258758  0.000548  4.045973  0.001
C  C142  1  0.15808315  0.09524464  0.05535095  1  0.432701  0.000195  0.083437  0.258042  0.00014  4.049132  0.0
C  C143  1  0.03998654  0.60276919  0.44465813  1  0.456795  0.000115  0.08367  0.258729  9e-05  4.04639  0.0
C  C144  1  0.82832511  0.99779324  0.00912309  1  -0.016593  4.8e-05  -0.094388  -0.189482  -3e-06  3.987901  0.0
C  C145  1  0.98855193  0.31921259  0.49082164  1  -0.038661  -4.9e-05  -0.093814  -0.188349  6e-06  3.98866  0.0
C  C146  1  0.17159738  0.00217535  0.99082693  1  -0.015561  -0.000403  -0.09432  -0.189818  -0.000201  3.987978  0.0
C  C147  1  0.01145239  0.68076876  0.50921205  1  -0.039292  -0.000308  -0.093743  -0.188201  -0.000151  3.988956  0.0
C  C148  1  0.77210123  0.98253818  0.06568360  1  0.00788  -0.001541  -0.081632  -0.07753  -0.00083  3.984941  -0.001
C  C149  1  0.91670689  0.20643898  0.43422564  1  -0.065806  0.001617  -0.082256  -0.079086  0.000926  3.983665  0.001
C  C150  1  0.22779288  0.01742614  0.93423995  1  0.006533  -0.000804  -0.081778  -0.0774  -0.000469  3.984532  -0.001
C  C151  1  0.08332011  0.79353520  0.56583463  1  -0.060569  -0.000852  -0.082284  -0.079283  -0.000465  3.983443  -0.001
C  C152  1  0.73108951  0.87583081  0.05940086  1  -0.036229  0.002268  -0.023462  -0.050549  0.00144  3.986125  0.002
C  C153  1  0.81628881  0.17162909  0.44049424  1  0.018382  -0.002342  -0.022633  -0.049261  -0.001354  3.985566  -0.002
C  C154  1  0.26881105  0.12413653  0.94052995  1  -0.040907  -0.009092  -0.023418  -0.050782  -0.00543  3.986786  -0.007
C  C155  1  0.18374082  0.82833901  0.55956858  1  0.017978  -0.009083  -0.022776  -0.049192  -0.005425  3.985153  -0.007
C  C156  1  0.74853856  0.78434190  0.99638721  1  -0.062221  -0.000379  -0.084926  -0.083327  -0.000205  4.009494  0.0
C  C157  1  0.78780817  0.25205733  0.50352618  1  -0.016753  0.000269  -0.085254  -0.08283  0.000169  4.009922  0.0
C  C158  1  0.25138663  0.21563395  0.00357143  1  -0.057055  -0.000843  -0.084839  -0.083032  -0.000504  4.00973  -0.001
C  C159  1  0.21220213  0.74790890  0.49651748  1  -0.018917  -0.000883  -0.085385  -0.083053  -0.000514  4.009594  -0.001
C  C160  1  0.80279342  0.79791335  0.93807916  1  -0.033576  0.000793  -0.098879  -0.197268  0.000485  3.995415  0.001
C  C161  1  0.85973185  0.36460581  0.56187365  1  -0.089534  -0.000783  -0.09879  -0.197969  -0.000452  3.995116  -0.001
C  C162  1  0.19716297  0.20206581  0.06190284  1  -0.033016  -0.000499  -0.098833  -0.197375  -0.000263  3.995504  0.0
C  C163  1  0.14025104  0.63537023  0.43813540  1  -0.089594  -0.000389  -0.098688  -0.197804  -0.000198  3.995153  0.0
C  C164  1  0.66800211  0.85926251  0.11856494  1  1.569464  -0.006896  0.207689  0.572548  -0.004497  4.200034  -0.006
C  C165  1  0.74063267  0.04934914  0.38132696  1  1.594781  0.006897  0.20702  0.571955  0.004801  4.200192  0.006
C  C166  1  0.33205145  0.14080728  0.88151916  1  1.56873  -0.005  0.207377  0.572434  -0.004734  4.199193  -0.003
C  C167  1  0.25934215  0.95062564  0.61860177  1  1.594759  -0.00492  0.206894  0.57137  -0.004755  4.200095  -0.003
N  N168  1  0.86553047  0.80075262  0.29450769  1  -1.214747  -0.073481  -0.320304  -0.222402  -0.044  3.550553  -0.065
N  N169  1  0.50618424  0.07092106  0.20537881  1  -1.207113  0.073373  -0.319813  -0.221388  0.045975  3.549996  0.065
N  N170  1  0.13454963  0.19921154  0.70561431  1  -1.21617  -0.071521  -0.319846  -0.222159  -0.042892  3.54856  -0.064
N  N171  1  0.49366176  0.92903700  0.79449789  1  -1.206867  -0.071402  -0.319337  -0.220983  -0.042816  3.548656  -0.063
N  N172  1  0.37901088  0.91350556  0.25839916  1  -1.211619  0.075215  -0.320237  -0.230844  0.04706  3.565729  0.068
N  N173  1  0.65522643  0.62071253  0.24169752  1  -1.21384  -0.075301  -0.320112  -0.229596  -0.044966  3.563338  -0.068
N  N174  1  0.62091547  0.08648717  0.74155070  1  -1.210403  -0.075633  -0.319829  -0.230551  -0.045295  3.563525  -0.068
N  N175  1  0.34480555  0.37927242  0.75836694  1  -1.211202  -0.075688  -0.319646  -0.229157  -0.045318  3.561053  -0.068
O  O176  1  0.75102141  0.83103245  0.43389985  1  -1.15083  -0.075039  -0.31746  -0.561874  -0.043162  2.370946  -0.069
O  O177  1  0.39713078  0.81706033  0.06609690  1  -1.156143  0.074818  -0.317982  -0.562972  0.045052  2.370827  0.069
O  O178  1  0.24906557  0.16896106  0.56614432  1  -1.151553  -0.076139  -0.31755  -0.562305  -0.043765  2.3692  -0.07
O  O179  1  0.60280799  0.18295516  0.93385200  1  -1.156792  -0.075963  -0.317761  -0.562727  -0.043663  2.370251  -0.07
O  O180  1  0.57644947  0.79040281  0.42666132  1  -1.174282  0.002666  -0.330109  -0.552705  0.001761  2.138294  0.002
O  O181  1  0.36372253  0.64974370  0.07341742  1  -1.180636  -0.002691  -0.329857  -0.552329  -0.001676  2.136926  -0.002
O  O182  1  0.42363502  0.20968373  0.57342161  1  -1.174688  -0.002562  -0.330219  -0.552716  -0.001067  2.138267  -0.002
O  O183  1  0.63629134  0.35021948  0.92649438  1  -1.180788  -0.002557  -0.329923  -0.552158  -0.001063  2.137195  -0.002
O  O184  1  0.90126641  0.92067321  0.89076773  1  -1.107323  -0.000105  -0.154001  -0.223876  -4.5e-05  2.584992  0.0
O  O185  1  0.02979103  0.51049540  0.60925583  1  -1.107721  0.000111  -0.15439  -0.224977  5.7e-05  2.584732  0.0
O  O186  1  0.09875601  0.07931401  0.10925871  1  -1.106263  4.1e-05  -0.15412  -0.223965  1.4e-05  2.584819  0.0
O  O187  1  0.97016828  0.48950482  0.39072421  1  -1.107773  1.7e-05  -0.15434  -0.224728  -2e-06  2.584386  0.0
O  O188  1  0.65600967  0.76801524  0.12795603  1  -1.163472  -0.049696  -0.321386  -0.570004  -0.028693  2.308481  -0.043
O  O189  1  0.64000501  0.02792124  0.37194502  1  -1.166713  0.049591  -0.320426  -0.569048  0.02995  2.3092  0.043
O  O190  1  0.34422647  0.23211389  0.87221776  1  -1.162829  -0.049641  -0.321434  -0.57018  -0.028283  2.308796  -0.043
O  O191  1  0.35993506  0.97213969  0.62789881  1  -1.167179  -0.049536  -0.320729  -0.569215  -0.028203  2.310457  -0.043
O  O192  1  0.63104824  0.93592774  0.15339153  1  -1.145612  0.051006  -0.298532  -0.531958  0.031422  2.316735  0.048
O  O193  1  0.78250501  0.97760359  0.34650348  1  -1.150643  -0.050964  -0.299308  -0.532861  -0.029987  2.317763  -0.048
O  O194  1  0.36911570  0.06418471  0.84676863  1  -1.145729  -0.070092  -0.298664  -0.532473  -0.040087  2.317479  -0.064
O  O195  1  0.21744846  0.02241070  0.65336833  1  -1.151219  -0.070034  -0.299118  -0.532557  -0.040121  2.318509  -0.064
O  O196  1  0.53450269  0.78445132  0.24995298  1  -1.238246  5.8e-05  -0.549796  -0.765792  0.000859  2.383752  0.0
O  O197  1  0.46559050  0.21564827  0.75004030  1  -1.236322  -0.111715  -0.550141  -0.765964  -0.066018  2.383799  -0.1
