# generated using pymatgen
data_ZnH14C20(NO)4
_symmetry_space_group_name_H-M   'P 1'
_cell_length_a   6.62680356
_cell_length_b   9.86721189
_cell_length_c   15.63320007
_cell_angle_alpha   70.77782183
_cell_angle_beta   77.76203385
_cell_angle_gamma   70.40148051
_symmetry_Int_Tables_number   1
_chemical_formula_structural   ZnH14C20(NO)4
_chemical_formula_sum   'Zn2 H28 C40 N8 O8'
_cell_volume   903.37159145
_cell_formula_units_Z   2
loop_
 _symmetry_equiv_pos_site_id
 _symmetry_equiv_pos_as_xyz
  1  'x, y, z'
loop_
 _atom_site_type_symbol
 _atom_site_label
 _atom_site_symmetry_multiplicity
 _atom_site_fract_x
 _atom_site_fract_y
 _atom_site_fract_z
 _atom_site_occupancy
 _atom_site_hle17_bader_spin_density
 _atom_site_hle17_ddec_charge
 _atom_site_hle17_ddec_spin_density
 _atom_site_hle17_ddec_sum_bond_order
 _atom_site_hle17_magmom
 _atom_site_hse06_10hf_bader_spin_density
 _atom_site_hse06_10hf_ddec_charge
 _atom_site_hse06_10hf_ddec_spin_density
 _atom_site_hse06_10hf_ddec_sum_bond_order
 _atom_site_hse06_10hf_magmom
 _atom_site_hse06_bader_spin_density
 _atom_site_hse06_ddec_charge
 _atom_site_hse06_ddec_spin_density
 _atom_site_hse06_ddec_sum_bond_order
 _atom_site_hse06_magmom
 _atom_site_pbe_bader_spin_density
 _atom_site_pbe_cm5_charge
 _atom_site_pbe_ddec_charge
 _atom_site_pbe_ddec_spin_density
 _atom_site_pbe_ddec_sum_bond_order
 _atom_site_pbe_magmom
Zn  Zn0  1  0.38833769  0.24988465  0.74997860  1  0  0.999005  0  1.831116  0  0  0.803803  0  2.304128  0  0  0.852809  0  2.249033  0  0  0.692878  0.770066  0  2.341426  0
Zn  Zn1  1  0.61166510  0.75012218  0.25002259  1  0  0.998893  0  1.831281  0  0  0.803666  0  2.304276  0  0  0.852667  0  2.249148  0  0  0.692848  0.769909  0  2.341571  0
H  H2  1  0.85355414  0.55437771  0.95822039  1  0  0.101861  0  0.970268  0  0  0.109778  0  1.035643  0  0  0.113553  0  1.032832  0  0  0.10149  0.106829  0  1.03827  0
H  H3  1  0.36581093  0.94580173  0.54193234  1  0  0.101566  0  0.971506  0  0  0.109994  0  1.036194  0  0  0.113788  0  1.033347  0  0  0.101272  0.107061  0  1.03887  0
H  H4  1  0.14644867  0.44563029  0.04177855  1  0  0.101882  0  0.970312  0  0  0.109797  0  1.035688  0  0  0.113567  0  1.03289  0  0  0.101495  0.106849  0  1.038314  0
H  H5  1  0.63414108  0.05418984  0.45805438  1  0  0.101687  0  0.971524  0  0  0.110092  0  1.036195  0  0  0.113881  0  1.033363  0  0  0.101355  0.107172  0  1.038854  0
H  H6  1  0.73064247  0.45353113  0.85896622  1  0  0.100848  0  0.957783  0  0  0.109781  0  1.02108  0  0  0.113282  0  1.019151  0  0  0.099834  0.107257  0  1.022526  0
H  H7  1  0.04259000  0.04649671  0.64111261  1  0  0.100305  0  0.958411  0  0  0.108846  0  1.022211  0  0  0.112331  0  1.020326  0  0  0.099757  0.106358  0  1.023481  0
H  H8  1  0.26936286  0.54646233  0.14103401  1  0  0.100812  0  0.957661  0  0  0.109732  0  1.020986  0  0  0.113237  0  1.019049  0  0  0.099811  0.107197  0  1.022446  0
H  H9  1  0.95736139  0.95350273  0.35887170  1  0  0.100528  0  0.958447  0  0  0.109068  0  1.022253  0  0  0.112506  0  1.02042  0  0  0.099836  0.106579  0  1.023526  0
H  H10  1  0.08079235  0.27597832  0.62940356  1  0  0.097767  0  0.952105  0  0  0.10332  0  1.022143  0  0  0.106393  0  1.01919  0  0  0.121657  0.101073  0  1.024411  0
H  H11  1  0.98625395  0.22376540  0.87025916  1  0  0.097847  0  0.951711  0  0  0.10394  0  1.021268  0  0  0.107074  0  1.018195  0  0  0.121893  0.10177  0  1.023311  0
H  H12  1  0.91918968  0.72402157  0.37060694  1  0  0.097712  0  0.952135  0  0  0.103275  0  1.022148  0  0  0.106343  0  1.019207  0  0  0.121679  0.101026  0  1.024417  0
H  H13  1  0.01376409  0.77623455  0.12974929  1  0  0.097885  0  0.951739  0  0  0.103986  0  1.021306  0  0  0.107119  0  1.018234  0  0  0.121893  0.101815  0  1.02335  0
H  H14  1  0.63954546  0.72295890  0.58162192  1  0  0.116488  0  0.93867  0  0  0.123632  0  1.003673  0  0  0.127006  0  1.000418  0  0  0.116296  0.120913  0  1.006305  0
H  H15  1  0.94448591  0.77639435  0.91886570  1  0  0.116684  0  0.938587  0  0  0.12405  0  1.003482  0  0  0.127392  0  1.000254  0  0  0.11647  0.121557  0  1.005888  0
H  H16  1  0.36046025  0.27704591  0.41837136  1  0  0.116457  0  0.938764  0  0  0.123613  0  1.003753  0  0  0.12699  0  1.000486  0  0  0.116285  0.120887  0  1.006394  0
H  H17  1  0.05555025  0.22359098  0.08114700  1  0  0.116758  0  0.938584  0  0  0.124124  0  1.003437  0  0  0.127465  0  1.00021  0  0  0.116451  0.121628  0  1.005848  0
H  H18  1  0.18125002  0.57606943  0.73662341  1  0  0.080755  0  0.937626  0  0  0.091596  0  0.996788  0  0  0.093882  0  0.994688  0  0  0.120425  0.089575  0  0.998903  0
H  H19  1  0.49445751  0.92327273  0.76370219  1  0  0.080833  0  0.937986  0  0  0.091394  0  0.99765  0  0  0.093638  0  0.995557  0  0  0.120659  0.089646  0  0.999242  0
H  H20  1  0.81874562  0.42394198  0.26337300  1  0  0.080661  0  0.937727  0  0  0.09155  0  0.996841  0  0  0.093834  0  0.994747  0  0  0.12043  0.089529  0  0.998956  0
H  H21  1  0.50556444  0.07672610  0.23630607  1  0  0.080865  0  0.937751  0  0  0.091448  0  0.997415  0  0  0.093691  0  0.995316  0  0  0.120691  0.089697  0  0.999013  0
H  H22  1  0.80984989  0.34773733  0.52764135  1  0  0.072198  0  0.95035  0  0  0.079123  0  1.021747  0  0  0.08129  0  1.020311  0  0  0.115028  0.077825  0  1.022448  0
H  H23  1  0.68559073  0.15223085  0.97211333  1  0  0.0715  0  0.951107  0  0  0.0792  0  1.021741  0  0  0.081242  0  1.020436  0  0  0.114648  0.077164  0  1.023749  0
H  H24  1  0.19013520  0.65226721  0.47236187  1  0  0.072273  0  0.950359  0  0  0.079156  0  1.02181  0  0  0.081323  0  1.020375  0  0  0.115026  0.077858  0  1.02251  0
H  H25  1  0.31442888  0.84776351  0.02789524  1  0  0.071545  0  0.951095  0  0  0.079194  0  1.021834  0  0  0.081239  0  1.020527  0  0  0.114699  0.07716  0  1.023837  0
H  H26  1  0.86435032  0.78008218  0.67028894  1  0  0.105316  0  0.960111  0  0  0.116919  0  1.014733  0  0  0.118982  0  1.016265  0  0  0.10791  0.11571  0  1.013461  0
H  H27  1  0.31507170  0.71916397  0.83024015  1  0  0.105576  0  0.960321  0  0  0.116609  0  1.015448  0  0  0.118644  0  1.017014  0  0  0.107582  0.115223  0  1.014489  0
H  H28  1  0.13566203  0.21993061  0.32969771  1  0  0.105343  0  0.960088  0  0  0.116961  0  1.014667  0  0  0.119024  0  1.016201  0  0  0.10795  0.115754  0  1.013396  0
H  H29  1  0.68495775  0.28083373  0.16976900  1  0  0.105627  0  0.96014  0  0  0.116619  0  1.015341  0  0  0.118654  0  1.016907  0  0  0.10759  0.115232  0  1.014387  0
C  C30  1  0.69771299  0.53209142  0.97597621  1  0  -0.069285  0  3.728248  0  0  -0.092759  0  3.978059  0  0  -0.09374  0  3.99775  0  0  -0.085684  -0.09221  0  3.964961  0
C  C31  1  0.20553901  0.96802567  0.52413909  1  0  -0.068883  0  3.731676  0  0  -0.092787  0  3.980921  0  0  -0.093807  0  4.000759  0  0  -0.085012  -0.092522  0  3.968063  0
C  C32  1  0.30229154  0.46790424  0.02402508  1  0  -0.06944  0  3.728331  0  0  -0.092935  0  3.978109  0  0  -0.093915  0  3.997803  0  0  -0.085729  -0.092385  0  3.965008  0
C  C33  1  0.79440726  0.03198057  0.47584179  1  0  -0.068943  0  3.731541  0  0  -0.092765  0  3.980863  0  0  -0.093784  0  4.000685  0  0  -0.084986  -0.092504  0  3.96799  0
C  C34  1  0.83736811  0.49320629  0.60190719  1  0  0.003133  0  3.783844  0  0  0.026803  0  4.014971  0  0  0.020275  0  4.038706  0  0  0.001368  0.030784  0  3.999575  0
C  C35  1  0.93280014  0.00633263  0.89817621  1  0  0.002718  0  3.786458  0  0  0.026886  0  4.017646  0  0  0.020332  0  4.041331  0  0  0.00159  0.030869  0  4.002156  0
C  C36  1  0.16262525  0.50679709  0.39809769  1  0  0.003275  0  3.783759  0  0  0.026921  0  4.014921  0  0  0.020388  0  4.038662  0  0  0.00142  0.030903  0  3.999519  0
C  C37  1  0.06723508  0.99365829  0.10183572  1  0  0.002737  0  3.78655  0  0  0.026963  0  4.017608  0  0  0.020412  0  4.041292  0  0  0.00168  0.030943  0  4.002123  0
C  C38  1  0.63023012  0.47374961  0.92091463  1  0  -0.08437  0  3.738365  0  0  -0.105946  0  3.987297  0  0  -0.106677  0  4.006667  0  0  -0.090397  -0.105628  0  3.973957  0
C  C39  1  0.02450729  0.02628394  0.57914231  1  0  -0.082876  0  3.739794  0  0  -0.10456  0  3.988946  0  0  -0.105245  0  4.008379  0  0  -0.090172  -0.103623  0  3.974786  0
C  C40  1  0.36978271  0.52624607  0.07908608  1  0  -0.084212  0  3.738214  0  0  -0.105747  0  3.987144  0  0  -0.106479  0  4.006505  0  0  -0.090324  -0.105423  0  3.973795  0
C  C41  1  0.97544788  0.97372115  0.42083959  1  0  -0.082972  0  3.739896  0  0  -0.104731  0  3.989129  0  0  -0.105372  0  4.008568  0  0  -0.090149  -0.103799  0  3.97498  0
C  C42  1  0.02134876  0.38765752  0.63933683  1  0  0.109721  0  3.624957  0  0  0.069581  0  3.870391  0  0  0.076449  0  3.888328  0  0  0.063183  0.064998  0  3.858906  0
C  C43  1  0.04862917  0.11191931  0.86060559  1  0  0.108449  0  3.629757  0  0  0.067533  0  3.875146  0  0  0.074435  0  3.893089  0  0  0.062512  0.063288  0  3.862944  0
C  C44  1  0.97863832  0.61234132  0.36067079  1  0  0.109665  0  3.624907  0  0  0.069519  0  3.870379  0  0  0.076371  0  3.888325  0  0  0.06306  0.064935  0  3.858895  0
C  C45  1  0.95139555  0.88807045  0.13940826  1  0  0.108387  0  3.629919  0  0  0.067384  0  3.875294  0  0  0.074283  0  3.893238  0  0  0.062448  0.063124  0  3.863088  0
C  C46  1  0.35553222  0.37892041  0.88555325  1  0  0.614541  0  3.950149  0  0  0.564432  0  4.248611  0  0  0.598397  0  4.240721  0  0  0.192991  0.541537  0  4.25325  0
C  C47  1  0.61964010  0.12094609  0.61429155  1  0  0.614447  0  3.953029  0  0  0.564117  0  4.251726  0  0  0.598155  0  4.243735  0  0  0.192437  0.541204  0  4.255735  0
C  C48  1  0.64448726  0.62107654  0.11444164  1  0  0.614417  0  3.9503  0  0  0.564343  0  4.248725  0  0  0.598305  0  4.240835  0  0  0.19285  0.541445  0  4.253368  0
C  C49  1  0.38032094  0.87905438  0.38569641  1  0  0.614049  0  3.953351  0  0  0.563678  0  4.252124  0  0  0.597718  0  4.244133  0  0  0.192288  0.540764  0  4.256134  0
C  C50  1  0.43180906  0.44093837  0.94450832  1  0  -0.06976  0  3.766576  0  0  -0.046729  0  3.999215  0  0  -0.053047  0  4.02091  0  0  -0.020773  -0.042071  0  3.98441  0
C  C51  1  0.81705975  0.05894798  0.55542597  1  0  -0.071395  0  3.770791  0  0  -0.047995  0  4.003489  0  0  -0.054417  0  4.025346  0  0  -0.021772  -0.043446  0  3.987711  0
C  C52  1  0.56819952  0.55905614  0.05549421  1  0  -0.06992  0  3.766643  0  0  -0.046962  0  3.999352  0  0  -0.053271  0  4.02103  0  0  -0.020816  -0.042302  0  3.984549  0
C  C53  1  0.18289044  0.94105714  0.44455473  1  0  -0.071429  0  3.770914  0  0  -0.047934  0  4.00355  0  0  -0.054355  0  4.025391  0  0  -0.021741  -0.043384  0  3.987775  0
C  C54  1  0.77680240  0.63745085  0.61351234  1  0  -0.013602  0  3.628414  0  0  -0.039794  0  3.868226  0  0  -0.034827  0  3.884838  0  0  -0.047461  -0.041923  0  3.856355  0
C  C55  1  0.02811441  0.86194245  0.88681573  1  0  -0.014376  0  3.628394  0  0  -0.040791  0  3.868188  0  0  -0.035748  0  3.884732  0  0  -0.04836  -0.043207  0  3.856372  0
C  C56  1  0.22319633  0.36255377  0.38648800  1  0  -0.01367  0  3.628463  0  0  -0.039861  0  3.868255  0  0  -0.034898  0  3.884887  0  0  -0.047455  -0.041981  0  3.856382  0
C  C57  1  0.97191457  0.13805300  0.11319364  1  0  -0.014567  0  3.628493  0  0  -0.040927  0  3.868164  0  0  -0.035884  0  3.8847  0  0  -0.048314  -0.043342  0  3.856351  0
C  C58  1  0.07952654  0.55646157  0.69836384  1  0  0.149456  0  3.674755  0  0  0.11301  0  3.927363  0  0  0.121773  0  3.9441  0  0  0.058927  0.107686  0  3.916267  0
C  C59  1  0.33482900  0.94287933  0.80191728  1  0  0.150346  0  3.675228  0  0  0.114036  0  3.927585  0  0  0.122859  0  3.944373  0  0  0.059466  0.108624  0  3.916163  0
C  C60  1  0.92047186  0.44354077  0.30163815  1  0  0.149427  0  3.674832  0  0  0.112924  0  3.927475  0  0  0.121675  0  3.944211  0  0  0.058859  0.1076  0  3.916377  0
C  C61  1  0.66518768  0.05712297  0.19808654  1  0  0.15041  0  3.67499  0  0  0.113992  0  3.927465  0  0  0.122817  0  3.94425  0  0  0.059392  0.108567  0  3.916036  0
C  C62  1  0.72614840  0.44994501  0.54891176  1  0  0.101208  0  3.691125  0  0  0.06634  0  3.955345  0  0  0.073747  0  3.970563  0  0  0.075012  0.060514  0  3.946386  0
C  C63  1  0.72524135  0.04984256  0.95104612  1  0  0.103375  0  3.686898  0  0  0.067386  0  3.951694  0  0  0.074898  0  3.966853  0  0  0.07578  0.061735  0  3.942765  0
C  C64  1  0.27384512  0.55005951  0.45109230  1  0  0.101081  0  3.691208  0  0  0.066247  0  3.955424  0  0  0.073655  0  3.970643  0  0  0.074977  0.060423  0  3.946461  0
C  C65  1  0.27478025  0.95015282  0.04896604  1  0  0.103477  0  3.687051  0  0  0.067456  0  3.951816  0  0  0.074966  0  3.966976  0  0  0.075736  0.061807  0  3.942888  0
C  C66  1  0.90071241  0.66859330  0.66216302  1  0  -0.120999  0  3.733728  0  0  -0.128642  0  3.980058  0  0  -0.137973  0  4.004195  0  0  -0.079403  -0.122901  0  3.963219  0
C  C67  1  0.23185369  0.83073754  0.83822176  1  0  -0.120539  0  3.734033  0  0  -0.127724  0  3.980048  0  0  -0.137027  0  4.004136  0  0  -0.07865  -0.121903  0  3.96356  0
C  C68  1  0.09928633  0.33141132  0.33783733  1  0  -0.120935  0  3.733754  0  0  -0.128569  0  3.980056  0  0  -0.137902  0  4.004197  0  0  -0.079422  -0.122828  0  3.963214  0
C  C69  1  0.76816939  0.16926137  0.16178380  1  0  -0.120568  0  3.733871  0  0  -0.127756  0  3.979957  0  0  -0.137057  0  4.004044  0  0  -0.078754  -0.121934  0  3.963469  0
N  N70  1  0.13835059  0.41819615  0.68718028  1  0  -0.327865  0  3.323013  0  0  -0.242536  0  3.605357  0  0  -0.262118  0  3.619207  0  0  -0.326685  -0.22961  0  3.596418  0
N  N71  1  0.24409162  0.08130336  0.81287053  1  0  -0.328142  0  3.322519  0  0  -0.242522  0  3.604475  0  0  -0.26221  0  3.618544  0  0  -0.326654  -0.229402  0  3.594816  0
N  N72  1  0.86163588  0.58180721  0.31282533  1  0  -0.327679  0  3.322737  0  0  -0.24236  0  3.605133  0  0  -0.261903  0  3.61894  0  0  -0.326568  -0.229433  0  3.59619  0
N  N73  1  0.75592675  0.91869550  0.18713667  1  0  -0.328186  0  3.322783  0  0  -0.24244  0  3.604647  0  0  -0.262125  0  3.61872  0  0  -0.326512  -0.229275  0  3.594942  0
N  N74  1  0.53591774  0.52966759  0.52655968  1  0  -0.204696  0  3.027362  0  0  -0.177009  0  3.321524  0  0  -0.187364  0  3.340445  0  0  -0.213242  -0.170129  0  3.309765  0
N  N75  1  0.59217267  0.97018421  0.97350613  1  0  -0.205716  0  3.022383  0  0  -0.177823  0  3.317173  0  0  -0.188148  0  3.335951  0  0  -0.213909  -0.170872  0  3.305155  0
N  N76  1  0.46407504  0.47033812  0.47344135  1  0  -0.204645  0  3.027456  0  0  -0.176942  0  3.321585  0  0  -0.187299  0  3.340506  0  0  -0.213205  -0.170063  0  3.309826  0
N  N77  1  0.40785491  0.02980789  0.02650351  1  0  -0.205655  0  3.022367  0  0  -0.177758  0  3.31717  0  0  -0.188084  0  3.335952  0  0  -0.213823  -0.170806  0  3.305152  0
O  O78  1  0.16763597  0.36807375  0.90076562  1  0  -0.612033  0  1.946053  0  0  -0.567835  0  2.184472  0  0  -0.591751  0  2.177649  0  0  -0.316266  -0.551137  0  2.188447  0
O  O79  1  0.43618016  0.13194276  0.59895828  1  0  -0.612276  0  1.946378  0  0  -0.568408  0  2.185247  0  0  -0.592183  0  2.17817  0  0  -0.316186  -0.551528  0  2.189394  0
O  O80  1  0.83238653  0.63192332  0.09922463  1  0  -0.611962  0  1.946028  0  0  -0.567775  0  2.184431  0  0  -0.591693  0  2.17761  0  0  -0.316213  -0.551075  0  2.188406  0
O  O81  1  0.56377767  0.86804856  0.40103820  1  0  -0.612136  0  1.9464  0  0  -0.568193  0  2.185189  0  0  -0.591976  0  2.178129  0  0  -0.316216  -0.551302  0  2.189314  0
O  O82  1  0.49654338  0.34035711  0.81930125  1  0  -0.649677  0  2.027894  0  0  -0.574311  0  2.299811  0  0  -0.603412  0  2.285443  0  0  -0.340426  -0.553844  0  2.308773  0
O  O83  1  0.65584825  0.15932136  0.68063003  1  0  -0.649513  0  2.030002  0  0  -0.573998  0  2.302207  0  0  -0.602989  0  2.287598  0  0  -0.340166  -0.553378  0  2.311028  0
O  O84  1  0.50347934  0.65964761  0.18069513  1  0  -0.649636  0  2.02807  0  0  -0.574233  0  2.299959  0  0  -0.60333  0  2.285577  0  0  -0.340358  -0.553763  0  2.30892  0
O  O85  1  0.34412239  0.84068369  0.31935341  1  0  -0.649238  0  2.030023  0  0  -0.573761  0  2.302265  0  0  -0.602748  0  2.287655  0  0  -0.340006  -0.553136  0  2.311076  0
