# generated using pymatgen
data_Mn2H20C26N4Cl9O5
_symmetry_space_group_name_H-M   'P 1'
_cell_length_a   9.19659427
_cell_length_b   12.53116410
_cell_length_c   16.24428217
_cell_angle_alpha   112.87895178
_cell_angle_beta   106.99803295
_cell_angle_gamma   89.84607420
_symmetry_Int_Tables_number   1
_chemical_formula_structural   Mn2H20C26N4Cl9O5
_chemical_formula_sum   'Mn4 H40 C52 N8 Cl18 O10'
_cell_volume   1636.29660809
_cell_formula_units_Z   2
loop_
 _symmetry_equiv_pos_site_id
 _symmetry_equiv_pos_as_xyz
  1  'x, y, z'
loop_
 _atom_site_type_symbol
 _atom_site_label
 _atom_site_symmetry_multiplicity
 _atom_site_fract_x
 _atom_site_fract_y
 _atom_site_fract_z
 _atom_site_occupancy
 _atom_site_hle17_ddec_charge
 _atom_site_hle17_ddec_spin_density
 _atom_site_hle17_ddec_sum_bond_order
 _atom_site_hle17_magmom
 _atom_site_hse06_10hf_ddec_charge
 _atom_site_hse06_10hf_ddec_spin_density
 _atom_site_hse06_10hf_ddec_sum_bond_order
 _atom_site_hse06_10hf_magmom
 _atom_site_hse06_ddec_charge
 _atom_site_hse06_ddec_spin_density
 _atom_site_hse06_ddec_sum_bond_order
 _atom_site_hse06_magmom
 _atom_site_pbe_cm5_charge
 _atom_site_pbe_ddec_charge
 _atom_site_pbe_ddec_spin_density
 _atom_site_pbe_ddec_sum_bond_order
 _atom_site_pbe_magmom
Mn  Mn0  1  0.49991060  0.13855310  0.00018201  1  0.862486  4.87365  2.031708  4.621  0.691512  4.718055  2.521403  4.461  0.749642  4.797903  2.463966  4.542  0.519092  0.64762  4.626885  2.565086  4.37
Mn  Mn1  1  0.49983090  0.86082385  0.99999290  1  0.870829  -4.766819  1.977393  -4.635  0.695332  -4.682028  2.460174  -4.488  0.754841  -4.722785  2.40461  -4.559  0.519718  0.648575  -4.639932  2.501617  -4.42
Mn  Mn2  1  0.99961399  0.99975118  0.99992602  1  1.232461  -4.039467  2.33174  -3.931  1.151404  -3.779213  2.860054  -3.631  1.277638  -3.886638  2.759436  -3.753  0.69268  1.053817  -3.66929  2.935483  -3.51
Mn  Mn3  1  0.99998006  0.50038209  0.00006650  1  1.320326  -4.049584  2.18938  -3.936  1.253608  -3.841137  2.70255  -3.687  1.370961  -3.927598  2.607934  -3.789  0.757165  1.16818  -3.761234  2.770351  -3.593
H  H4  1  0.72724049  0.28986224  0.99734104  1  0.265097  0.000515  0.882798  0.001  0.262608  0.001421  0.928301  0.002  0.267506  0.001131  0.925941  0.001  0.307522  0.259337  0.001664  0.929699  0.002
H  H5  1  0.26859719  0.70507805  0.99509100  1  0.264691  -7.3e-05  0.884409  -0.001  0.26194  -0.000926  0.930091  -0.002  0.266991  -0.000619  0.927587  -0.001  0.307322  0.258344  -0.001217  0.931839  -0.002
H  H6  1  0.73161555  0.70923141  0.00422632  1  0.265267  -6.8e-05  0.884102  -0.001  0.261945  -0.000917  0.930564  -0.002  0.267033  -0.000611  0.92797  -0.001  0.306345  0.258338  -0.001207  0.932316  -0.002
H  H7  1  0.27269928  0.29383431  0.00298171  1  0.266004  0.000522  0.883672  0.001  0.263208  0.001425  0.929348  0.002  0.26814  0.001138  0.926932  0.001  0.307205  0.259914  0.001667  0.93077  0.002
H  H8  1  0.85953614  0.43003617  0.32824372  1  0.112472  0.000253  0.941037  0.0  0.121965  0.00029  1.000815  0.0  0.125214  0.000219  1.000117  0.0  0.103056  0.119767  0.000354  1.001321  0.0
H  H9  1  0.47020152  0.89694975  0.32597769  1  0.113255  -0.000264  0.940748  0.0  0.121954  -0.000319  1.001357  0.0  0.125329  -0.000237  1.000521  0.0  0.103342  0.119527  -0.000407  1.002127  0.0
H  H10  1  0.53012684  0.57055435  0.67356110  1  0.11381  -0.000266  0.939819  0.0  0.122377  -0.000319  1.000608  0.0  0.125741  -0.000237  0.999764  0.0  0.103379  0.119956  -0.000407  1.001388  0.0
H  H11  1  0.14149559  0.10257150  0.67241528  1  0.112886  0.000252  0.938828  0.0  0.121852  0.000289  0.999266  0.0  0.125167  0.000218  0.998493  0.0  0.103238  0.11961  0.000352  0.999818  0.0
H  H12  1  0.72213149  0.39528896  0.43043382  1  0.090136  -0.000105  0.960504  0.0  0.099249  -8e-06  1.024399  0.0  0.101953  -1.7e-05  1.021689  0.0  0.094408  0.097266  -1e-06  1.026382  0.0
H  H13  1  0.71143820  0.03534615  0.43025262  1  0.090244  0.000127  0.960207  0.0  0.099213  1e-06  1.02412  0.0  0.102034  1.5e-05  1.021253  0.0  0.095008  0.097107  -1.8e-05  1.026267  0.0
H  H14  1  0.28938464  0.60569341  0.56953942  1  0.090413  0.000125  0.960333  0.0  0.099325  1e-06  1.024366  0.0  0.102125  1.6e-05  1.021533  0.0  0.09495  0.097208  -1.8e-05  1.026522  0.0
H  H15  1  0.27988870  0.96563936  0.57001551  1  0.09109  -0.000114  0.960051  0.0  0.099633  -9e-06  1.024252  0.0  0.10239  -1.6e-05  1.021466  0.0  0.095093  0.097679  -0.0  1.026177  0.0
H  H16  1  0.48031885  0.25480870  0.35262390  1  0.098141  0.000296  0.970186  0.0  0.105955  0.000271  1.035581  0.0  0.108124  0.000219  1.036317  0.0  0.094581  0.104513  0.000315  1.035105  0.0
H  H17  1  0.87549570  0.09949345  0.35463073  1  0.098685  -0.000289  0.972686  0.0  0.10664  -0.000332  1.038101  0.0  0.108914  -0.000248  1.038602  0.0  0.09455  0.105001  -0.00042  1.03794  0.0
H  H18  1  0.12475559  0.74585624  0.64552579  1  0.098906  -0.000298  0.971969  0.0  0.106709  -0.000333  1.037543  0.0  0.108973  -0.000249  1.038099  0.0  0.094472  0.105071  -0.000421  1.03736  0.0
H  H19  1  0.52102022  0.90167759  0.64756290  1  0.098545  0.000297  0.969791  0.0  0.10632  0.000271  1.035343  0.0  0.108497  0.000219  1.036008  0.0  0.094745  0.1049  0.000314  1.034865  0.0
H  H20  1  0.38926975  0.15109207  0.17668078  1  0.072114  0.000459  0.972409  0.0  0.078742  0.00078  1.041403  0.0  0.08015  0.000671  1.040664  0.0  0.104987  0.077897  0.000863  1.041808  0.0
H  H21  1  0.78893498  0.02757266  0.17885116  1  0.07193  1.8e-05  0.972005  0.0  0.077983  -0.000278  1.041736  0.0  0.079389  -0.000155  1.041073  0.0  0.104152  0.076967  -0.000398  1.042186  -0.001
H  H22  1  0.21039823  0.84898554  0.82144182  1  0.072613  1.8e-05  0.971544  0.0  0.078366  -0.00027  1.041529  0.0  0.079849  -0.000148  1.040863  0.0  0.104329  0.07732  -0.00039  1.041987  -0.001
H  H23  1  0.61069069  0.97277987  0.82333815  1  0.072592  0.000458  0.972602  0.0  0.079007  0.000771  1.041853  0.0  0.080358  0.000663  1.041247  0.0  0.105516  0.078236  0.000853  1.042078  0.0
H  H24  1  0.84035796  0.40983838  0.16793224  1  0.079227  0.00088  0.946096  0.001  0.091952  0.001114  1.016182  0.001  0.092854  0.000875  1.016126  0.001  0.10029  0.091556  0.001324  1.016126  0.001
H  H25  1  0.32743986  0.75654168  0.16512224  1  0.079982  -0.000717  0.945314  -0.001  0.092822  -0.001032  1.015079  -0.001  0.093928  -0.0007  1.01483  -0.001  0.101089  0.092052  -0.001364  1.015347  -0.001
H  H26  1  0.67246088  0.59038070  0.83407542  1  0.080662  -0.00071  0.945106  -0.001  0.092745  -0.001027  1.015719  -0.001  0.093843  -0.000696  1.015471  -0.001  0.10116  0.091975  -0.001357  1.015999  -0.001
H  H27  1  0.15875211  0.24159475  0.83259920  1  0.079941  0.000875  0.946569  0.001  0.092179  0.001127  1.017131  0.001  0.093106  0.000886  1.017051  0.001  0.100474  0.091764  0.001339  1.017073  0.001
H  H28  1  0.85966882  0.25887333  0.12551596  1  0.088278  0.000171  0.96517  0.0  0.101508  7.1e-05  1.03321  0.0  0.102226  0.000164  1.033188  0.0  0.109067  0.101212  -2e-05  1.033223  0.0
H  H29  1  0.26502827  0.86503494  0.12280183  1  0.08696  0.000357  0.965209  0.0  0.100601  0.00036  1.032768  0.0  0.101337  0.000429  1.032728  0.0  0.109302  0.100177  0.000273  1.03287  0.0
H  H30  1  0.73464638  0.74138493  0.87693835  1  0.087738  0.000355  0.964611  0.0  0.101505  0.000363  1.031841  0.0  0.10231  0.000431  1.031672  0.0  0.109474  0.101035  0.000278  1.032041  0.0
H  H31  1  0.14078577  0.13327069  0.87505456  1  0.087707  0.000165  0.964114  0.0  0.101365  7.6e-05  1.0315  0.0  0.102023  0.000167  1.03151  0.0  0.109084  0.101114  -1.5e-05  1.03145  0.0
H  H32  1  0.53187840  0.41896978  0.10663112  1  0.068515  -0.000298  0.938972  0.0  0.083063  -0.00026  1.006097  0.0  0.083548  -0.000281  1.006252  0.0  0.101272  0.082729  -0.000237  1.006086  0.0
H  H33  1  0.57579000  0.68812019  0.10640889  1  0.067752  0.000275  0.94308  0.0  0.082871  0.000197  1.010369  0.0  0.083392  0.000226  1.010497  0.0  0.101482  0.082434  0.000161  1.010411  0.0
H  H34  1  0.42467450  0.58093563  0.89284051  1  0.067966  0.000269  0.942049  0.0  0.082598  0.000198  1.009919  0.0  0.083124  0.000227  1.010034  0.0  0.101022  0.082161  0.000162  1.009962  0.0
H  H35  1  0.46797315  0.31117178  0.89337794  1  0.068333  -0.000299  0.938598  0.0  0.082883  -0.000259  1.005472  0.0  0.083365  -0.000281  1.005632  0.0  0.101444  0.082554  -0.000236  1.005467  0.0
H  H36  1  0.63794396  0.46968830  0.05119447  1  0.075247  0.000638  0.958885  0.001  0.090606  0.000826  1.023888  0.001  0.091871  0.000659  1.023236  0.001  0.104805  0.089901  0.000976  1.024307  0.001
H  H37  1  0.41368492  0.58066281  0.04983125  1  0.076836  -0.000193  0.955625  -0.001  0.092008  -0.000387  1.020857  -0.001  0.093328  -0.000174  1.0202  -0.001  0.105236  0.090959  -0.000607  1.021523  -0.001
H  H38  1  0.58704308  0.53002691  0.94935636  1  0.077424  -0.000183  0.955566  -0.001  0.092453  -0.000379  1.020777  -0.001  0.093788  -0.000167  1.020102  -0.001  0.105754  0.091391  -0.0006  1.021467  -0.001
H  H39  1  0.36194378  0.41842520  0.94858443  1  0.075859  0.000657  0.958712  0.001  0.090564  0.000836  1.024449  0.001  0.091794  0.000666  1.023806  0.001  0.104665  0.089902  0.000989  1.024849  0.001
H  H40  1  0.03904622  0.27859591  0.05429256  1  0.421809  0.000172  0.860837  -0.001  0.39445  -0.00037  0.930385  -0.001  0.406117  -0.000129  0.913164  -0.001  0.297469  0.386015  -0.000624  0.942887  -0.002
H  H41  1  0.01610537  0.77586517  0.05341398  1  0.420362  0.000191  0.864176  -0.001  0.392996  -0.000325  0.933528  -0.001  0.404622  -8.3e-05  0.916381  -0.001  0.297038  0.384641  -0.00058  0.945884  -0.002
H  H42  1  0.98254636  0.72129270  0.94594346  1  0.421483  0.000195  0.860659  -0.001  0.394225  -0.000317  0.931008  -0.001  0.40581  -7.6e-05  0.913905  -0.001  0.298019  0.385908  -0.000571  0.943321  -0.002
H  H43  1  0.96236277  0.22439698  0.94681654  1  0.421212  0.000183  0.86288  -0.001  0.39401  -0.000355  0.931434  -0.001  0.405674  -0.000116  0.914227  -0.001  0.297484  0.385592  -0.000607  0.943903  -0.002
C  C44  1  0.69703966  0.30685337  0.20004072  1  0.2437  0.003465  3.703965  0.003  0.246347  0.005193  3.946025  0.005  0.254678  0.004553  3.967399  0.004  0.123407  0.240681  0.005939  3.931399  0.005
C  C45  1  0.50370923  0.89276539  0.19896514  1  0.239379  -0.003413  3.70566  -0.003  0.242529  -0.005241  3.947205  -0.005  0.250856  -0.004537  3.968548  -0.004  0.121065  0.236853  -0.00616  3.932734  -0.005
C  C46  1  0.49603318  0.69336077  0.80079871  1  0.240094  -0.003442  3.707455  -0.003  0.243095  -0.005262  3.949426  -0.005  0.251391  -0.004554  3.97077  -0.004  0.121934  0.237446  -0.006182  3.934939  -0.005
C  C47  1  0.30310276  0.10644322  0.80031973  1  0.243046  0.003397  3.704411  0.003  0.245084  0.005141  3.946889  0.005  0.253442  0.004504  3.968165  0.004  0.123266  0.23938  0.00588  3.932331  0.005
C  C48  1  0.75555406  0.36813912  0.29769416  1  -0.162491  -0.002189  3.700929  -0.002  -0.178881  -0.001438  3.944269  -0.001  -0.187576  -0.001869  3.966146  -0.002  -0.086674  -0.173171  -0.001177  3.92934  -0.001
C  C49  1  0.54378175  0.92897019  0.29645963  1  -0.161949  0.002213  3.701657  0.002  -0.178014  0.001346  3.944985  0.001  -0.186675  0.001856  3.966601  0.002  -0.087415  -0.172486  0.001008  3.930705  0.001
C  C50  1  0.45632937  0.63229145  0.70323364  1  -0.162909  0.002227  3.701373  0.002  -0.178909  0.001349  3.94522  0.001  -0.18755  0.001857  3.966802  0.002  -0.087831  -0.173375  0.001012  3.930927  0.001
C  C51  1  0.24528045  0.07069336  0.70278340  1  -0.16127  -0.002162  3.698197  -0.002  -0.177072  -0.001429  3.941341  -0.001  -0.185819  -0.001857  3.963148  -0.002  -0.08612  -0.171315  -0.001169  3.926435  -0.001
C  C52  1  0.67857790  0.34952927  0.35404453  1  0.006756  0.003546  3.732279  0.003  -0.011589  0.004591  3.979595  0.004  -0.006799  0.004192  3.997468  0.003  -0.070169  -0.014271  0.005247  3.967021  0.004
C  C53  1  0.67797742  0.00469516  0.35393261  1  0.007928  -0.003535  3.733035  -0.003  -0.010679  -0.004641  3.980955  -0.004  -0.005746  -0.004195  3.998427  -0.003  -0.06991  -0.013784  -0.005407  3.969225  -0.004
C  C54  1  0.32238370  0.65108915  0.64590441  1  0.00754  -0.003544  3.73239  -0.003  -0.010973  -0.004645  3.980337  -0.004  -0.006004  -0.004196  3.997781  -0.003  -0.070132  -0.014041  -0.005411  3.96855  -0.004
C  C55  1  0.32281854  0.99574964  0.64634182  1  0.005  0.00353  3.733316  0.003  -0.012726  0.004568  3.980736  0.004  -0.007949  0.00417  3.998499  0.003  -0.070805  -0.015448  0.005219  3.968248  0.004
C  C56  1  0.54451544  0.27105228  0.31118663  1  -0.120795  -0.001745  3.744544  -0.001  -0.135112  -0.001035  3.998646  -0.001  -0.143075  -0.001507  4.021477  -0.001  -0.089623  -0.129836  -0.000738  3.982898  -0.001
C  C57  1  0.76918840  0.04119097  0.31230969  1  -0.121067  0.00172  3.745081  0.001  -0.135895  0.000905  3.999423  0.001  -0.143751  0.001471  4.021991  0.001  -0.090167  -0.130955  0.000501  3.984504  0.0
C  C58  1  0.23087868  0.72943235  0.68773915  1  -0.120081  0.001743  3.743892  0.001  -0.134682  0.000903  3.998122  0.001  -0.142545  0.001467  4.020699  0.001  -0.089269  -0.129738  0.000498  3.983212  0.0
C  C59  1  0.45650450  0.95945698  0.68907229  1  -0.120829  -0.001713  3.744353  -0.001  -0.135094  -0.001034  3.99847  -0.001  -0.143044  -0.0015  4.021349  -0.001  -0.089604  -0.12986  -0.00074  3.982731  -0.001
C  C60  1  0.49304353  0.21348618  0.21365726  1  0.136714  0.003848  3.706964  0.003  0.105133  0.005374  3.960721  0.004  0.112805  0.004782  3.979825  0.004  0.045085  0.100133  0.006081  3.947229  0.005
C  C61  1  0.72213990  0.00134493  0.21482666  1  0.136519  -0.003761  3.708071  -0.003  0.105015  -0.005371  3.962357  -0.004  0.112783  -0.004709  3.981258  -0.004  0.044823  0.09982  -0.006225  3.949452  -0.005
C  C62  1  0.27743960  0.78667949  0.78527594  1  0.134158  -0.003764  3.709454  -0.003  0.103076  -0.005373  3.963928  -0.004  0.110728  -0.004709  3.982827  -0.004  0.042969  0.097925  -0.006227  3.951056  -0.005
C  C63  1  0.50719793  0.99875306  0.78650654  1  0.136149  0.003777  3.70579  0.003  0.104611  0.00534  3.959727  0.004  0.112253  0.004749  3.978853  0.004  0.044161  0.099621  0.006042  3.946228  0.005
C  C64  1  0.77613064  0.32186402  0.13550235  1  -0.065437  0.000375  3.682367  -0.001  -0.128132  0.002204  3.936771  0.0  -0.125445  0.001775  3.947896  0.0  -0.069889  -0.130122  0.002548  3.928585  0.0
C  C65  1  0.35903359  0.81243277  0.13334585  1  -0.061635  -0.000428  3.679745  0.0  -0.12445  -0.002482  3.933903  -0.001  -0.121861  -0.001797  3.944965  -0.001  -0.068998  -0.126295  -0.003115  3.926067  -0.001
C  C66  1  0.64074419  0.67829802  0.86619690  1  -0.063809  -0.000432  3.682228  0.0  -0.125958  -0.002472  3.935511  -0.001  -0.123343  -0.001791  3.946431  -0.001  -0.069999  -0.127839  -0.003103  3.927779  -0.001
C  C67  1  0.22368275  0.18623227  0.86494076  1  -0.065553  0.000432  3.683408  -0.001  -0.127384  0.002215  3.936125  0.0  -0.124672  0.001782  3.947168  0.0  -0.069978  -0.12934  0.00256  3.927902  0.0
C  C68  1  0.56945485  0.39303924  0.04392842  1  -0.004134  0.000608  3.631476  0.0  -0.060216  0.00215  3.887854  0.001  -0.056914  0.00173  3.899429  0.001  -0.073911  -0.062578  0.002491  3.87954  0.001
C  C69  1  0.47473465  0.65045223  0.04312772  1  -0.004066  -0.000558  3.628981  0.0  -0.061497  -0.002287  3.88893  -0.001  -0.058151  -0.001769  3.900337  -0.001  -0.074814  -0.063761  -0.002769  3.880944  -0.001
C  C70  1  0.52569828  0.60670702  0.95614234  1  -0.003123  -0.000556  3.628853  0.0  -0.059968  -0.002273  3.88764  -0.001  -0.056646  -0.001757  3.899052  -0.001  -0.074675  -0.062226  -0.002753  3.879663  -0.001
C  C71  1  0.43041788  0.34890104  0.95606637  1  -0.003476  0.000587  3.631784  0.0  -0.059655  0.002163  3.888766  0.001  -0.056243  0.001741  3.900221  0.001  -0.073957  -0.062093  0.002505  3.880473  0.001
C  C72  1  0.09791281  0.14836830  0.18427866  1  0.16795  -0.002742  3.914677  -0.004  0.147801  -0.004127  4.18951  -0.004  0.156636  -0.002549  4.210595  -0.003  0.051979  0.141565  -0.005841  4.175155  -0.005
C  C73  1  0.08784037  0.03558876  0.18394699  1  0.167555  -0.002605  3.91385  -0.004  0.147078  -0.004077  4.189395  -0.004  0.155712  -0.00245  4.210478  -0.003  0.0523  0.141109  -0.005926  4.174949  -0.006
C  C74  1  0.91133212  0.85134980  0.81563428  1  0.16841  -0.002604  3.914161  -0.004  0.147771  -0.004089  4.189277  -0.004  0.156465  -0.002465  4.210347  -0.003  0.052475  0.141763  -0.005939  4.174875  -0.006
C  C75  1  0.90141669  0.96412276  0.81588915  1  0.167138  -0.002683  3.913743  -0.004  0.146707  -0.004146  4.189902  -0.004  0.155504  -0.002557  4.210944  -0.003  0.051606  0.140495  -0.005865  4.175573  -0.005
C  C76  1  0.18277293  0.23377134  0.35584433  1  0.00978  -0.003255  3.83621  -0.002  0.005392  -0.004105  4.119075  -0.003  0.007195  -0.002592  4.139864  -0.002  -0.01808  0.003913  -0.005574  4.105432  -0.004
C  C77  1  0.17207500  0.12161957  0.35548376  1  0.009667  -0.003077  3.83598  -0.002  0.005855  -0.004122  4.118544  -0.003  0.007547  -0.00255  4.139394  -0.002  -0.018436  0.004545  -0.005723  4.104761  -0.004
C  C78  1  0.82751236  0.76609321  0.64407512  1  0.010249  -0.003073  3.837313  -0.002  0.005911  -0.004136  4.120011  -0.003  0.007636  -0.002565  4.140845  -0.002  -0.018913  0.00458  -0.005741  4.106239  -0.004
C  C79  1  0.81709444  0.87821598  0.64433460  1  0.008588  -0.003198  3.838194  -0.002  0.004187  -0.004097  4.121606  -0.003  0.00598  -0.002582  4.142355  -0.002  -0.018823  0.002721  -0.005568  4.107975  -0.004
C  C80  1  0.14674533  0.24672198  0.26986624  1  -0.024401  -0.002644  3.810593  -0.002  -0.024683  -0.003887  4.090536  -0.003  -0.023473  -0.002154  4.109366  -0.002  -0.018148  -0.025817  -0.005613  4.078395  -0.004
C  C81  1  0.12363571  0.02255293  0.26911500  1  -0.023848  -0.002838  3.812218  -0.002  -0.024789  -0.003879  4.093002  -0.003  -0.023568  -0.002166  4.111976  -0.002  -0.018225  -0.025848  -0.005515  4.080529  -0.004
C  C82  1  0.87548900  0.75306870  0.73012986  1  -0.026031  -0.002799  3.81346  -0.002  -0.025849  -0.003871  4.093033  -0.003  -0.024678  -0.002149  4.112023  -0.002  -0.018297  -0.026893  -0.005506  4.080579  -0.004
C  C83  1  0.85292271  0.97718143  0.73061928  1  -0.023849  -0.002671  3.810641  -0.002  -0.02462  -0.003909  4.091627  -0.003  -0.02337  -0.00217  4.110403  -0.002  -0.017522  -0.025775  -0.005637  4.079505  -0.004
C  C84  1  0.16903496  0.58512984  0.18353609  1  0.161499  0.00105  3.934472  -0.001  0.142535  -0.004289  4.215179  -0.005  0.15201  -0.002696  4.236051  -0.004  0.045881  0.136075  -0.006145  4.200482  -0.006
C  C85  1  0.01516119  0.59886839  0.18282257  1  0.16017  0.001055  3.935494  -0.001  0.141224  -0.004377  4.21597  -0.005  0.15073  -0.002784  4.236817  -0.004  0.045438  0.134723  -0.006226  4.201312  -0.006
C  C86  1  0.98477898  0.41561979  0.81732913  1  0.161445  0.001113  3.934008  -0.001  0.141955  -0.004336  4.21494  -0.005  0.151474  -0.002752  4.235824  -0.004  0.046313  0.13545  -0.006181  4.200261  -0.006
C  C87  1  0.83094481  0.40127557  0.81654746  1  0.160381  0.001037  3.934747  -0.001  0.140995  -0.004308  4.21623  -0.005  0.150481  -0.002696  4.237096  -0.004  0.044727  0.134534  -0.006149  4.20152  -0.006
C  C88  1  0.28673871  0.61837011  0.26953239  1  -0.031616  -0.003413  3.822076  -0.003  -0.033769  -0.004148  4.106108  -0.003  -0.033095  -0.002434  4.124272  -0.002  -0.027831  -0.034252  -0.005885  4.093832  -0.004
C  C89  1  0.98361439  0.65113701  0.26814529  1  -0.030856  -0.003152  3.822465  -0.003  -0.032315  -0.003934  4.105734  -0.003  -0.031611  -0.002266  4.123783  -0.002  -0.026337  -0.032865  -0.005632  4.09362  -0.004
C  C90  1  0.01628253  0.38244546  0.73202793  1  -0.031244  -0.003158  3.823673  -0.003  -0.032221  -0.003953  4.106387  -0.003  -0.03165  -0.002277  4.124694  -0.002  -0.026372  -0.03271  -0.005646  4.094148  -0.004
C  C91  1  0.71326060  0.34866594  0.73046759  1  -0.031303  -0.003392  3.82089  -0.003  -0.03339  -0.004126  4.105189  -0.003  -0.032711  -0.002426  4.123307  -0.002  -0.027359  -0.033873  -0.005862  4.09293  -0.004
C  C92  1  0.25385754  0.66884394  0.35533048  1  0.006484  0.000143  3.861463  0.0  -0.001465  -0.004016  4.150728  -0.003  7.3e-05  -0.00251  4.172225  -0.002  -0.026142  -0.002456  -0.005615  4.136035  -0.004
C  C93  1  0.10298907  0.68627915  0.35462470  1  0.004107  -0.000106  3.86292  0.0  -0.004823  -0.004098  4.152898  -0.003  -0.003268  -0.002598  4.174361  -0.002  -0.028131  -0.005835  -0.005698  4.138273  -0.004
C  C94  1  0.89693877  0.33131446  0.64549397  1  0.005044  -7.3e-05  3.862379  0.0  -0.003865  -0.004064  4.152034  -0.003  -0.002303  -0.002574  4.173524  -0.002  -0.027326  -0.004873  -0.005657  4.137373  -0.004
C  C95  1  0.74611108  0.31343588  0.64470985  1  0.006299  7.4e-05  3.861203  0.0  -0.001707  -0.004041  4.15052  -0.003  -0.000123  -0.002531  4.17195  -0.002  -0.026455  -0.002724  -0.005645  4.135868  -0.004
N  N96  1  0.56776443  0.23012068  0.15877558  1  -0.366916  0.027224  3.223768  0.015  -0.296007  0.029326  3.484683  0.014  -0.318432  0.026309  3.502979  0.012  -0.322136  -0.279521  0.031443  3.471633  0.016
N  N97  1  0.59168848  0.92908291  0.15887455  1  -0.367124  -0.025989  3.222747  -0.015  -0.296021  -0.028869  3.483252  -0.014  -0.31839  -0.025305  3.501616  -0.012  -0.32148  -0.279914  -0.03201  3.470332  -0.017
N  N98  1  0.40778080  0.76995617  0.84109823  1  -0.36546  -0.025973  3.22246  -0.015  -0.294844  -0.028854  3.483738  -0.014  -0.317208  -0.025288  3.502161  -0.012  -0.320663  -0.27876  -0.032  3.470825  -0.017
N  N99  1  0.43211508  0.07043811  0.84147494  1  -0.367581  0.027195  3.222591  0.015  -0.296083  0.029296  3.482849  0.014  -0.31854  0.026291  3.501174  0.012  -0.322001  -0.279599  0.031408  3.469842  0.016
N  N100  1  0.66568828  0.29771781  0.04241418  1  -0.389921  0.038129  3.20927  0.028  -0.319841  0.040596  3.462561  0.027  -0.34051  0.035594  3.473588  0.023  -0.478507  -0.303611  0.044685  3.453457  0.031
N  N101  1  0.37585358  0.74346941  0.04073463  1  -0.391203  -0.036726  3.209569  -0.028  -0.320738  -0.039475  3.464209  -0.027  -0.341423  -0.033997  3.475184  -0.023  -0.47905  -0.304924  -0.044506  3.45546  -0.032
N  N102  1  0.62419698  0.70211704  0.95875929  1  -0.392362  -0.036673  3.209527  -0.028  -0.320821  -0.039407  3.46272  -0.027  -0.341581  -0.033937  3.473776  -0.023  -0.477844  -0.304949  -0.044431  3.45393  -0.032
N  N103  1  0.33423129  0.25574778  0.95793591  1  -0.392348  0.038135  3.212483  0.028  -0.321534  0.040582  3.464835  0.027  -0.342258  0.035573  3.475862  0.023  -0.478552  -0.305303  0.044686  3.455817  0.031
Cl  Cl104  1  0.30053721  0.00201224  0.99859864  1  -0.497611  -0.024747  1.124744  -0.018  -0.443982  -0.036186  1.467988  -0.028  -0.467806  -0.031127  1.434162  -0.024  -0.173069  -0.423653  -0.040083  1.492979  -0.03
Cl  Cl105  1  0.69898670  0.00285516  0.00160534  1  -0.497028  -0.02463  1.126488  -0.018  -0.443232  -0.036064  1.469746  -0.027  -0.467079  -0.031038  1.43592  -0.024  -0.172998  -0.422921  -0.039929  1.494727  -0.03
Cl  Cl106  1  0.16764444  0.38153028  0.26748880  1  -0.043446  0.000846  1.526827  0.001  -0.030287  -0.000271  1.786026  0.0  -0.033168  9.1e-05  1.782204  0.0  0.023519  -0.028605  -0.000755  1.789141  -0.001
Cl  Cl107  1  0.10064029  0.88467248  0.26548667  1  -0.043988  0.000898  1.527227  0.001  -0.030408  -0.000293  1.786711  0.0  -0.033351  0.000114  1.782944  0.0  0.023289  -0.028571  -0.000812  1.789648  -0.001
Cl  Cl108  1  0.89819965  0.61833881  0.73296713  1  -0.043837  0.000895  1.526788  0.001  -0.03084  -0.000296  1.78565  0.0  -0.033737  0.00011  1.781871  0.0  0.022484  -0.029024  -0.000812  1.788608  -0.001
Cl  Cl109  1  0.83211557  0.11478598  0.73375994  1  -0.043447  0.000862  1.528394  0.001  -0.030183  -0.000266  1.788217  0.0  -0.03304  9.8e-05  1.784363  0.0  0.023304  -0.028541  -0.000753  1.791355  -0.001
Cl  Cl110  1  0.23867004  0.35548898  0.46031109  1  -0.062872  0.000143  1.470618  0.0  -0.052797  -0.000663  1.716362  0.0  -0.054206  -0.000274  1.709428  0.0  -0.001137  -0.051892  -0.001126  1.7214  -0.001
Cl  Cl111  1  0.21674575  0.10415589  0.45948140  1  -0.062727  0.000146  1.470889  0.0  -0.052699  -0.0007  1.71675  0.0  -0.054082  -0.000284  1.709796  0.0  -0.000662  -0.051838  -0.001215  1.721764  -0.001
Cl  Cl112  1  0.78331629  0.64452164  0.53970962  1  -0.062572  0.000156  1.472651  0.0  -0.052494  -0.0007  1.719319  0.0  -0.053896  -0.000284  1.712362  0.0  -0.000173  -0.05161  -0.001216  1.724335  -0.001
Cl  Cl113  1  0.76118531  0.89574783  0.54024666  1  -0.062277  0.000151  1.469218  0.0  -0.052201  -0.000658  1.714748  0.0  -0.053603  -0.000269  1.707817  0.0  -0.000941  -0.051315  -0.001122  1.719791  -0.001
Cl  Cl114  1  0.47037963  0.59334981  0.26829920  1  -0.055728  0.000304  1.477939  0.0  -0.04614  -0.000318  1.738558  0.0  -0.047433  -5e-06  1.732019  0.0  -0.001614  -0.04519  -0.000724  1.743259  0.0
Cl  Cl115  1  0.79800780  0.67453863  0.26526858  1  -0.054228  0.000445  1.482152  0.0  -0.044396  -0.000131  1.743479  0.0  -0.045766  0.000141  1.736888  0.0  0.000481  -0.043305  -0.000496  1.748169  0.0
Cl  Cl116  1  0.20185862  0.40841254  0.73503071  1  -0.054274  0.000435  1.483755  0.0  -0.044593  -0.000136  1.745025  0.0  -0.045897  0.000135  1.738465  0.0  0.000269  -0.043545  -0.000502  1.749714  0.0
Cl  Cl117  1  0.52971319  0.32485309  0.73155170  1  -0.056014  0.000299  1.478183  0.0  -0.046442  -0.000313  1.739035  0.0  -0.047746  -2e-06  1.732474  0.0  -0.001921  -0.045483  -0.00072  1.743752  0.0
Cl  Cl118  1  0.39952437  0.70674426  0.45984888  1  -0.067409  0.0009  1.507589  0.001  -0.059569  -0.000597  1.765878  0.0  -0.06227  -0.000248  1.759938  0.0  -0.002748  -0.057321  -0.001052  1.769917  -0.001
Cl  Cl119  1  0.06139497  0.75135131  0.45819683  1  -0.067223  0.000816  1.508711  0.001  -0.059267  -0.000605  1.767673  0.0  -0.061924  -0.000249  1.761678  0.0  -0.002301  -0.057071  -0.001056  1.77177  -0.001
Cl  Cl120  1  0.93847300  0.29297806  0.54200677  1  -0.067234  0.000807  1.508833  0.001  -0.059288  -0.000598  1.767999  0.0  -0.061941  -0.000246  1.761989  0.0  -0.001986  -0.057094  -0.001046  1.77209  -0.001
Cl  Cl121  1  0.60038277  0.24734967  0.54011437  1  -0.067723  0.000896  1.506954  0.001  -0.059919  -0.000603  1.765285  0.0  -0.062615  -0.000253  1.759316  0.0  -0.003089  -0.057682  -0.001059  1.769337  -0.001
O  O122  1  0.05884410  0.15279277  0.09916523  1  -0.579613  0.004843  2.125059  0.023  -0.527212  -0.025806  2.405653  -0.009  -0.567886  -0.014253  2.40157  0.003  -0.336272  -0.498085  -0.034825  2.408673  -0.018
O  O123  1  0.04235146  0.94583153  0.09856414  1  -0.579665  0.005068  2.128527  0.023  -0.527127  -0.023633  2.410383  -0.008  -0.567522  -0.012618  2.405619  0.003  -0.336721  -0.498267  -0.031957  2.414098  -0.017
O  O124  1  0.95692642  0.84687296  0.90079480  1  -0.580071  0.005256  2.126446  0.023  -0.527285  -0.023576  2.408131  -0.008  -0.567705  -0.012532  2.403398  0.004  -0.336846  -0.498388  -0.031942  2.411729  -0.017
O  O125  1  0.94024373  0.05378117  0.90122219  1  -0.578693  0.004861  2.124268  0.023  -0.526799  -0.025896  2.405602  -0.009  -0.567493  -0.01433  2.401565  0.003  -0.336896  -0.497688  -0.034925  2.408636  -0.018
O  O126  1  0.19065320  0.53893096  0.09920844  1  -0.541072  0.018009  2.018734  0.036  -0.508235  -0.022188  2.304208  -0.006  -0.547162  -0.01137  2.300466  0.005  -0.338272  -0.480458  -0.031243  2.306562  -0.016
O  O127  1  0.90842857  0.56083044  0.09790941  1  -0.540283  0.017971  2.019249  0.036  -0.507903  -0.022153  2.305233  -0.006  -0.546694  -0.011378  2.301282  0.005  -0.33882  -0.480239  -0.031167  2.307759  -0.015
O  O128  1  0.09151760  0.46231524  0.90224513  1  -0.541548  0.017771  2.020866  0.036  -0.508308  -0.022138  2.306565  -0.006  -0.54716  -0.011399  2.302793  0.005  -0.338864  -0.480604  -0.031138  2.308966  -0.015
O  O129  1  0.80937302  0.43932981  0.90083761  1  -0.540978  0.01789  2.020962  0.036  -0.507241  -0.022174  2.305484  -0.006  -0.546176  -0.011393  2.301831  0.005  -0.337715  -0.479485  -0.031202  2.307831  -0.016
O  O130  1  0.00111342  0.30040725  0.00045710  1  -0.820254  -0.018129  1.81213  -0.012  -0.776027  -0.026998  2.001589  -0.02  -0.79827  -0.023646  1.965023  -0.018  -0.56209  -0.760199  -0.029946  2.027835  -0.022
O  O131  1  0.99889077  0.69968863  0.99978786  1  -0.819539  -0.018321  1.816898  -0.012  -0.775408  -0.027499  2.009107  -0.021  -0.797767  -0.023997  1.972777  -0.019  -0.561554  -0.759445  -0.03061  2.035015  -0.023
