# generated using pymatgen
data_SnH14C14(NO2)2
_symmetry_space_group_name_H-M   'P 1'
_cell_length_a   8.89307877
_cell_length_b   12.34557887
_cell_length_c   13.73296560
_cell_angle_alpha   109.94497543
_cell_angle_beta   90.00003869
_cell_angle_gamma   90.00005511
_symmetry_Int_Tables_number   1
_chemical_formula_structural   SnH14C14(NO2)2
_chemical_formula_sum   'Sn4 H56 C56 N8 O16'
_cell_volume   1417.31154058
_cell_formula_units_Z   4
loop_
 _symmetry_equiv_pos_site_id
 _symmetry_equiv_pos_as_xyz
  1  'x, y, z'
loop_
 _atom_site_type_symbol
 _atom_site_label
 _atom_site_symmetry_multiplicity
 _atom_site_fract_x
 _atom_site_fract_y
 _atom_site_fract_z
 _atom_site_occupancy
 _atom_site_hle17_bader_spin_density
 _atom_site_hle17_ddec_charge
 _atom_site_hle17_ddec_spin_density
 _atom_site_hle17_ddec_sum_bond_order
 _atom_site_hle17_magmom
 _atom_site_hse06_10hf_bader_spin_density
 _atom_site_hse06_10hf_ddec_charge
 _atom_site_hse06_10hf_ddec_spin_density
 _atom_site_hse06_10hf_ddec_sum_bond_order
 _atom_site_hse06_10hf_magmom
 _atom_site_hse06_bader_spin_density
 _atom_site_hse06_ddec_charge
 _atom_site_hse06_ddec_spin_density
 _atom_site_hse06_ddec_sum_bond_order
 _atom_site_hse06_magmom
 _atom_site_pbe_bader_spin_density
 _atom_site_pbe_cm5_charge
 _atom_site_pbe_ddec_charge
 _atom_site_pbe_ddec_spin_density
 _atom_site_pbe_ddec_sum_bond_order
 _atom_site_pbe_magmom
Sn  Sn0  1  0.36346787  0.82404774  0.74706618  1  0  1.453357  0  2.885671  0  0  1.281711  0  3.394428  0  0  1.337033  0  3.367547  0  0  0.60801  1.243182  0  3.411726  0
Sn  Sn1  1  0.86348325  0.17596276  0.75294302  1  0  1.453286  0  2.885692  0  0  1.281659  0  3.394412  0  0  1.336982  0  3.367537  0  0  0.607977  1.243119  0  3.411704  0
Sn  Sn2  1  0.63651547  0.17596384  0.25294487  1  0  1.453322  0  2.885584  0  0  1.281692  0  3.394306  0  0  1.337013  0  3.367432  0  0  0.608024  1.243175  0  3.411602  0
Sn  Sn3  1  0.13653270  0.82405140  0.24706882  1  0  1.453313  0  2.885733  0  0  1.281647  0  3.394499  0  0  1.336968  0  3.367617  0  0  0.608001  1.243154  0  3.411715  0
H  H4  1  0.21510404  0.75618221  0.56669709  1  0  0.150925  0  0.985678  0  0  0.168668  0  1.044657  0  0  0.171481  0  1.045245  0  0  0.08675  0.16649  0  1.044731  0
H  H5  1  0.71510283  0.24381953  0.93330865  1  0  0.150994  0  0.985609  0  0  0.168702  0  1.044636  0  0  0.171515  0  1.045224  0  0  0.086763  0.166508  0  1.044717  0
H  H6  1  0.78489617  0.24381988  0.43330889  1  0  0.150971  0  0.985612  0  0  0.168668  0  1.044654  0  0  0.171484  0  1.04524  0  0  0.086763  0.166492  0  1.044735  0
H  H7  1  0.28489400  0.75618084  0.06669680  1  0  0.150943  0  0.985655  0  0  0.168687  0  1.044633  0  0  0.1715  0  1.045221  0  0  0.086753  0.1665  0  1.044713  0
H  H8  1  0.21618928  0.91071333  0.61799638  1  0  0.168378  0  0.987025  0  0  0.184208  0  1.044467  0  0  0.187832  0  1.044398  0  0  0.090375  0.18157  0  1.045151  0
H  H9  1  0.71619344  0.08928577  0.88199180  1  0  0.168323  0  0.986992  0  0  0.184101  0  1.044504  0  0  0.18772  0  1.044444  0  0  0.090335  0.181445  0  1.045198  0
H  H10  1  0.78380531  0.08928785  0.38199184  1  0  0.168319  0  0.987023  0  0  0.184099  0  1.044528  0  0  0.187716  0  1.044471  0  0  0.090361  0.181462  0  1.045206  0
H  H11  1  0.28381014  0.91071368  0.11799589  1  0  0.16836  0  0.987033  0  0  0.18419  0  1.044474  0  0  0.187814  0  1.044404  0  0  0.090365  0.18155  0  1.045168  0
H  H12  1  0.38076662  0.83275014  0.55425781  1  0  0.151038  0  1.000662  0  0  0.165537  0  1.064018  0  0  0.167763  0  1.066775  0  0  0.082603  0.163984  0  1.062057  0
H  H13  1  0.88076533  0.16724832  0.94574919  1  0  0.151004  0  1.000637  0  0  0.165524  0  1.063962  0  0  0.167757  0  1.066707  0  0  0.082577  0.163952  0  1.062012  0
H  H14  1  0.61923584  0.16724766  0.44575050  1  0  0.150992  0  1.000643  0  0  0.165498  0  1.063989  0  0  0.167732  0  1.066733  0  0  0.082578  0.16394  0  1.06203  0
H  H15  1  0.11923038  0.83275033  0.05425865  1  0  0.151036  0  1.000677  0  0  0.165536  0  1.064027  0  0  0.167761  0  1.066786  0  0  0.0826  0.163974  0  1.062071  0
H  H16  1  0.41927985  0.75287482  0.90767748  1  0  0.160222  0  0.972927  0  0  0.178124  0  1.028792  0  0  0.181206  0  1.029171  0  0  0.08978  0.176126  0  1.027999  0
H  H17  1  0.91928391  0.24712193  0.59231881  1  0  0.160254  0  0.972815  0  0  0.178154  0  1.028687  0  0  0.181235  0  1.029068  0  0  0.089783  0.176163  0  1.027889  0
H  H18  1  0.58071586  0.24712208  0.09231890  1  0  0.160244  0  0.972812  0  0  0.178149  0  1.028684  0  0  0.181229  0  1.029065  0  0  0.089792  0.176165  0  1.027872  0
H  H19  1  0.08071854  0.75287325  0.40767632  1  0  0.160224  0  0.972904  0  0  0.178129  0  1.028763  0  0  0.18121  0  1.029143  0  0  0.089772  0.176109  0  1.027983  0
H  H20  1  0.57662472  0.83361768  0.88714971  1  0  0.153628  0  1.005505  0  0  0.168991  0  1.068564  0  0  0.171567  0  1.070044  0  0  0.087303  0.166935  0  1.068005  0
H  H21  1  0.07662856  0.16637873  0.61284487  1  0  0.153584  0  1.005561  0  0  0.168943  0  1.068628  0  0  0.17152  0  1.070107  0  0  0.087282  0.166894  0  1.068071  0
H  H22  1  0.42336874  0.16637835  0.11284349  1  0  0.153519  0  1.005583  0  0  0.168917  0  1.068612  0  0  0.171494  0  1.070092  0  0  0.087303  0.166883  0  1.06805  0
H  H23  1  0.92337502  0.83361644  0.38714807  1  0  0.153618  0  1.005514  0  0  0.168976  0  1.06858  0  0  0.171552  0  1.070062  0  0  0.087289  0.166911  0  1.068026  0
H  H24  1  0.41213622  0.90820473  0.95189459  1  0  0.166766  0  0.970624  0  0  0.186631  0  1.022953  0  0  0.190019  0  1.022958  0  0  0.092469  0.183911  0  1.023727  0
H  H25  1  0.91212766  0.09179292  0.54811727  1  0  0.166757  0  0.970611  0  0  0.18661  0  1.022958  0  0  0.189997  0  1.022963  0  0  0.092453  0.183904  0  1.023728  0
H  H26  1  0.58787186  0.09179222  0.04811856  1  0  0.166756  0  0.970565  0  0  0.186586  0  1.022956  0  0  0.189973  0  1.02296  0  0  0.092468  0.183903  0  1.023725  0
H  H27  1  0.08786355  0.90820317  0.45189416  1  0  0.166771  0  0.970625  0  0  0.186623  0  1.022969  0  0  0.190009  0  1.022973  0  0  0.092459  0.183891  0  1.023745  0
H  H28  1  0.52127462  0.55820620  0.62629587  1  0  0.091524  0  0.970188  0  0  0.095382  0  1.039323  0  0  0.098827  0  1.036189  0  0  0.118453  0.092804  0  1.041847  0
H  H29  1  0.02128697  0.44179189  0.87370066  1  0  0.091536  0  0.970275  0  0  0.095453  0  1.039343  0  0  0.0989  0  1.036206  0  0  0.118484  0.092874  0  1.04187  0
H  H30  1  0.47871434  0.44179070  0.37369833  1  0  0.091472  0  0.970288  0  0  0.095356  0  1.039393  0  0  0.0988  0  1.036262  0  0  0.118454  0.092781  0  1.041915  0
H  H31  1  0.97872561  0.55820846  0.12629604  1  0  0.091489  0  0.970237  0  0  0.095346  0  1.039378  0  0  0.09879  0  1.036247  0  0  0.118436  0.092767  0  1.041905  0
H  H32  1  0.76047964  0.46713970  0.53933691  1  0  0.10447  0  0.936463  0  0  0.116817  0  0.991544  0  0  0.120042  0  0.990339  0  0  0.11137  0.114515  0  0.992442  0
H  H33  1  0.26049220  0.53286034  0.96066105  1  0  0.104507  0  0.936437  0  0  0.116851  0  0.991506  0  0  0.120079  0  0.990301  0  0  0.111417  0.114553  0  0.992399  0
H  H34  1  0.23951045  0.53285892  0.46066000  1  0  0.10447  0  0.936445  0  0  0.116844  0  0.991493  0  0  0.12007  0  0.990289  0  0  0.1114  0.114549  0  0.992384  0
H  H35  1  0.73952038  0.46713914  0.03933467  1  0  0.104505  0  0.936422  0  0  0.116853  0  0.991504  0  0  0.120077  0  0.990299  0  0  0.111374  0.114551  0  0.992401  0
H  H36  1  0.97405929  0.59596323  0.52795034  1  0  0.093608  0  0.943086  0  0  0.105503  0  1.002087  0  0  0.107799  0  1.000577  0  0  0.110766  0.103983  0  1.00308  0
H  H37  1  0.47406945  0.40403531  0.97205017  1  0  0.093648  0  0.94298  0  0  0.105538  0  1.001973  0  0  0.107826  0  1.000484  0  0  0.11076  0.10402  0  1.002965  0
H  H38  1  0.02593304  0.40403455  0.47205068  1  0  0.093646  0  0.943041  0  0  0.105533  0  1.002032  0  0  0.107821  0  1.000543  0  0  0.110767  0.104012  0  1.003023  0
H  H39  1  0.52594313  0.59596417  0.02794409  1  0  0.093609  0  0.943042  0  0  0.105536  0  1.002002  0  0  0.107827  0  1.000505  0  0  0.110771  0.104009  0  1.003001  0
H  H40  1  0.93500888  0.81224338  0.60321629  1  0  0.126198  0  0.938305  0  0  0.13657  0  0.996792  0  0  0.140155  0  0.995409  0  0  0.115413  0.133102  0  0.999402  0
H  H41  1  0.43501305  0.18775597  0.89678226  1  0  0.126082  0  0.938409  0  0  0.136471  0  0.99687  0  0  0.140062  0  0.995478  0  0  0.115405  0.132994  0  0.999482  0
H  H42  1  0.06498458  0.18775440  0.39678546  1  0  0.126089  0  0.938336  0  0  0.136463  0  0.996832  0  0  0.140048  0  0.99545  0  0  0.115389  0.132997  0  0.999439  0
H  H43  1  0.56499278  0.81224438  0.10321517  1  0  0.126169  0  0.938303  0  0  0.136542  0  0.996796  0  0  0.140126  0  0.995412  0  0  0.115392  0.133071  0  0.999406  0
H  H44  1  0.05719053  0.95893512  0.89713833  1  0  0.07397  0  0.9803  0  0  0.080376  0  1.049477  0  0  0.082792  0  1.047526  0  0  0.115639  0.078579  0  1.0508  0
H  H45  1  0.55719433  0.04106731  0.60286100  1  0  0.073875  0  0.980394  0  0  0.080274  0  1.049607  0  0  0.082686  0  1.047656  0  0  0.115565  0.078481  0  1.050925  0
H  H46  1  0.94280181  0.04106609  0.10286228  1  0  0.073911  0  0.980375  0  0  0.08033  0  1.049568  0  0  0.082739  0  1.047619  0  0  0.115624  0.078546  0  1.050882  0
H  H47  1  0.44281038  0.95893564  0.39714087  1  0  0.073976  0  0.980284  0  0  0.08038  0  1.049465  0  0  0.082796  0  1.047514  0  0  0.115643  0.078583  0  1.050789  0
H  H48  1  0.81349216  0.90635369  0.96089262  1  0  0.105487  0  0.952718  0  0  0.116854  0  1.011  0  0  0.119958  0  1.010292  0  0  0.108579  0.113975  0  1.013085  0
H  H49  1  0.31349358  0.09364382  0.53910458  1  0  0.105466  0  0.952739  0  0  0.116836  0  1.011015  0  0  0.119939  0  1.010309  0  0  0.108566  0.113953  0  1.013113  0
H  H50  1  0.18650242  0.09364236  0.03910714  1  0  0.105438  0  0.952775  0  0  0.11681  0  1.01105  0  0  0.119915  0  1.010341  0  0  0.108568  0.113929  0  1.013143  0
H  H51  1  0.68651000  0.90635395  0.46089425  1  0  0.105508  0  0.952752  0  0  0.116875  0  1.011024  0  0  0.119979  0  1.010317  0  0  0.108583  0.113993  0  1.01311  0
H  H52  1  0.74088609  0.69425774  0.90269586  1  0  0.104796  0  0.971534  0  0  0.115665  0  1.030826  0  0  0.118337  0  1.029318  0  0  0.108621  0.114323  0  1.030857  0
H  H53  1  0.24088560  0.30574229  0.59730208  1  0  0.104797  0  0.971445  0  0  0.115655  0  1.030752  0  0  0.118326  0  1.029246  0  0  0.108598  0.114312  0  1.030782  0
H  H54  1  0.25911412  0.30573917  0.09730198  1  0  0.104824  0  0.971466  0  0  0.115675  0  1.030778  0  0  0.118346  0  1.029273  0  0  0.108608  0.114328  0  1.030809  0
H  H55  1  0.75911573  0.69425806  0.40269608  1  0  0.104784  0  0.971521  0  0  0.115651  0  1.030811  0  0  0.118323  0  1.029303  0  0  0.108612  0.11431  0  1.030839  0
H  H56  1  0.91478859  0.55071274  0.78598220  1  0  0.123468  0  0.961472  0  0  0.127807  0  1.028815  0  0  0.132404  0  1.025595  0  0  0.111957  0.124117  0  1.0319  0
H  H57  1  0.41478616  0.44928659  0.71401269  1  0  0.123512  0  0.961484  0  0  0.127859  0  1.028831  0  0  0.132446  0  1.025625  0  0  0.11194  0.124161  0  1.031916  0
H  H58  1  0.08521162  0.44928588  0.21401107  1  0  0.123472  0  0.961502  0  0  0.127852  0  1.028813  0  0  0.132424  0  1.025622  0  0  0.11196  0.124163  0  1.031896  0
H  H59  1  0.58521517  0.55071290  0.28598302  1  0  0.123557  0  0.961443  0  0  0.127876  0  1.028806  0  0  0.132481  0  1.025577  0  0  0.11195  0.124183  0  1.031894  0
C  C60  1  0.28386657  0.83282463  0.60338291  1  0  -0.675716  0  3.484657  0  0  -0.725238  0  3.725868  0  0  -0.741038  0  3.73334  0  0  -0.324849  -0.714561  0  3.721303  0
C  C61  1  0.78387085  0.16717975  0.89662002  1  0  -0.675686  0  3.484511  0  0  -0.725138  0  3.725733  0  0  -0.740951  0  3.733216  0  0  -0.324841  -0.71447  0  3.721184  0
C  C62  1  0.71612802  0.16718004  0.39662021  1  0  -0.675653  0  3.484573  0  0  -0.725081  0  3.725822  0  0  -0.740897  0  3.733303  0  0  -0.324819  -0.714405  0  3.721254  0
C  C63  1  0.21613161  0.83282492  0.10338310  1  0  -0.675697  0  3.484653  0  0  -0.725221  0  3.725861  0  0  -0.741021  0  3.733335  0  0  -0.324845  -0.714547  0  3.72131  0
C  C64  1  0.45428352  0.83045070  0.89226617  1  0  -0.67054  0  3.481538  0  0  -0.722157  0  3.720577  0  0  -0.737541  0  3.727306  0  0  -0.321344  -0.711504  0  3.71606  0
C  C65  1  0.95428524  0.16954955  0.60773703  1  0  -0.670476  0  3.481465  0  0  -0.722101  0  3.720539  0  0  -0.737483  0  3.72727  0  0  -0.32126  -0.711445  0  3.716016  0
C  C66  1  0.54571219  0.16954967  0.10773709  1  0  -0.670397  0  3.481354  0  0  -0.722045  0  3.720431  0  0  -0.737425  0  3.727161  0  0  -0.32126  -0.711381  0  3.715896  0
C  C67  1  0.04571609  0.83044996  0.39226597  1  0  -0.670518  0  3.481542  0  0  -0.722121  0  3.7206  0  0  -0.737502  0  3.727331  0  0  -0.321348  -0.711474  0  3.7161  0
C  C68  1  0.68011865  0.92139752  0.69186394  1  0  0.606186  0  3.927218  0  0  0.548472  0  4.23159  0  0  0.58264  0  4.222591  0  0  0.220666  0.525384  0  4.236599  0
C  C69  1  0.18012482  0.07860073  0.80813853  1  0  0.606288  0  3.927027  0  0  0.548607  0  4.231426  0  0  0.582774  0  4.222422  0  0  0.220798  0.525521  0  4.236438  0
C  C70  1  0.31987594  0.07860198  0.30813979  1  0  0.606173  0  3.92704  0  0  0.548447  0  4.231482  0  0  0.582613  0  4.222486  0  0  0.220733  0.525358  0  4.236504  0
C  C71  1  0.81988101  0.92139877  0.19186592  1  0  0.606109  0  3.92731  0  0  0.548433  0  4.231638  0  0  0.582603  0  4.222638  0  0  0.220644  0.525346  0  4.236651  0
C  C72  1  0.71015201  0.79367082  0.65074371  1  0  0.081799  0  3.773038  0  0  0.085836  0  4.014474  0  0  0.086193  0  4.035417  0  0  0.112573  0.085531  0  4.000058  0
C  C73  1  0.21015503  0.20632658  0.84925269  1  0  0.081922  0  3.772722  0  0  0.085798  0  4.014336  0  0  0.086154  0  4.035279  0  0  0.112633  0.085486  0  3.999922  0
C  C74  1  0.28984033  0.20632695  0.34925585  1  0  0.08199  0  3.772918  0  0  0.085906  0  4.014478  0  0  0.086265  0  4.03542  0  0  0.11264  0.085601  0  4.000066  0
C  C75  1  0.78984856  0.79367119  0.15074687  1  0  0.081764  0  3.772926  0  0  0.085773  0  4.014378  0  0  0.086126  0  4.035323  0  0  0.112523  0.085463  0  3.999956  0
C  C76  1  0.61703451  0.60979526  0.61907010  1  0  0.139947  0  3.66538  0  0  0.108811  0  3.917406  0  0  0.115431  0  3.933912  0  0  0.056814  0.104477  0  3.906133  0
C  C77  1  0.11704343  0.39020550  0.88092582  1  0  0.139802  0  3.665635  0  0  0.108569  0  3.917665  0  0  0.115185  0  3.934174  0  0  0.056681  0.104241  0  3.906388  0
C  C78  1  0.38295333  0.39020508  0.38092660  1  0  0.139875  0  3.665662  0  0  0.108671  0  3.91771  0  0  0.115288  0  3.93422  0  0  0.056724  0.104344  0  3.906434  0
C  C79  1  0.88296577  0.60979572  0.11907260  1  0  0.140072  0  3.6654  0  0  0.10891  0  3.917446  0  0  0.11553  0  3.933951  0  0  0.05686  0.104573  0  3.906186  0
C  C80  1  0.75084750  0.56054748  0.57159178  1  0  -0.087194  0  3.690072  0  0  -0.10475  0  3.949207  0  0  -0.1097  0  3.967552  0  0  -0.069226  -0.101269  0  3.936673  0
C  C81  1  0.25086104  0.43945083  0.92840564  1  0  -0.087184  0  3.690166  0  0  -0.104717  0  3.949291  0  0  -0.109669  0  3.967632  0  0  -0.06922  -0.101227  0  3.936756  0
C  C82  1  0.24914258  0.43944942  0.42840388  1  0  -0.087127  0  3.690116  0  0  -0.104702  0  3.949257  0  0  -0.109653  0  3.967602  0  0  -0.069213  -0.101212  0  3.93672  0
C  C83  1  0.74914817  0.56055038  0.07159278  1  0  -0.087316  0  3.690231  0  0  -0.104877  0  3.949393  0  0  -0.109824  0  3.967737  0  0  -0.069268  -0.101393  0  3.936867  0
C  C84  1  0.86878646  0.63218510  0.56537398  1  0  0.008705  0  3.712129  0  0  -0.013137  0  3.973002  0  0  -0.009561  0  3.989749  0  0  -0.059149  -0.015517  0  3.961288  0
C  C85  1  0.36879540  0.36781160  0.93462155  1  0  0.008596  0  3.712194  0  0  -0.013251  0  3.973057  0  0  -0.00968  0  3.989806  0  0  -0.059138  -0.015633  0  3.961338  0
C  C86  1  0.13120251  0.36781181  0.43462532  1  0  0.008658  0  3.711997  0  0  -0.013166  0  3.972856  0  0  -0.009591  0  3.989604  0  0  -0.059099  -0.015548  0  3.961141  0
C  C87  1  0.63121493  0.63218530  0.06537337  1  0  0.008713  0  3.712153  0  0  -0.013139  0  3.973019  0  0  -0.009564  0  3.989763  0  0  -0.059151  -0.015522  0  3.961307  0
C  C88  1  0.84836956  0.75100721  0.60586265  1  0  -0.111523  0  3.689829  0  0  -0.136565  0  3.94369  0  0  -0.141434  0  3.963924  0  0  -0.073359  -0.133039  0  3.9304  0
C  C89  1  0.34838055  0.24898947  0.89413286  1  0  -0.111365  0  3.689631  0  0  -0.136336  0  3.943448  0  0  -0.141198  0  3.963666  0  0  -0.07338  -0.132813  0  3.930166  0
C  C90  1  0.15162165  0.24898970  0.39413592  1  0  -0.111463  0  3.689757  0  0  -0.136466  0  3.943606  0  0  -0.14133  0  3.96383  0  0  -0.073386  -0.132939  0  3.930324  0
C  C91  1  0.65162978  0.75100830  0.10586379  1  0  -0.11149  0  3.689676  0  0  -0.136532  0  3.943545  0  0  -0.141399  0  3.963782  0  0  -0.073379  -0.133017  0  3.930264  0
C  C92  1  0.18062775  0.59358427  0.70886941  1  0  0.593877  0  3.961298  0  0  0.543779  0  4.263785  0  0  0.576754  0  4.255383  0  0  0.207518  0.521553  0  4.268637  0
C  C93  1  0.68062662  0.40641828  0.79113073  1  0  0.593932  0  3.961024  0  0  0.543828  0  4.263533  0  0  0.576804  0  4.255128  0  0  0.2076  0.5216  0  4.268381  0
C  C94  1  0.81937583  0.40641781  0.29113146  1  0  0.59389  0  3.961212  0  0  0.543786  0  4.263728  0  0  0.576762  0  4.255329  0  0  0.207575  0.521566  0  4.268581  0
C  C95  1  0.31937472  0.59358551  0.20886775  1  0  0.593852  0  3.961262  0  0  0.543725  0  4.263769  0  0  0.576702  0  4.255364  0  0  0.2075  0.521497  0  4.268616  0
C  C96  1  0.07496141  0.67927411  0.78165751  1  0  0.083342  0  3.772469  0  0  0.088718  0  4.005624  0  0  0.089531  0  4.026549  0  0  0.112098  0.087514  0  3.991431  0
C  C97  1  0.57496345  0.32072575  0.71834031  1  0  0.083287  0  3.772472  0  0  0.08868  0  4.005661  0  0  0.089494  0  4.026587  0  0  0.112051  0.087481  0  3.991459  0
C  C98  1  0.92503655  0.32072796  0.21834044  1  0  0.083356  0  3.772495  0  0  0.088731  0  4.005722  0  0  0.089545  0  4.026645  0  0  0.11206  0.087533  0  3.991528  0
C  C99  1  0.42504125  0.67927374  0.28165687  1  0  0.083377  0  3.772523  0  0  0.088788  0  4.005639  0  0  0.0896  0  4.026565  0  0  0.112101  0.087588  0  3.991444  0
C  C100  1  0.02105674  0.86982040  0.87503536  1  0  0.139741  0  3.701197  0  0  0.106363  0  3.95738  0  0  0.113889  0  3.973473  0  0  0.051772  0.102368  0  3.94517  0
C  C101  1  0.52106181  0.13017855  0.62496361  1  0  0.139901  0  3.701159  0  0  0.106518  0  3.957368  0  0  0.114052  0  3.97346  0  0  0.051845  0.102516  0  3.945157  0
C  C102  1  0.97893560  0.13017909  0.12496472  1  0  0.139923  0  3.701241  0  0  0.106506  0  3.957486  0  0  0.114045  0  3.973575  0  0  0.051835  0.102515  0  3.945273  0
C  C103  1  0.47894515  0.86982008  0.37503548  1  0  0.139757  0  3.701148  0  0  0.106382  0  3.957326  0  0  0.113909  0  3.973419  0  0  0.051771  0.102385  0  3.945123  0
C  C104  1  0.88569881  0.83958137  0.91000528  1  0  -0.12841  0  3.721401  0  0  -0.141829  0  3.977528  0  0  -0.148383  0  3.997285  0  0  -0.084372  -0.13716  0  3.964008  0
C  C105  1  0.38570036  0.16041966  0.58999448  1  0  -0.128456  0  3.721457  0  0  -0.141872  0  3.977571  0  0  -0.148427  0  3.997329  0  0  -0.08438  -0.13721  0  3.964066  0
C  C106  1  0.11429466  0.16041640  0.08999501  1  0  -0.128426  0  3.721474  0  0  -0.141835  0  3.977601  0  0  -0.14839  0  3.997358  0  0  -0.084397  -0.137162  0  3.964081  0
C  C107  1  0.61430434  0.83958070  0.41000587  1  0  -0.128481  0  3.721429  0  0  -0.14191  0  3.977562  0  0  -0.148466  0  3.99732  0  0  -0.084414  -0.137244  0  3.964045  0
C  C108  1  0.84536510  0.72350861  0.87876583  1  0  0.005059  0  3.699987  0  0  -0.015899  0  3.950275  0  0  -0.012159  0  3.968167  0  0  -0.063654  -0.018591  0  3.937392  0
C  C109  1  0.34536797  0.27648892  0.62123140  1  0  0.005094  0  3.700013  0  0  -0.015834  0  3.950283  0  0  -0.012095  0  3.968176  0  0  -0.063592  -0.01853  0  3.937417  0
C  C110  1  0.15463286  0.27648915  0.12123154  1  0  0.005014  0  3.699898  0  0  -0.01591  0  3.950188  0  0  -0.012171  0  3.968075  0  0  -0.063617  -0.018606  0  3.9373  0
C  C111  1  0.65463786  0.72350970  0.37876697  1  0  0.005158  0  3.699952  0  0  -0.015781  0  3.950218  0  0  -0.012041  0  3.96811  0  0  -0.063613  -0.018473  0  3.937336  0
C  C112  1  0.94181979  0.64211134  0.81361145  1  0  -0.108973  0  3.697143  0  0  -0.128652  0  3.942763  0  0  -0.134158  0  3.963232  0  0  -0.073567  -0.125565  0  3.930457  0
C  C113  1  0.44181947  0.35788888  0.68638518  1  0  -0.109032  0  3.69721  0  0  -0.128757  0  3.942857  0  0  -0.134255  0  3.96333  0  0  -0.073596  -0.125673  0  3.93056  0
C  C114  1  0.05817816  0.35788729  0.18638545  1  0  -0.108967  0  3.69725  0  0  -0.128711  0  3.942914  0  0  -0.134197  0  3.963397  0  0  -0.073593  -0.125623  0  3.93061  0
C  C115  1  0.55818299  0.64211147  0.31361080  1  0  -0.109202  0  3.697288  0  0  -0.128888  0  3.942902  0  0  -0.1344  0  3.963366  0  0  -0.073618  -0.125802  0  3.930604  0
N  N116  1  0.59689648  0.72448519  0.65816923  1  0  -0.333214  0  3.227129  0  0  -0.260944  0  3.459459  0  0  -0.2775  0  3.482043  0  0  -0.282182  -0.249179  0  3.443724  0
N  N117  1  0.09690520  0.27551469  0.84182934  1  0  -0.333171  0  3.227262  0  0  -0.260785  0  3.459587  0  0  -0.277339  0  3.482173  0  0  -0.282085  -0.249017  0  3.443846  0
N  N118  1  0.40309361  0.27551344  0.34182987  1  0  -0.333174  0  3.227162  0  0  -0.260767  0  3.459432  0  0  -0.277323  0  3.482017  0  0  -0.282052  -0.249  0  3.443697  0
N  N119  1  0.90310176  0.72448739  0.15817081  1  0  -0.333183  0  3.227106  0  0  -0.260874  0  3.459424  0  0  -0.277431  0  3.48201  0  0  -0.28214  -0.249113  0  3.443687  0
N  N120  1  0.11407169  0.79128913  0.81193714  1  0  -0.339279  0  3.246824  0  0  -0.266441  0  3.484069  0  0  -0.283119  0  3.505723  0  0  -0.284603  -0.253776  0  3.467226  0
N  N121  1  0.61407243  0.20871336  0.68806223  1  0  -0.339287  0  3.246862  0  0  -0.266446  0  3.484076  0  0  -0.283128  0  3.505731  0  0  -0.284556  -0.253777  0  3.467225  0
N  N122  1  0.88592515  0.20871295  0.18806228  1  0  -0.339382  0  3.246793  0  0  -0.266538  0  3.484063  0  0  -0.283222  0  3.50572  0  0  -0.284594  -0.253874  0  3.46723  0
N  N123  1  0.38593115  0.79128872  0.31193719  1  0  -0.339239  0  3.246827  0  0  -0.266405  0  3.484045  0  0  -0.283085  0  3.505702  0  0  -0.284549  -0.253741  0  3.467207  0
O  O124  1  0.56033678  0.95636490  0.74331322  1  0  -0.600958  0  2.038828  0  0  -0.536417  0  2.27645  0  0  -0.562395  0  2.270383  0  0  -0.276838  -0.518437  0  2.280289  0
O  O125  1  0.06033724  0.04363411  0.75669307  1  0  -0.600977  0  2.038788  0  0  -0.53648  0  2.276451  0  0  -0.562469  0  2.270408  0  0  -0.276873  -0.518488  0  2.280287  0
O  O126  1  0.43966005  0.04363462  0.25669342  1  0  -0.6009  0  2.038809  0  0  -0.53636  0  2.276452  0  0  -0.562348  0  2.270412  0  0  -0.276819  -0.518378  0  2.280297  0
O  O127  1  0.93966410  0.95636626  0.24331457  1  0  -0.600941  0  2.038868  0  0  -0.536422  0  2.276499  0  0  -0.562388  0  2.270409  0  0  -0.27687  -0.518473  0  2.280351  0
O  O128  1  0.77709747  0.98464746  0.66901886  1  0  -0.614982  0  2.058535  0  0  -0.550191  0  2.305359  0  0  -0.576314  0  2.297364  0  0  -0.28358  -0.531732  0  2.31058  0
O  O129  1  0.27710246  0.01535433  0.83098474  1  0  -0.615095  0  2.05866  0  0  -0.550282  0  2.305459  0  0  -0.576417  0  2.297488  0  0  -0.283671  -0.531817  0  2.310682  0
O  O130  1  0.22289712  0.01535377  0.33098686  1  0  -0.615111  0  2.05854  0  0  -0.550294  0  2.305382  0  0  -0.576422  0  2.297393  0  0  -0.283693  -0.531833  0  2.310603  0
O  O131  1  0.72290337  0.98464777  0.16902197  1  0  -0.614932  0  2.058624  0  0  -0.550174  0  2.305464  0  0  -0.576306  0  2.297483  0  0  -0.283557  -0.531739  0  2.310697  0
O  O132  1  0.30779858  0.63453504  0.69080880  1  0  -0.644104  0  2.083611  0  0  -0.575746  0  2.330177  0  0  -0.603587  0  2.322577  0  0  -0.292946  -0.556218  0  2.334553  0
O  O133  1  0.80779965  0.36547108  0.80919030  1  0  -0.644114  0  2.083503  0  0  -0.575799  0  2.330135  0  0  -0.603639  0  2.322533  0  0  -0.293019  -0.556294  0  2.334521  0
O  O134  1  0.69220163  0.36547306  0.30919027  1  0  -0.644089  0  2.08345  0  0  -0.57578  0  2.330103  0  0  -0.603614  0  2.32249  0  0  -0.293  -0.556273  0  2.334494  0
O  O135  1  0.19220618  0.63453358  0.19080845  1  0  -0.644109  0  2.083714  0  0  -0.575722  0  2.330278  0  0  -0.603562  0  2.322674  0  0  -0.292929  -0.556205  0  2.334654  0
O  O136  1  0.14001968  0.49127383  0.67107783  1  0  -0.571582  0  1.920712  0  0  -0.532822  0  2.14655  0  0  -0.554709  0  2.140747  0  0  -0.309866  -0.517819  0  2.150141  0
O  O137  1  0.64000860  0.50872955  0.82892327  1  0  -0.571626  0  1.920583  0  0  -0.532863  0  2.146451  0  0  -0.554754  0  2.140653  0  0  -0.309921  -0.517856  0  2.150035  0
O  O138  1  0.85999514  0.50872654  0.32892616  1  0  -0.571605  0  1.920717  0  0  -0.53283  0  2.146563  0  0  -0.554719  0  2.140762  0  0  -0.309875  -0.517815  0  2.150149  0
O  O139  1  0.35998598  0.49127252  0.17107396  1  0  -0.571582  0  1.920577  0  0  -0.53283  0  2.146442  0  0  -0.55472  0  2.140645  0  0  -0.3099  -0.517838  0  2.150037  0
