# generated using pymatgen
data_AgH14C14N5O2
_symmetry_space_group_name_H-M   'P 1'
_cell_length_a   4.89490774
_cell_length_b   7.33697293
_cell_length_c   20.39686969
_cell_angle_alpha   90.00004087
_cell_angle_beta   93.71002723
_cell_angle_gamma   90.00015926
_symmetry_Int_Tables_number   1
_chemical_formula_structural   AgH14C14N5O2
_chemical_formula_sum   'Ag2 H28 C28 N10 O4'
_cell_volume   730.99405807
_cell_formula_units_Z   2
loop_
 _symmetry_equiv_pos_site_id
 _symmetry_equiv_pos_as_xyz
  1  'x, y, z'
loop_
 _atom_site_type_symbol
 _atom_site_label
 _atom_site_symmetry_multiplicity
 _atom_site_fract_x
 _atom_site_fract_y
 _atom_site_fract_z
 _atom_site_occupancy
 _atom_site_hle17_bader_spin_density
 _atom_site_hle17_ddec_charge
 _atom_site_hle17_ddec_spin_density
 _atom_site_hle17_ddec_sum_bond_order
 _atom_site_hle17_magmom
 _atom_site_hse06_10hf_bader_spin_density
 _atom_site_hse06_10hf_ddec_charge
 _atom_site_hse06_10hf_ddec_spin_density
 _atom_site_hse06_10hf_ddec_sum_bond_order
 _atom_site_hse06_10hf_magmom
 _atom_site_hse06_bader_spin_density
 _atom_site_hse06_ddec_charge
 _atom_site_hse06_ddec_spin_density
 _atom_site_hse06_ddec_sum_bond_order
 _atom_site_hse06_magmom
 _atom_site_pbe_bader_spin_density
 _atom_site_pbe_cm5_charge
 _atom_site_pbe_ddec_charge
 _atom_site_pbe_ddec_spin_density
 _atom_site_pbe_ddec_sum_bond_order
 _atom_site_pbe_magmom
Ag  Ag0  1  0.75000436  0.19250541  0.25000012  1  0  0.472413  0  1.458428  0  0  0.320043  0  1.895259  0  0  0.350169  0  1.856043  0  0  0.445504  0.300014  0  1.921981  0
Ag  Ag1  1  0.24999971  0.80749479  0.74999850  1  0  0.472362  0  1.45849  0  0  0.319978  0  1.895339  0  0  0.350103  0  1.856122  0  0  0.445498  0.299953  0  1.92206  0
H  H2  1  0.27965578  0.36050741  0.15875837  1  0  0.087678  0  0.936278  0  0  0.095372  0  0.99978  0  0  0.098469  0  0.996639  0  0  0.114416  0.092971  0  1.002321  0
H  H3  1  0.22034980  0.36050754  0.34124224  1  0  0.087683  0  0.936231  0  0  0.095363  0  0.999745  0  0  0.098457  0  0.996607  0  0  0.114416  0.092962  0  1.002285  0
H  H4  1  0.72034011  0.63949006  0.84124208  1  0  0.087693  0  0.936219  0  0  0.095372  0  0.999739  0  0  0.098469  0  0.996596  0  0  0.114415  0.092973  0  1.00228  0
H  H5  1  0.77965632  0.63948857  0.65875689  1  0  0.087698  0  0.936195  0  0  0.095363  0  0.999744  0  0  0.09846  0  0.996601  0  0  0.114408  0.092961  0  1.002285  0
H  H6  1  0.88242066  0.25845218  0.08382140  1  0  0.110966  0  0.94978  0  0  0.119633  0  1.01168  0  0  0.123394  0  1.009351  0  0  0.110556  0.11689  0  1.013595  0
H  H7  1  0.61758834  0.25844955  0.41617836  1  0  0.110932  0  0.949772  0  0  0.119588  0  1.011701  0  0  0.123353  0  1.00937  0  0  0.110536  0.116844  0  1.013615  0
H  H8  1  0.11757932  0.74155211  0.91617813  1  0  0.110939  0  0.949788  0  0  0.119594  0  1.011703  0  0  0.123359  0  1.009371  0  0  0.110544  0.116853  0  1.013618  0
H  H9  1  0.38241369  0.74155065  0.58382169  1  0  0.110947  0  0.949757  0  0  0.119597  0  1.011669  0  0  0.123363  0  1.009339  0  0  0.110539  0.116854  0  1.013583  0
H  H10  1  0.11541771  0.70421028  0.13162729  1  0  0.109828  0  0.948595  0  0  0.122671  0  1.004372  0  0  0.125617  0  1.004032  0  0  0.110491  0.120493  0  1.004852  0
H  H11  1  0.38457500  0.70420805  0.36837272  1  0  0.109826  0  0.948594  0  0  0.122645  0  1.004401  0  0  0.125591  0  1.004061  0  0  0.11051  0.120475  0  1.004874  0
H  H12  1  0.88458022  0.29579264  0.86837172  1  0  0.109832  0  0.948553  0  0  0.12265  0  1.004358  0  0  0.125596  0  1.004017  0  0  0.110513  0.120479  0  1.004835  0
H  H13  1  0.61541680  0.29579078  0.63162815  1  0  0.109824  0  0.948588  0  0  0.12265  0  1.004381  0  0  0.125596  0  1.004039  0  0  0.110496  0.120476  0  1.004858  0
H  H14  1  0.49784703  0.82783935  0.20365772  1  0  0.06893  0  1.000795  0  0  0.063533  0  1.089942  0  0  0.066951  0  1.086028  0  0  0.107438  0.060891  0  1.092862  0
H  H15  1  0.00214825  0.82783899  0.29634236  1  0  0.068984  0  1.000704  0  0  0.063556  0  1.089896  0  0  0.066974  0  1.085982  0  0  0.107451  0.060914  0  1.092817  0
H  H16  1  0.50215295  0.17216084  0.79634181  1  0  0.068967  0  1.000771  0  0  0.06354  0  1.08995  0  0  0.066957  0  1.086037  0  0  0.107449  0.060899  0  1.092867  0
H  H17  1  0.99784559  0.17216257  0.70365757  1  0  0.06901  0  1.000766  0  0  0.063579  0  1.089942  0  0  0.066998  0  1.086029  0  0  0.107455  0.06094  0  1.092857  0
H  H18  1  0.53842608  0.67774459  0.00802553  1  0  0.127644  0  0.966553  0  0  0.141762  0  1.033666  0  0  0.14506  0  1.031303  0  0  0.094946  0.139351  0  1.035387  0
H  H19  1  0.96157242  0.67774412  0.49197565  1  0  0.127684  0  0.96654  0  0  0.141785  0  1.033672  0  0  0.145084  0  1.031308  0  0  0.094957  0.139375  0  1.03539  0
H  H20  1  0.46157799  0.32225697  0.99197505  1  0  0.127704  0  0.966546  0  0  0.141826  0  1.033648  0  0  0.145124  0  1.031284  0  0  0.094969  0.139415  0  1.035369  0
H  H21  1  0.03842756  0.32225471  0.50802486  1  0  0.127671  0  0.966559  0  0  0.141797  0  1.033668  0  0  0.145097  0  1.031303  0  0  0.094962  0.139386  0  1.035388  0
H  H22  1  0.68338045  0.63741892  0.09037403  1  0  0.135234  0  0.962818  0  0  0.152118  0  1.028781  0  0  0.154825  0  1.02704  0  0  0.095886  0.149994  0  1.030139  0
H  H23  1  0.81662198  0.63741528  0.40962671  1  0  0.135187  0  0.962891  0  0  0.15209  0  1.028835  0  0  0.154794  0  1.027097  0  0  0.095875  0.149963  0  1.030195  0
H  H24  1  0.31662567  0.36258401  0.90962609  1  0  0.135198  0  0.962898  0  0  0.152086  0  1.028855  0  0  0.154791  0  1.027116  0  0  0.095883  0.149964  0  1.030213  0
H  H25  1  0.18337801  0.36258492  0.59037331  1  0  0.135188  0  0.962884  0  0  0.152089  0  1.028834  0  0  0.154795  0  1.027095  0  0  0.095878  0.149963  0  1.030192  0
H  H26  1  0.89897505  0.64639959  0.02397028  1  0  0.118951  0  0.940478  0  0  0.142385  0  0.998298  0  0  0.143448  0  0.998312  0  0  0.095981  0.141568  0  0.998322  0
H  H27  1  0.60102537  0.64639978  0.47602994  1  0  0.118956  0  0.940468  0  0  0.142395  0  0.99828  0  0  0.143458  0  0.998293  0  0  0.095984  0.141578  0  0.998303  0
H  H28  1  0.10102902  0.35360061  0.97602931  1  0  0.118972  0  0.940509  0  0  0.142413  0  0.99832  0  0  0.143476  0  0.998334  0  0  0.095988  0.141598  0  0.998341  0
H  H29  1  0.39897462  0.35359905  0.52397008  1  0  0.118956  0  0.940566  0  0  0.142407  0  0.998355  0  0  0.14347  0  0.998369  0  0  0.095996  0.14159  0  0.998377  0
C  C30  1  0.23542684  0.21640433  0.15065074  1  0  0.107847  0  3.716519  0  0  0.077237  0  3.97491  0  0  0.0845  0  3.989666  0  0  0.036086  0.072368  0  3.965221  0
C  C31  1  0.26458018  0.21640320  0.34935085  1  0  0.107887  0  3.716306  0  0  0.077299  0  3.974689  0  0  0.084563  0  3.989443  0  0  0.03607  0.072434  0  3.964999  0
C  C32  1  0.76457519  0.78359586  0.84934883  1  0  0.107815  0  3.716409  0  0  0.077222  0  3.974809  0  0  0.084486  0  3.989564  0  0  0.03608  0.072356  0  3.965123  0
C  C33  1  0.73542389  0.78359427  0.65064973  1  0  0.107771  0  3.716372  0  0  0.077154  0  3.974784  0  0  0.084417  0  3.989541  0  0  0.036033  0.072287  0  3.965094  0
C  C34  1  0.01689219  0.15934786  0.10897558  1  0  -0.130665  0  3.713375  0  0  -0.151943  0  3.970906  0  0  -0.157494  0  3.988778  0  0  -0.078385  -0.148437  0  3.95913  0
C  C35  1  0.48311048  0.15934177  0.39102445  1  0  -0.130656  0  3.713394  0  0  -0.151983  0  3.970895  0  0  -0.157537  0  3.988761  0  0  -0.078387  -0.148475  0  3.959114  0
C  C36  1  0.98310983  0.84065506  0.89102349  1  0  -0.130656  0  3.713465  0  0  -0.151948  0  3.970962  0  0  -0.157502  0  3.98883  0  0  -0.0784  -0.148442  0  3.959188  0
C  C37  1  0.51688950  0.84065570  0.60897606  1  0  -0.130632  0  3.713516  0  0  -0.151892  0  3.970985  0  0  -0.157448  0  3.988856  0  0  -0.078368  -0.148385  0  3.959201  0
C  C38  1  0.96973601  0.97197406  0.09900040  1  0  0.048499  0  3.733094  0  0  0.05797  0  3.969961  0  0  0.060753  0  3.99154  0  0  0.010173  0.056281  0  3.955361  0
C  C39  1  0.53026169  0.97196851  0.40099888  1  0  0.048402  0  3.733389  0  0  0.058061  0  3.970076  0  0  0.060845  0  3.991655  0  0  0.010182  0.056375  0  3.955475  0
C  C40  1  0.03026192  0.02802750  0.90099861  1  0  0.048411  0  3.733326  0  0  0.058023  0  3.970101  0  0  0.060806  0  3.99168  0  0  0.010175  0.056339  0  3.955503  0
C  C41  1  0.46973625  0.02802624  0.59900209  1  0  0.048406  0  3.733422  0  0  0.057995  0  3.970164  0  0  0.060777  0  3.991745  0  0  0.010164  0.056311  0  3.955557  0
C  C42  1  0.14412447  0.85105289  0.13479786  1  0  -0.123538  0  3.661326  0  0  -0.143431  0  3.906223  0  0  -0.150355  0  3.927424  0  0  -0.076618  -0.139096  0  3.892323  0
C  C43  1  0.35587296  0.85104923  0.36520324  1  0  -0.123533  0  3.661378  0  0  -0.143445  0  3.906252  0  0  -0.150367  0  3.927451  0  0  -0.076634  -0.139117  0  3.892356  0
C  C44  1  0.85587142  0.14894867  0.86520259  1  0  -0.123508  0  3.661341  0  0  -0.143401  0  3.906208  0  0  -0.150324  0  3.927409  0  0  -0.076609  -0.139073  0  3.892313  0
C  C45  1  0.64412293  0.14894824  0.63479819  1  0  -0.123482  0  3.661343  0  0  -0.143393  0  3.906208  0  0  -0.150315  0  3.927407  0  0  -0.076617  -0.139064  0  3.892309  0
C  C46  1  0.35778114  0.91914388  0.17591129  1  0  0.112757  0  3.711848  0  0  0.085783  0  3.963949  0  0  0.091663  0  3.983154  0  0  0.03677  0.081977  0  3.951138  0
C  C47  1  0.14221658  0.91914383  0.32408885  1  0  0.112786  0  3.711701  0  0  0.085808  0  3.963847  0  0  0.091689  0  3.983048  0  0  0.036774  0.081998  0  3.951055  0
C  C48  1  0.64221680  0.08085904  0.82408821  1  0  0.11273  0  3.711753  0  0  0.085778  0  3.963871  0  0  0.091659  0  3.983072  0  0  0.036744  0.081965  0  3.95109  0
C  C49  1  0.85778545  0.08085773  0.67591120  1  0  0.112576  0  3.711832  0  0  0.085627  0  3.963944  0  0  0.091508  0  3.983146  0  0  0.036706  0.081811  0  3.95116  0
C  C50  1  0.74819142  0.90561810  0.05244985  1  0  0.272884  0  3.650635  0  0  0.275075  0  3.908273  0  0  0.283268  0  3.92449  0  0  0.151355  0.269193  0  3.897378  0
C  C51  1  0.75181009  0.90561579  0.44754947  1  0  0.273018  0  3.650447  0  0  0.275055  0  3.908212  0  0  0.283247  0  3.924429  0  0  0.151412  0.269171  0  3.897313  0
C  C52  1  0.25181060  0.09438210  0.94754873  1  0  0.273108  0  3.650349  0  0  0.275107  0  3.90819  0  0  0.283299  0  3.924407  0  0  0.151413  0.26922  0  3.897298  0
C  C53  1  0.24818784  0.09438305  0.55245101  1  0  0.273037  0  3.650423  0  0  0.275104  0  3.908181  0  0  0.283296  0  3.924398  0  0  0.151414  0.269217  0  3.897284  0
C  C54  1  0.71229624  0.70460737  0.04300964  1  0  -0.394361  0  3.714992  0  0  -0.473236  0  3.948446  0  0  -0.476875  0  3.954132  0  0  -0.245476  -0.470293  0  3.944636  0
C  C55  1  0.78770852  0.70460378  0.45699066  1  0  -0.394409  0  3.714996  0  0  -0.473256  0  3.94849  0  0  -0.476892  0  3.954176  0  0  -0.245511  -0.470312  0  3.944678  0
C  C56  1  0.28771193  0.29539692  0.95699002  1  0  -0.394481  0  3.715035  0  0  -0.473319  0  3.948539  0  0  -0.476956  0  3.954225  0  0  -0.24552  -0.470377  0  3.944728  0
C  C57  1  0.21229351  0.29539506  0.54300939  1  0  -0.394399  0  3.715095  0  0  -0.473278  0  3.948555  0  0  -0.476917  0  3.954243  0  0  -0.245528  -0.470333  0  3.944743  0
N  N58  1  0.40640359  0.09877700  0.18347292  1  0  -0.293989  0  3.342748  0  0  -0.210931  0  3.621496  0  0  -0.229182  0  3.638831  0  0  -0.346909  -0.198679  0  3.609599  0
N  N59  1  0.09359269  0.09877821  0.31652797  1  0  -0.294068  0  3.342716  0  0  -0.210995  0  3.62145  0  0  -0.229244  0  3.63878  0  0  -0.346906  -0.198752  0  3.609561  0
N  N60  1  0.59359229  0.90122184  0.81652605  1  0  -0.293995  0  3.342715  0  0  -0.210937  0  3.621457  0  0  -0.229188  0  3.63879  0  0  -0.346894  -0.198687  0  3.609561  0
N  N61  1  0.90640934  0.90121927  0.68347159  1  0  -0.293847  0  3.342668  0  0  -0.210765  0  3.621368  0  0  -0.229014  0  3.638702  0  0  -0.346834  -0.198519  0  3.609473  0
N  N62  1  0.60163139  0.03203832  0.02183209  1  0  -0.244655  0  3.039928  0  0  -0.218462  0  3.321201  0  0  -0.229062  0  3.34106  0  0  -0.206924  -0.211248  0  3.307813  0
N  N63  1  0.89836846  0.03203770  0.47816748  1  0  -0.244626  0  3.039841  0  0  -0.218409  0  3.321192  0  0  -0.229007  0  3.341049  0  0  -0.206932  -0.211192  0  3.3078  0
N  N64  1  0.39837063  0.96796325  0.97816649  1  0  -0.244627  0  3.03976  0  0  -0.218392  0  3.321134  0  0  -0.22899  0  3.340989  0  0  -0.206905  -0.211173  0  3.307746  0
N  N65  1  0.10162743  0.96796250  0.52183346  1  0  -0.244656  0  3.039843  0  0  -0.218438  0  3.32117  0  0  -0.229037  0  3.341029  0  0  -0.206915  -0.211221  0  3.30778  0
N  N66  1  0.75000319  0.60278770  0.25000064  1  0  0.196024  0  3.285645  0  0  0.205023  0  3.600843  0  0  0.2244  0  3.603058  0  0  -0.068514  0.192872  0  3.597886  0
N  N67  1  0.25000089  0.39721114  0.74999993  1  0  0.19599  0  3.285627  0  0  0.204982  0  3.600839  0  0  0.224356  0  3.603061  0  0  -0.068527  0.192832  0  3.597883  0
O  O68  1  0.72965623  0.51075921  0.19723460  1  0  -0.448274  0  1.946073  0  0  -0.398109  0  2.201364  0  0  -0.422308  0  2.196777  0  0  -0.198302  -0.380708  0  2.203438  0
O  O69  1  0.77034566  0.51076208  0.30276708  1  0  -0.448258  0  1.946134  0  0  -0.398082  0  2.201419  0  0  -0.422282  0  2.19683  0  0  -0.198293  -0.380678  0  2.203489  0
O  O70  1  0.27034171  0.48923827  0.80276588  1  0  -0.448225  0  1.946085  0  0  -0.398058  0  2.201362  0  0  -0.422253  0  2.196776  0  0  -0.198288  -0.380657  0  2.203438  0
O  O71  1  0.22966046  0.48923812  0.69723353  1  0  -0.448267  0  1.946122  0  0  -0.39808  0  2.201408  0  0  -0.42228  0  2.196819  0  0  -0.198296  -0.380673  0  2.203473  0
