# generated using pymatgen
data_Co3H34C34N10(ClO3)2
_symmetry_space_group_name_H-M   'P 1'
_cell_length_a   9.25432365
_cell_length_b   11.37965751
_cell_length_c   11.75015288
_cell_angle_alpha   66.75995371
_cell_angle_beta   70.87080769
_cell_angle_gamma   90.19917268
_symmetry_Int_Tables_number   1
_chemical_formula_structural   Co3H34C34N10(ClO3)2
_chemical_formula_sum   'Co3 H34 C34 N10 Cl2 O6'
_cell_volume   1061.59260928
_cell_formula_units_Z   1
loop_
 _symmetry_equiv_pos_site_id
 _symmetry_equiv_pos_as_xyz
  1  'x, y, z'
loop_
 _atom_site_type_symbol
 _atom_site_label
 _atom_site_symmetry_multiplicity
 _atom_site_fract_x
 _atom_site_fract_y
 _atom_site_fract_z
 _atom_site_occupancy
 _atom_site_hse06_10hf_ddec_charge
 _atom_site_hse06_10hf_ddec_spin_density
 _atom_site_hse06_10hf_ddec_sum_bond_order
 _atom_site_hse06_10hf_magmom
 _atom_site_hse06_ddec_charge
 _atom_site_hse06_ddec_spin_density
 _atom_site_hse06_ddec_sum_bond_order
 _atom_site_hse06_magmom
 _atom_site_pbe_cm5_charge
 _atom_site_pbe_ddec_charge
 _atom_site_pbe_ddec_spin_density
 _atom_site_pbe_ddec_sum_bond_order
 _atom_site_pbe_magmom
Co  Co0  1  0.00328149  0.82804337  0.36125346  1  0.767582  2.798063  2.704975  2.538  0.869956  2.870031  2.610496  2.649  0.59504  0.672869  2.695535  2.787494  2.407
Co  Co1  1  0.99672361  0.17195624  0.63874017  1  0.767498  2.798066  2.705034  2.538  0.869865  2.870032  2.61056  2.649  0.595004  0.672775  2.695672  2.787564  2.407
Co  Co2  1  0.00000114  0.50000355  0.49999644  1  0.718663  -1.000176  2.948396  -0.92  0.794882  -1.040191  2.872673  -0.948  0.667831  0.697402  -0.862066  2.979814  -0.775
H  H3  1  0.30411672  0.79195980  0.38766354  1  0.091822  0.000792  1.018105  0.001  0.095812  0.000602  1.013848  0.001  0.117926  0.086788  0.000937  1.024031  0.002
H  H4  1  0.69588263  0.20803882  0.61234559  1  0.091822  0.000792  1.018116  0.001  0.095857  0.000602  1.013823  0.001  0.117939  0.086792  0.000937  1.024049  0.002
H  H5  1  0.52586221  0.92750593  0.38105959  1  0.116588  0.000728  1.050179  0.0  0.120964  0.000509  1.04808  0.0  0.09426  0.112503  0.000856  1.053544  0.001
H  H6  1  0.47413276  0.07249366  0.61895119  1  0.116614  0.000728  1.050085  0.0  0.120986  0.000509  1.047983  0.0  0.094298  0.112534  0.000856  1.053452  0.001
H  H7  1  0.49307523  0.14988939  0.36874086  1  0.119035  4.9e-05  0.977966  0.0  0.12222  4.1e-05  0.974943  0.0  0.113983  0.115497  -0.0  0.982275  0.0
H  H8  1  0.50691985  0.85011118  0.63126356  1  0.11902  4.9e-05  0.977865  0.0  0.122205  4.1e-05  0.974844  0.0  0.113966  0.11548  0.0  0.982167  0.0
H  H9  1  0.03800528  0.08713614  0.35887745  1  0.095603  0.000967  0.999758  0.001  0.098019  0.000695  0.998156  0.001  0.118868  0.093362  0.001172  1.001892  0.002
H  H10  1  0.96198826  0.91286250  0.64112385  1  0.09558  0.000967  0.999771  0.001  0.097994  0.000695  0.99818  0.001  0.118849  0.09334  0.001172  1.001898  0.002
H  H11  1  0.47025555  0.56193277  0.05112164  1  0.106112  0.000153  1.042974  0.0  0.109595  9.5e-05  1.039367  0.0  0.098861  0.103768  0.000221  1.045596  0.0
H  H12  1  0.52975551  0.43806778  0.94887601  1  0.10605  0.000153  1.043068  0.0  0.109534  9.5e-05  1.039457  0.0  0.098832  0.103694  0.000221  1.045702  0.0
H  H13  1  0.55162893  0.78726847  0.88134789  1  0.090436  7e-05  1.065064  0.0  0.091888  3.8e-05  1.066322  0.0  0.089404  0.090442  7.7e-05  1.062986  0.0
H  H14  1  0.44838044  0.21272919  0.11865045  1  0.090442  7e-05  1.0651  0.0  0.091894  3.8e-05  1.066361  0.0  0.089373  0.090451  7.7e-05  1.063014  0.0
H  H15  1  0.40413544  0.96152458  0.91752554  1  0.110172  3e-05  1.034637  0.0  0.112355  1.1e-05  1.033883  0.0  0.098326  0.109687  1.5e-05  1.034082  0.0
H  H16  1  0.59586972  0.03846922  0.08246857  1  0.110199  3e-05  1.034677  0.0  0.112401  1.1e-05  1.0339  0.0  0.098333  0.109713  1.6e-05  1.034113  0.0
H  H17  1  0.09207826  0.09456650  0.08392040  1  0.118804  -3.7e-05  0.990701  0.0  0.119577  -6.7e-05  0.989972  0.0  0.102613  0.118549  -8e-06  0.991139  0.0
H  H18  1  0.90792077  0.90543118  0.91607556  1  0.118787  -3.7e-05  0.990729  0.0  0.11956  -6.7e-05  0.989999  0.0  0.102621  0.11853  -8e-06  0.991165  0.0
H  H19  1  0.17632153  0.04874456  0.94915774  1  0.11044  0.000426  1.020263  0.0  0.112247  0.000272  1.018154  0.0  0.091754  0.108594  0.000568  1.022943  0.001
H  H20  1  0.82367944  0.95125117  0.05084015  1  0.110383  0.000426  1.020254  0.0  0.112189  0.000273  1.018145  0.0  0.09173  0.108533  0.000568  1.022931  0.001
H  H21  1  0.29835441  0.09584134  0.02147061  1  0.095402  0.0001  1.0238  0.0  0.095473  4e-05  1.024428  0.0  0.093205  0.095311  0.000196  1.023244  0.0
H  H22  1  0.70164538  0.90415439  0.97852418  1  0.095426  0.000101  1.02378  0.0  0.095495  4e-05  1.02441  0.0  0.093237  0.095333  0.000196  1.02322  0.0
H  H23  1  0.80336923  0.65367656  0.36970890  1  0.040875  0.00093  1.064037  0.0  0.041442  0.000729  1.058308  0.0  0.122885  0.041773  0.00134  1.067389  0.0
H  H24  1  0.19662428  0.34632788  0.63029531  1  0.040887  0.00093  1.064004  0.0  0.041449  0.000729  1.058286  0.0  0.122872  0.041786  0.00134  1.067361  0.0
H  H25  1  0.67805940  0.34568738  0.38485210  1  0.129622  -3.8e-05  1.004797  0.0  0.130717  -1e-06  1.004404  0.0  0.112368  0.129939  -7.5e-05  1.003677  0.0
H  H26  1  0.32193101  0.65431221  0.61516158  1  0.129635  -3.8e-05  1.00477  0.0  0.13073  -1e-06  1.004378  0.0  0.112362  0.129947  -7.5e-05  1.003646  0.0
H  H27  1  0.58834388  0.42224042  0.26483708  1  0.135228  3.7e-05  0.985589  0.0  0.1355  2e-05  0.985936  0.0  0.113065  0.135493  5.3e-05  0.985014  0.0
H  H28  1  0.41164677  0.57775434  0.73517667  1  0.13529  3.7e-05  0.98555  0.0  0.135567  2e-05  0.98589  0.0  0.113116  0.13555  5.3e-05  0.984977  0.0
H  H29  1  0.48229310  0.37547167  0.43594120  1  0.115107  -2e-06  1.004063  0.0  0.114399  -3e-06  1.005555  0.0  0.103139  0.11627  -7e-06  1.002214  0.0
H  H30  1  0.51770071  0.62452793  0.56406902  1  0.115053  -2e-06  1.004172  0.0  0.114345  -3e-06  1.005666  0.0  0.103095  0.116209  -6e-06  1.002321  0.0
H  H31  1  0.59983240  0.66414485  0.18297358  1  0.127422  4.5e-05  1.003379  0.0  0.127446  5.2e-05  1.004972  0.0  0.105803  0.127831  6.2e-05  1.001741  0.0
H  H32  1  0.40016364  0.33585475  0.81703011  1  0.127377  4.5e-05  1.003379  0.0  0.1274  5.2e-05  1.004974  0.0  0.105797  0.127791  6.1e-05  1.001737  0.0
H  H33  1  0.64249164  0.73691707  0.28131558  1  0.122413  3.3e-05  1.028919  0.0  0.123203  -2.3e-05  1.029021  0.0  0.10286  0.122433  9.3e-05  1.02846  0.0
H  H34  1  0.35750606  0.26308544  0.71868485  1  0.122393  3.3e-05  1.028945  0.0  0.123185  -2.3e-05  1.029045  0.0  0.102867  0.122416  9.3e-05  1.028493  0.0
H  H35  1  0.46151679  0.63423311  0.34121983  1  0.117316  6.1e-05  1.013935  0.0  0.117864  3.8e-05  1.014823  0.0  0.102505  0.116959  8.3e-05  1.013262  0.0
H  H36  1  0.53847953  0.36577423  0.65877998  1  0.117304  6.1e-05  1.013973  0.0  0.117859  3.8e-05  1.014858  0.0  0.102531  0.11695  8.2e-05  1.013302  0.0
C  C37  1  0.29695091  0.88994171  0.38106337  1  0.091902  -0.00267  3.915685  -0.004  0.1038  -0.001999  3.928848  -0.003  0.043252  0.079852  -0.00479  3.914856  -0.006
C  C38  1  0.70304501  0.11005691  0.61894582  1  0.091963  -0.002669  3.915651  -0.004  0.103817  -0.001999  3.928795  -0.003  0.043306  0.079916  -0.004789  3.914831  -0.006
C  C39  1  0.41772481  0.96471158  0.37904971  1  -0.121407  0.00365  3.972253  0.006  -0.128544  0.003121  3.988236  0.005  -0.082893  -0.118201  0.004086  3.967339  0.007
C  C40  1  0.58227103  0.03528705  0.62095354  1  -0.121501  0.003651  3.972075  0.006  -0.128632  0.003122  3.988066  0.005  -0.082958  -0.118299  0.004086  3.967175  0.007
C  C41  1  0.39990381  0.08880109  0.37164360  1  -0.044  -0.005276  3.908964  -0.006  -0.03471  -0.003495  3.918932  -0.004  -0.057629  -0.054083  -0.009479  3.908081  -0.011
C  C42  1  0.60010004  0.91119753  0.62835669  1  -0.043971  -0.005274  3.908837  -0.006  -0.034687  -0.003495  3.918805  -0.004  -0.057623  -0.054042  -0.009478  3.907942  -0.011
C  C43  1  0.26051442  0.13447951  0.36758200  1  -0.002803  0.003371  4.014614  0.005  -0.008694  0.002875  4.033506  0.004  0.008025  -0.000761  0.00383  4.005221  0.006
C  C44  1  0.73948810  0.86551815  0.63241900  1  -0.00283  0.003371  4.01455  0.005  -0.008718  0.002874  4.03344  0.004  0.007979  -0.000794  0.00383  4.00517  0.006
C  C45  1  0.14622476  0.05424065  0.36727140  1  0.044388  -0.001781  3.921802  -0.003  0.053668  -0.00149  3.937952  -0.003  0.049316  0.036232  -0.004177  3.914767  -0.006
C  C46  1  0.85377973  0.94576186  0.63272128  1  0.04446  -0.001781  3.921799  -0.003  0.053731  -0.00149  3.937952  -0.003  0.049391  0.036312  -0.004177  3.914756  -0.006
C  C47  1  0.23370237  0.26518653  0.35664555  1  0.274119  0.002232  4.111456  0.003  0.288101  0.001793  4.1296  0.003  0.206107  0.267406  0.002099  4.094865  0.003
C  C48  1  0.76629455  0.73481211  0.64335060  1  0.274203  0.002231  4.111467  0.003  0.288185  0.001793  4.129608  0.003  0.20611  0.267488  0.002099  4.094866  0.003
C  C49  1  0.24213757  0.46906252  0.28035508  1  0.297752  0.003362  4.041903  0.005  0.316455  0.002668  4.050764  0.004  0.205305  0.284255  0.003278  4.040106  0.004
C  C50  1  0.75786811  0.53093998  0.71964069  1  0.297671  0.003362  4.041984  0.005  0.316376  0.002666  4.050851  0.004  0.205241  0.284148  0.003279  4.040197  0.004
C  C51  1  0.28385553  0.60501044  0.18853480  1  -0.096062  0.006531  4.05352  0.008  -0.104036  0.004422  4.074804  0.006  -0.027021  -0.091117  0.008784  4.0412  0.011
C  C52  1  0.71615073  0.39498916  0.81146022  1  -0.096184  0.00653  4.053477  0.008  -0.104156  0.004418  4.074756  0.006  -0.027035  -0.091231  0.008781  4.041163  0.011
C  C53  1  0.40933050  0.63860926  0.06791652  1  -0.137207  -0.000797  4.062987  -0.001  -0.135708  -0.001088  4.082318  -0.002  -0.105906  -0.13834  -0.000349  4.049043  -0.001
C  C54  1  0.59067465  0.36139034  0.93208135  1  -0.136999  -0.000796  4.06287  -0.001  -0.135497  -0.00109  4.082198  -0.002  -0.105844  -0.138123  -0.000349  4.048934  -0.001
C  C55  1  0.45429253  0.76498952  0.97284900  1  -0.110423  0.005129  4.13231  0.006  -0.115775  0.003362  4.156777  0.004  -0.116681  -0.10429  0.007168  4.111327  0.008
C  C56  1  0.54571854  0.23501104  0.02714950  1  -0.110574  0.005127  4.132424  0.006  -0.115934  0.003365  4.156901  0.004  -0.116694  -0.10444  0.007164  4.111444  0.008
C  C57  1  0.37220077  0.86251980  0.99344281  1  -0.208971  -0.000679  4.076833  -0.001  -0.209515  -0.000964  4.09732  -0.002  -0.11925  -0.207932  -0.000293  4.058991  -0.001
C  C58  1  0.62780441  0.13747400  0.00655300  1  -0.208915  -0.000679  4.076878  -0.001  -0.209472  -0.000964  4.097357  -0.002  -0.119227  -0.207873  -0.000293  4.059032  -0.001
C  C59  1  0.24765609  0.83061071  0.11117313  1  0.138282  0.003787  4.05852  0.005  0.141102  0.002223  4.079967  0.003  0.06296  0.137991  0.005516  4.040708  0.007
C  C60  1  0.75235113  0.16938792  0.88882116  1  0.138233  0.003785  4.058752  0.005  0.141055  0.002219  4.080199  0.003  0.062926  0.137936  0.005512  4.040954  0.007
C  C61  1  0.20285219  0.70245743  0.21369825  1  0.193704  -0.003036  4.076705  -0.006  0.20928  -0.003202  4.097886  -0.005  0.06849  0.181887  -0.002494  4.059422  -0.007
C  C62  1  0.79714895  0.29753927  0.78629838  1  0.19369  -0.003036  4.076765  -0.006  0.209267  -0.003196  4.097943  -0.005  0.068429  0.181873  -0.002492  4.059505  -0.007
C  C63  1  0.18399817  0.04750429  0.04110395  1  -0.160287  0.001308  3.845338  0.001  -0.153394  0.000937  3.850116  0.001  -0.140738  -0.164962  0.001625  3.841284  0.002
C  C64  1  0.81600251  0.95249629  0.95888877  1  -0.160209  0.001308  3.845318  0.001  -0.153325  0.000938  3.850119  0.001  -0.140744  -0.16488  0.001625  3.841252  0.002
C  C65  1  0.76781843  0.55341224  0.38850653  1  0.309783  0.001719  4.050789  0.003  0.342413  0.000763  4.052391  0.001  0.177869  0.287631  0.001953  4.046164  0.003
C  C66  1  0.23217831  0.44659123  0.61149464  1  0.30961  0.001719  4.05087  0.003  0.342244  0.000764  4.052472  0.001  0.177807  0.287453  0.001954  4.046252  0.003
C  C67  1  0.59813491  0.41307588  0.35845142  1  -0.266934  -2.3e-05  3.878265  0.0  -0.262526  2e-05  3.88898  0.0  -0.129562  -0.269964  -3.7e-05  3.868563  0.0
C  C68  1  0.40185891  0.58692371  0.64155966  1  -0.266947  -2.3e-05  3.87836  0.0  -0.262543  1.9e-05  3.889078  0.0  -0.129572  -0.269974  -3.7e-05  3.868648  0.0
C  C69  1  0.58620495  0.65021579  0.28410805  1  -0.27762  -9.8e-05  3.8862  0.0  -0.275429  -0.000167  3.898927  0.0  -0.132383  -0.278757  -2.6e-05  3.875831  0.0
C  C70  1  0.41379260  0.34978575  0.71589535  1  -0.27751  -9.8e-05  3.886214  0.0  -0.275327  -0.000167  3.898936  0.0  -0.132389  -0.278648  -2.7e-05  3.875849  0.0
N  N71  1  0.16352757  0.93444549  0.37381840  1  -0.248094  0.034337  3.692751  0.046  -0.277027  0.028389  3.707832  0.037  -0.345178  -0.228215  0.037415  3.687954  0.051
N  N72  1  0.83646674  0.06555121  0.62618258  1  -0.248069  0.034336  3.692819  0.046  -0.277001  0.028388  3.707926  0.037  -0.345185  -0.228189  0.037414  3.688023  0.051
N  N73  1  0.31110535  0.37441058  0.25000934  1  -0.443362  0.003724  3.194671  0.005  -0.460108  0.002571  3.204098  0.004  -0.341877  -0.431772  0.005467  3.187215  0.008
N  N74  1  0.68889293  0.62558902  0.74999034  1  -0.44337  0.003723  3.194559  0.005  -0.460115  0.00257  3.203987  0.004  -0.34182  -0.431778  0.005467  3.187101  0.008
N  N75  1  0.12265298  0.28736907  0.45086101  1  -0.299446  0.034758  3.587741  0.047  -0.32721  0.029142  3.603736  0.038  -0.272376  -0.276413  0.037242  3.578046  0.051
N  N76  1  0.87734546  0.71263151  0.54913656  1  -0.299565  0.034759  3.587911  0.047  -0.327327  0.029145  3.603911  0.038  -0.272394  -0.276537  0.037245  3.578197  0.051
N  N77  1  0.12911709  0.41863928  0.40177894  1  -0.214311  0.00736  3.611086  0.01  -0.237795  0.006048  3.627407  0.008  -0.274701  -0.20584  0.00642  3.604552  0.008
N  N78  1  0.87088512  0.58136323  0.59821519  1  -0.214188  0.007359  3.611135  0.01  -0.237682  0.006048  3.627468  0.008  -0.27467  -0.205688  0.006419  3.604576  0.008
N  N79  1  0.65559051  0.53885993  0.34519189  1  0.026506  0.000638  3.725418  0.001  0.006155  0.00047  3.749599  0.001  -0.278105  0.041819  0.000682  3.707188  0.001
N  N80  1  0.34440023  0.46114160  0.65481841  1  0.026531  0.000638  3.725421  0.001  0.006178  0.000471  3.749606  0.001  -0.27808  0.041847  0.000682  3.707185  0.001
Cl  Cl81  1  0.81904414  0.93381721  0.29430790  1  -0.567896  0.056829  1.179499  0.067  -0.601464  0.04204  1.152206  0.048  -0.323237  -0.54321  0.067964  1.202507  0.081
Cl  Cl82  1  0.18095659  0.06618336  0.70568907  1  -0.567874  0.05683  1.179535  0.067  -0.601437  0.042042  1.152241  0.048  -0.323216  -0.543176  0.06796  1.202544  0.081
O  O83  1  0.15533447  0.91673395  0.13976958  1  -0.182362  0.014888  2.773405  0.025  -0.209081  0.012215  2.78138  0.021  -0.187257  -0.160292  0.017576  2.764559  0.029
O  O84  1  0.84467495  0.08326469  0.86021646  1  -0.182375  0.014888  2.773591  0.025  -0.209087  0.012214  2.781554  0.021  -0.187254  -0.1603  0.017575  2.764741  0.029
O  O85  1  0.08507957  0.68123816  0.32734783  1  -0.527124  0.032126  2.558737  0.052  -0.581833  0.019718  2.555025  0.031  -0.317632  -0.479943  0.043859  2.55372  0.071
O  O86  1  0.91492529  0.31876628  0.67264572  1  -0.527094  0.032122  2.558712  0.052  -0.581808  0.019715  2.554991  0.031  -0.317593  -0.479892  0.043846  2.553641  0.071
O  O87  1  0.83018780  0.46107835  0.44616148  1  -0.437408  -0.003707  2.479624  -0.005  -0.4742  -0.003355  2.47505  -0.003  -0.279663  -0.409746  -0.003459  2.476441  -0.005
O  O88  1  0.16980722  0.53892223  0.55383784  1  -0.437306  -0.003707  2.479664  -0.005  -0.474098  -0.003355  2.475088  -0.003  -0.279646  -0.409637  -0.003459  2.47647  -0.005
