# generated using pymatgen
data_ZnH2C12(NO3)4
_symmetry_space_group_name_H-M   'P 1'
_cell_length_a   10.14689004
_cell_length_b   18.32317192
_cell_length_c   18.38871594
_cell_angle_alpha   90.46302808
_cell_angle_beta   95.74293180
_cell_angle_gamma   83.93879695
_symmetry_Int_Tables_number   1
_chemical_formula_structural   ZnH2C12(NO3)4
_chemical_formula_sum   'Zn4 H8 C48 N16 O48'
_cell_volume   3382.70180772
_cell_formula_units_Z   4
loop_
 _symmetry_equiv_pos_site_id
 _symmetry_equiv_pos_as_xyz
  1  'x, y, z'
loop_
 _atom_site_type_symbol
 _atom_site_label
 _atom_site_symmetry_multiplicity
 _atom_site_fract_x
 _atom_site_fract_y
 _atom_site_fract_z
 _atom_site_occupancy
 _atom_site_pbe_bader_charge
 _atom_site_pbe_bader_spin_density
 _atom_site_pbe_cm5_charge
 _atom_site_pbe_ddec_charge
 _atom_site_pbe_ddec_spin_density
 _atom_site_pbe_ddec_sum_bond_order
 _atom_site_pbe_magmom
Zn  Zn0  1  0.38818777  0.99825717  0.48483472  1  1.347525  0  0.765526  1.017291  0  2.057974  0
Zn  Zn1  1  0.66593160  0.97282794  0.50445135  1  1.335652  0  0.752543  0.992915  0  2.045444  0
Zn  Zn2  1  0.61206265  0.48366527  0.99854989  1  1.346203  0  0.765446  1.017148  0  2.05684  0
Zn  Zn3  1  0.33410127  0.50429099  0.97405161  1  1.338553  0  0.752702  0.993015  0  2.046108  0
H  H4  1  0.21190542  0.66421652  0.14185988  1  0.141241  0  0.138145  0.16022  0  0.945188  0
H  H5  1  0.77386993  0.82431947  0.32661582  1  0.167434  0  0.137228  0.159035  0  0.951661  0
H  H6  1  0.22594237  0.32639766  0.82594350  1  0.154723  0  0.137157  0.159199  0  0.95288  0
H  H7  1  0.78823598  0.14068662  0.66396424  1  0.131822  0  0.138232  0.160403  0  0.945826  0
H  H8  1  0.27277993  0.37002621  0.13245184  1  0.157575  0  0.130912  0.153249  0  0.969025  0
H  H9  1  0.72777051  0.13196339  0.37071273  1  0.143309  0  0.130985  0.153196  0  0.969465  0
H  H10  1  0.75747015  0.64565082  0.86754135  1  0.174828  0  0.136086  0.158002  0  0.95895  0
H  H11  1  0.24234027  0.86717941  0.64654940  1  0.185167  0  0.136658  0.158647  0  0.959864  0
C  C12  1  0.46142058  0.90033685  0.59038035  1  1.579579  0  0.230696  0.614481  0  4.118078  0
C  C13  1  0.57188400  0.89078863  0.39508505  1  1.591922  0  0.230865  0.617168  0  4.126144  0
C  C14  1  0.49998770  0.09226361  0.40375677  1  1.595212  0  0.231651  0.618128  0  4.114675  0
C  C15  1  0.58704372  0.07089817  0.60160439  1  1.586461  0  0.228559  0.610711  0  4.132569  0
C  C16  1  0.50065697  0.40309815  0.09292136  1  1.568829  0  0.231455  0.616547  0  4.115659  0
C  C17  1  0.41324335  0.60164347  0.07147920  1  1.59877  0  0.229069  0.609731  0  4.133437  0
C  C18  1  0.53859394  0.58935407  0.90074903  1  1.580462  0  0.230519  0.614083  0  4.121332  0
C  C19  1  0.42787078  0.39411611  0.89221046  1  1.586238  0  0.230709  0.616283  0  4.129476  0
C  C20  1  0.53795245  0.69202998  0.14875548  1  0.208865  0  0.101674  0.03546  0  3.832633  0
C  C21  1  0.30434262  0.68759258  0.15908234  1  0.144156  0  -0.053911  -0.113379  0  3.907951  0
C  C22  1  0.31015541  0.73771547  0.21482645  1  0.133446  0  0.093744  0.054626  0  3.903184  0
C  C23  1  0.42941537  0.76801243  0.24160160  1  0.116439  0  0.022342  0.009856  0  3.894079  0
C  C24  1  0.43969911  0.81992060  0.29962650  1  0.186146  0  0.102074  0.040993  0  3.831993  0
C  C25  1  0.67795867  0.81002159  0.30177620  1  0.094587  0  -0.053233  -0.107678  0  3.906923  0
C  C26  1  0.67099988  0.76719990  0.24025271  1  0.176663  0  0.092787  0.048859  0  3.9004  0
C  C27  1  0.54960079  0.74242471  0.20788856  1  0.103125  0  0.024604  0.015994  0  3.892517  0
C  C28  1  0.41920895  0.66355503  0.12532054  1  0.025623  0  0.010376  -0.030461  0  3.906362  0
C  C29  1  0.56118575  0.83901825  0.33159329  1  0.075621  0  0.005348  -0.046772  0  3.918598  0
C  C30  1  0.56011557  0.29837413  0.82083643  1  0.200883  0  0.10304  0.043339  0  3.830599  0
C  C31  1  0.32187323  0.30131059  0.81135185  1  0.081149  0  -0.053635  -0.109693  0  3.909895  0
C  C32  1  0.32888031  0.23983255  0.76828077  1  0.197631  0  0.092403  0.050398  0  3.900542  0
C  C33  1  0.45031534  0.20726570  0.74305362  1  0.10233  0  0.025165  0.017063  0  3.8924  0
C  C34  1  0.46207579  0.14824753  0.69239346  1  0.182683  0  0.101245  0.036751  0  3.830894  0
C  C35  1  0.69577722  0.15799319  0.68763230  1  0.106801  0  -0.05418  -0.113154  0  3.909695  0
C  C36  1  0.68976952  0.21362490  0.73796539  1  0.168555  0  0.09393  0.054384  0  3.902511  0
C  C37  1  0.57045046  0.24056052  0.76860898  1  0.098736  0  0.021751  0.007936  0  3.897306  0
C  C38  1  0.43859056  0.33068912  0.84025550  1  0.074103  0  0.005356  -0.046691  0  3.920737  0
C  C39  1  0.58091902  0.12460176  0.66362529  1  0.0823  0  0.011056  -0.0321  0  3.906865  0
C  C40  1  0.58963040  0.31916548  0.20221836  1  0.190098  0  0.103096  0.040163  0  3.844873  0
C  C41  1  0.35480185  0.34227582  0.16783380  1  0.022244  0  -0.061651  -0.115905  0  3.931897  0
C  C42  1  0.32897526  0.29808656  0.22322524  1  0.221353  0  0.089716  0.046979  0  3.912392  0
C  C43  1  0.43207885  0.25620372  0.26825628  1  0.103332  0  0.024127  0.01391  0  3.8889  0
C  C44  1  0.41066198  0.20163009  0.31964254  1  0.195782  0  0.104284  0.042594  0  3.843797  0
C  C45  1  0.64559644  0.16730746  0.34291051  1  0.068187  0  -0.061375  -0.115211  0  3.929351  0
C  C46  1  0.67132246  0.22283099  0.29878928  1  0.258839  0  0.090114  0.048512  0  3.909816  0
C  C47  1  0.56826738  0.26780416  0.25679600  1  0.061232  0  0.024119  0.013966  0  3.888781  0
C  C48  1  0.48586428  0.35399904  0.15613948  1  0.1124  0  0.004838  -0.045914  0  3.917358  0
C  C49  1  0.51455495  0.15555301  0.35458459  1  0.029243  0  0.004085  -0.047235  0  3.917346  0
C  C50  1  0.42941177  0.70060997  0.82703508  1  0.201217  0  0.10621  0.044153  0  3.827639  0
C  C51  1  0.66785989  0.67703210  0.84216926  1  0.134954  0  -0.053508  -0.102319  0  3.908032  0
C  C52  1  0.67823803  0.73614942  0.79873483  1  0.193802  0  0.092815  0.047763  0  3.890828  0
C  C53  1  0.56477079  0.77595662  0.75934453  1  0.015763  0  0.024472  0.01564  0  3.888549  0
C  C54  1  0.57014614  0.82674146  0.70146643  1  0.21338  0  0.106112  0.043491  0  3.827375  0
C  C55  1  0.33182605  0.84174661  0.67786713  1  0.140208  0  -0.053743  -0.103558  0  3.909079  0
C  C56  1  0.32131165  0.79815119  0.73674999  1  0.10999  0  0.092341  0.048755  0  3.889918  0
C  C57  1  0.43482068  0.75869687  0.77642970  1  0.14125  0  0.025234  0.015455  0  3.89024  0
C  C58  1  0.54273216  0.65707742  0.85600851  1  0.04791  0  0.008302  -0.040066  0  3.908833  0
C  C59  1  0.45698170  0.85564282  0.65798013  1  0.070123  0  0.008116  -0.03954  0  3.905194  0
N  N60  1  0.80046354  0.75053064  0.20973526  1  0.413625  0  0.052712  0.496378  0  4.258952  0
N  N61  1  0.65664815  0.66684704  0.11043518  1  0.430733  0  0.052438  0.503908  0  4.279062  0
N  N62  1  0.18439463  0.75219354  0.24993549  1  0.417139  0  0.055673  0.492756  0  4.255439  0
N  N63  1  0.31540561  0.85806984  0.32469028  1  0.443928  0  0.052553  0.500993  0  4.277729  0
N  N64  1  0.81552169  0.24841434  0.75241187  1  0.44405  0  0.055632  0.493518  0  4.247737  0
N  N65  1  0.68443466  0.32278236  0.85878530  1  0.441614  0  0.050311  0.496552  0  4.279021  0
N  N66  1  0.19952023  0.20970438  0.75142775  1  0.405231  0  0.05265  0.495456  0  4.258304  0
N  N67  1  0.34360437  0.11009081  0.66732212  1  0.431747  0  0.051948  0.501566  0  4.278833  0
N  N68  1  0.81490001  0.23333922  0.30280577  1  0.421635  0  0.055656  0.497335  0  4.251534  0
N  N69  1  0.72702041  0.33379172  0.19028993  1  0.406907  0  0.05407  0.496072  0  4.279937  0
N  N70  1  0.18515372  0.30204116  0.23350135  1  0.425859  0  0.055654  0.49732  0  4.251652  0
N  N71  1  0.27322582  0.18958782  0.33412074  1  0.428174  0  0.054174  0.495615  0  4.282044  0
N  N72  1  0.18322842  0.80096072  0.75764779  1  0.42783  0  0.05559  0.497135  0  4.242161  0
N  N73  1  0.29838741  0.68270832  0.84713392  1  0.429211  0  0.053593  0.500393  0  4.280591  0
N  N74  1  0.81596782  0.75725685  0.80150846  1  0.433164  0  0.056188  0.49815  0  4.244493  0
N  N75  1  0.70101024  0.84723836  0.68380760  1  0.429079  0  0.052656  0.49918  0  4.281978  0
O  O76  1  0.34982475  0.93151122  0.56044923  1  -1.115527  0  -0.298082  -0.508206  0  2.234523  0
O  O77  1  0.57340417  0.90352355  0.56660947  1  -1.171032  0  -0.303233  -0.56858  0  2.402656  0
O  O78  1  0.68857591  0.90008525  0.42527628  1  -1.120977  0  -0.29924  -0.506903  0  2.198948  0
O  O79  1  0.46396808  0.92208099  0.41436330  1  -1.173526  0  -0.301583  -0.572674  0  2.451464  0
O  O80  1  0.60858313  0.05825445  0.43156693  1  -1.171516  0  -0.305564  -0.565347  0  2.340542  0
O  O81  1  0.38291607  0.07669786  0.41339704  1  -1.107768  0  -0.295091  -0.504999  0  2.302599  0
O  O82  1  0.47741549  0.06224432  0.56518642  1  -1.170116  0  -0.302789  -0.578363  0  2.433143  0
O  O83  1  0.70105918  0.03986781  0.58774840  1  -1.104656  0  -0.29505  -0.501985  0  2.215188  0
O  O84  1  0.61779108  0.41226194  0.07699883  1  -1.106457  0  -0.295184  -0.503907  0  2.300339  0
O  O85  1  0.39210629  0.43131380  0.05928924  1  -1.172697  0  -0.305016  -0.564279  0  2.342004  0
O  O86  1  0.29922885  0.58803195  0.04094045  1  -1.114419  0  -0.295027  -0.502058  0  2.214587  0
O  O87  1  0.52298885  0.56499987  0.06231331  1  -1.168597  0  -0.302893  -0.577885  0  2.43238  0
O  O88  1  0.42671023  0.56576767  0.90435890  1  -1.168981  0  -0.303408  -0.568274  0  2.405755  0
O  O89  1  0.65024974  0.55911944  0.93154836  1  -1.104266  0  -0.297664  -0.508061  0  2.234956  0
O  O90  1  0.53577069  0.41283943  0.92336432  1  -1.17037  0  -0.302126  -0.573062  0  2.45312  0
O  O91  1  0.31119090  0.42482661  0.90178749  1  -1.123265  0  -0.29869  -0.505915  0  2.200288  0
O  O92  1  0.80901463  0.77776178  0.14924179  1  -0.41783  0  -0.116751  -0.300629  0  1.896802  0
O  O93  1  0.88942272  0.71417264  0.24834468  1  -0.397806  0  -0.101629  -0.286203  0  1.956368  0
O  O94  1  0.65726701  0.69011538  0.04783341  1  -0.41004  0  -0.108764  -0.292488  0  1.925261  0
O  O95  1  0.74411468  0.62512158  0.14475925  1  -0.416694  0  -0.110396  -0.293139  0  1.917019  0
O  O96  1  0.10714414  0.80566768  0.22764362  1  -0.401764  0  -0.105316  -0.287645  0  1.92098  0
O  O97  1  0.16790050  0.70740175  0.29695891  1  -0.385974  0  -0.098499  -0.273623  0  1.898407  0
O  O98  1  0.27187720  0.91512297  0.29165278  1  -0.40052  0  -0.101574  -0.276868  0  1.887275  0
O  O99  1  0.26675024  0.82950705  0.37479207  1  -0.416059  0  -0.11222  -0.29445  0  1.916705  0
O  O100  1  0.89294272  0.22530447  0.80519778  1  -0.405588  0  -0.104934  -0.287493  0  1.918831  0
O  O101  1  0.83188183  0.29595575  0.70811345  1  -0.405258  0  -0.099022  -0.274476  0  1.897299  0
O  O102  1  0.72782017  0.28884167  0.91514675  1  -0.405891  0  -0.100746  -0.275595  0  1.888874  0
O  O103  1  0.73330752  0.37318338  0.83077141  1  -0.405963  0  -0.111078  -0.292206  0  1.915907  0
O  O104  1  0.19069014  0.14884006  0.77809961  1  -0.410149  0  -0.115693  -0.299354  0  1.898567  0
O  O105  1  0.11102773  0.24888526  0.71531311  1  -0.398172  0  -0.101927  -0.286284  0  1.954241  0
O  O106  1  0.34304414  0.04722476  0.69041174  1  -0.41194  0  -0.108683  -0.291954  0  1.926287  0
O  O107  1  0.25628198  0.14475318  0.62590090  1  -0.419994  0  -0.10955  -0.291647  0  1.916839  0
O  O108  1  0.84387082  0.29369299  0.32615963  1  -0.419793  0  -0.10921  -0.292747  0  1.91234  0
O  O109  1  0.89253155  0.18027926  0.28801154  1  -0.397216  0  -0.105922  -0.287084  0  1.901385  0
O  O110  1  0.76244762  0.39290352  0.21199764  1  -0.382441  0  -0.098959  -0.272293  0  1.911169  0
O  O111  1  0.79185453  0.28473382  0.15856035  1  -0.389976  0  -0.101433  -0.280747  0  1.901082  0
O  O112  1  0.15486583  0.32588526  0.29337833  1  -0.415564  0  -0.108819  -0.291432  0  1.911791  0
O  O113  1  0.10859840  0.28663994  0.18069791  1  -0.404377  0  -0.10578  -0.287169  0  1.901116  0
O  O114  1  0.23655076  0.21181982  0.39275067  1  -0.383325  0  -0.098462  -0.271762  0  1.911845  0
O  O115  1  0.20957779  0.15735163  0.28541156  1  -0.391186  0  -0.101906  -0.281132  0  1.902591  0
O  O116  1  0.17010189  0.81773719  0.82204525  1  -0.418214  0  -0.112114  -0.296367  0  1.913433  0
O  O117  1  0.09387790  0.79224982  0.70888799  1  -0.407338  0  -0.105938  -0.288883  0  1.919742  0
O  O118  1  0.27203022  0.69765582  0.90971194  1  -0.40096  0  -0.103419  -0.281236  0  1.938193  0
O  O119  1  0.22783794  0.65405304  0.79870633  1  -0.409068  0  -0.107899  -0.288796  0  1.89792  0
O  O120  1  0.82806502  0.82198722  0.81804486  1  -0.415983  0  -0.112362  -0.296762  0  1.91395  0
O  O121  1  0.90602968  0.70835105  0.79292337  1  -0.412157  0  -0.106045  -0.289023  0  1.920202  0
O  O122  1  0.72563026  0.91027806  0.69848063  1  -0.404084  0  -0.10346  -0.281651  0  1.938721  0
O  O123  1  0.77311886  0.79879670  0.65552666  1  -0.407085  0  -0.107129  -0.287507  0  1.898252  0
