# generated using pymatgen
data_ZnH8(C3O4)2
_symmetry_space_group_name_H-M   'P 1'
_cell_length_a   8.28438211
_cell_length_b   7.25951640
_cell_length_c   14.93028029
_cell_angle_alpha   89.99510390
_cell_angle_beta   90.00048242
_cell_angle_gamma   89.99892385
_symmetry_Int_Tables_number   1
_chemical_formula_structural   ZnH8(C3O4)2
_chemical_formula_sum   'Zn4 H32 C24 O32'
_cell_volume   897.91612731
_cell_formula_units_Z   4
loop_
 _symmetry_equiv_pos_site_id
 _symmetry_equiv_pos_as_xyz
  1  'x, y, z'
loop_
 _atom_site_type_symbol
 _atom_site_label
 _atom_site_symmetry_multiplicity
 _atom_site_fract_x
 _atom_site_fract_y
 _atom_site_fract_z
 _atom_site_occupancy
 _atom_site_hle17_bader_spin_density
 _atom_site_hle17_ddec_charge
 _atom_site_hle17_ddec_spin_density
 _atom_site_hle17_ddec_sum_bond_order
 _atom_site_hle17_magmom
 _atom_site_hse06_10hf_bader_spin_density
 _atom_site_hse06_10hf_ddec_charge
 _atom_site_hse06_10hf_ddec_spin_density
 _atom_site_hse06_10hf_ddec_sum_bond_order
 _atom_site_hse06_10hf_magmom
 _atom_site_hse06_bader_spin_density
 _atom_site_hse06_ddec_charge
 _atom_site_hse06_ddec_spin_density
 _atom_site_hse06_ddec_sum_bond_order
 _atom_site_hse06_magmom
 _atom_site_pbe_bader_spin_density
 _atom_site_pbe_cm5_charge
 _atom_site_pbe_ddec_charge
 _atom_site_pbe_ddec_spin_density
 _atom_site_pbe_ddec_sum_bond_order
 _atom_site_pbe_magmom
Zn  Zn0  1  0.33898371  0.75002400  0.19323197  1  0  1.265301  0  1.626303  0  0  1.102096  0  2.085857  0  0  1.149731  0  2.020704  0  0  0.693008  1.068196  0  2.131095  0
Zn  Zn1  1  0.16101929  0.25002206  0.69322527  1  0  1.265302  0  1.626339  0  0  1.10211  0  2.08594  0  0  1.149746  0  2.020785  0  0  0.69301  1.068211  0  2.13119  0
Zn  Zn2  1  0.83898201  0.74997570  0.30677491  1  0  1.265358  0  1.626204  0  0  1.102178  0  2.085779  0  0  1.149819  0  2.020616  0  0  0.693036  1.068288  0  2.131021  0
Zn  Zn3  1  0.66101155  0.24997927  0.80676955  1  0  1.265323  0  1.626233  0  0  1.102129  0  2.085778  0  0  1.149758  0  2.020628  0  0  0.693027  1.068229  0  2.131016  0
H  H4  1  0.28076941  0.74999540  0.52871917  1  0  0.137706  0  0.942921  0  0  0.148316  0  0.999356  0  0  0.151986  0  0.996601  0  0  0.117957  0.145638  0  1.001481  0
H  H5  1  0.21923357  0.24999390  0.02870875  1  0  0.137801  0  0.943224  0  0  0.148391  0  0.999628  0  0  0.15206  0  0.996875  0  0  0.11806  0.145716  0  1.001749  0
H  H6  1  0.78077376  0.74999283  0.97129344  1  0  0.137782  0  0.943055  0  0  0.148343  0  0.999514  0  0  0.15201  0  0.996765  0  0  0.118028  0.145668  0  1.001632  0
H  H7  1  0.71922947  0.24999133  0.47128771  1  0  0.137674  0  0.942928  0  0  0.148233  0  0.99944  0  0  0.151901  0  0.996688  0  0  0.117977  0.145557  0  1.00156  0
H  H8  1  0.47687081  0.74997785  0.67452132  1  0  0.141234  0  0.970373  0  0  0.146213  0  1.034537  0  0  0.150942  0  1.030798  0  0  0.113694  0.142744  0  1.037436  0
H  H9  1  0.02313191  0.24999294  0.17450795  1  0  0.141258  0  0.970228  0  0  0.146233  0  1.034417  0  0  0.15096  0  1.03068  0  0  0.113729  0.142765  0  1.037318  0
H  H10  1  0.97686335  0.75001859  0.82549022  1  0  0.14132  0  0.970259  0  0  0.1463  0  1.034417  0  0  0.151028  0  1.030679  0  0  0.113762  0.142832  0  1.037322  0
H  H11  1  0.52313893  0.25001026  0.32548153  1  0  0.141248  0  0.97029  0  0  0.146224  0  1.034465  0  0  0.150951  0  1.030728  0  0  0.113709  0.142756  0  1.037365  0
H  H12  1  0.28264470  0.10403660  0.22557497  1  0  0.431238  0  0.872726  0  0  0.399865  0  0.936487  0  0  0.41014  0  0.921763  0  0  0.297893  0.392624  0  0.946849  0
H  H13  1  0.21733464  0.89602448  0.72557897  1  0  0.431313  0  0.872629  0  0  0.400011  0  0.936302  0  0  0.410285  0  0.921575  0  0  0.297983  0.392762  0  0.946679  0
H  H14  1  0.78264373  0.39597207  0.27441977  1  0  0.431216  0  0.87276  0  0  0.399836  0  0.936527  0  0  0.410112  0  0.921802  0  0  0.297899  0.392595  0  0.946886  0
H  H15  1  0.71733607  0.60397751  0.77442596  1  0  0.431337  0  0.872594  0  0  0.400033  0  0.936265  0  0  0.410307  0  0.92154  0  0  0.297985  0.392788  0  0.946636  0
H  H16  1  0.71735901  0.89596666  0.77442721  1  0  0.431248  0  0.872706  0  0  0.399824  0  0.936543  0  0  0.410099  0  0.92182  0  0  0.297876  0.392581  0  0.946908  0
H  H17  1  0.78266545  0.10397465  0.27442321  1  0  0.431307  0  0.872626  0  0  0.400013  0  0.936281  0  0  0.410286  0  0.921555  0  0  0.297997  0.392768  0  0.946651  0
H  H18  1  0.21735394  0.60402706  0.72557772  1  0  0.43126  0  0.872708  0  0  0.399882  0  0.936473  0  0  0.410157  0  0.921748  0  0  0.297914  0.392639  0  0.946838  0
H  H19  1  0.28265919  0.39602437  0.22557488  1  0  0.431324  0  0.872613  0  0  0.400023  0  0.93628  0  0  0.410298  0  0.921553  0  0  0.29797  0.392776  0  0.946656  0
H  H20  1  0.41507892  0.09567241  0.14605519  1  0  0.426954  0  0.872633  0  0  0.393642  0  0.940038  0  0  0.404254  0  0.924453  0  0  0.297346  0.386075  0  0.951157  0
H  H21  1  0.08490890  0.90436395  0.64604816  1  0  0.42702  0  0.872591  0  0  0.393683  0  0.940034  0  0  0.4043  0  0.924446  0  0  0.297324  0.386113  0  0.951142  0
H  H22  1  0.91507175  0.40432929  0.35394488  1  0  0.42693  0  0.872696  0  0  0.393582  0  0.940154  0  0  0.404196  0  0.924567  0  0  0.297316  0.386019  0  0.951268  0
H  H23  1  0.58490561  0.59564500  0.85395279  1  0  0.427083  0  0.872465  0  0  0.393749  0  0.939911  0  0  0.404363  0  0.924323  0  0  0.297364  0.386182  0  0.951029  0
H  H24  1  0.58492479  0.90433223  0.85394699  1  0  0.426871  0  0.872774  0  0  0.393546  0  0.940195  0  0  0.404157  0  0.924614  0  0  0.297293  0.385981  0  0.951311  0
H  H25  1  0.91508757  0.09564620  0.35395604  1  0  0.42709  0  0.872474  0  0  0.39374  0  0.939944  0  0  0.404359  0  0.924347  0  0  0.297367  0.386174  0  0.951062  0
H  H26  1  0.08492593  0.59568223  0.64605262  1  0  0.426905  0  0.872734  0  0  0.393589  0  0.94014  0  0  0.404202  0  0.924555  0  0  0.297313  0.386023  0  0.951257  0
H  H27  1  0.41508966  0.40436239  0.14604738  1  0  0.427012  0  0.872566  0  0  0.393664  0  0.940035  0  0  0.404284  0  0.924441  0  0  0.297296  0.386091  0  0.951145  0
H  H28  1  0.49732626  0.75002120  0.03188708  1  0  0.440979  0  0.855127  0  0  0.403897  0  0.927131  0  0  0.415728  0  0.909779  0  0  0.291122  0.39551  0  0.939417  0
H  H29  1  0.00267557  0.25001989  0.53188096  1  0  0.44086  0  0.855275  0  0  0.40378  0  0.927269  0  0  0.415605  0  0.909926  0  0  0.291062  0.395395  0  0.939552  0
H  H30  1  0.99732693  0.74997235  0.46811787  1  0  0.440857  0  0.85528  0  0  0.403788  0  0.927265  0  0  0.415618  0  0.909913  0  0  0.291048  0.395398  0  0.939553  0
H  H31  1  0.50267142  0.24997931  0.96811175  1  0  0.440909  0  0.855247  0  0  0.403835  0  0.927242  0  0  0.415669  0  0.909883  0  0  0.291061  0.395446  0  0.939531  0
H  H32  1  0.63489776  0.75001820  0.11276801  1  0  0.442376  0  0.849779  0  0  0.409197  0  0.915989  0  0  0.420328  0  0.899673  0  0  0.295062  0.401286  0  0.927567  0
H  H33  1  0.86510379  0.25001602  0.61276095  1  0  0.442298  0  0.849895  0  0  0.409174  0  0.916002  0  0  0.420297  0  0.899701  0  0  0.295066  0.401265  0  0.927585  0
H  H34  1  0.13490233  0.74997898  0.38723922  1  0  0.442391  0  0.849759  0  0  0.409218  0  0.915963  0  0  0.420343  0  0.899657  0  0  0.295048  0.40131  0  0.927538  0
H  H35  1  0.36509750  0.24998369  0.88723216  1  0  0.442336  0  0.849834  0  0  0.409155  0  0.916053  0  0  0.420287  0  0.899732  0  0  0.295002  0.401245  0  0.927629  0
C  C36  1  0.47496369  0.75002740  0.35886884  1  0  0.620989  0  3.973919  0  0  0.566345  0  4.26866  0  0  0.600679  0  4.261671  0  0  0.208564  0.543084  0  4.272594  0
C  C37  1  0.02503692  0.25001735  0.85886014  1  0  0.621249  0  3.973348  0  0  0.566578  0  4.268144  0  0  0.600916  0  4.261161  0  0  0.208644  0.543307  0  4.27208  0
C  C38  1  0.97496800  0.74998454  0.14114003  1  0  0.621383  0  3.973255  0  0  0.566749  0  4.268026  0  0  0.601092  0  4.261036  0  0  0.208707  0.543475  0  4.271962  0
C  C39  1  0.52503278  0.24997448  0.64113201  1  0  0.620991  0  3.973882  0  0  0.5663  0  4.268658  0  0  0.600628  0  4.261671  0  0  0.20852  0.54303  0  4.272596  0
C  C40  1  0.51068946  0.75002142  0.45484435  1  0  0.075986  0  3.691921  0  0  0.068462  0  3.962542  0  0  0.068278  0  3.978554  0  0  0.068962  0.068479  0  3.95177  0
C  C41  1  0.98932077  0.25002622  0.95483453  1  0  0.076106  0  3.691575  0  0  0.06853  0  3.962402  0  0  0.068283  0  3.978427  0  0  0.069071  0.068566  0  3.951631  0
C  C42  1  0.01068415  0.74998255  0.04516497  1  0  0.076117  0  3.69151  0  0  0.0685  0  3.962374  0  0  0.068259  0  3.978391  0  0  0.069063  0.06855  0  3.951599  0
C  C43  1  0.48931426  0.24997083  0.54515717  1  0  0.07591  0  3.692133  0  0  0.068465  0  3.962704  0  0  0.068268  0  3.978694  0  0  0.069022  0.068479  0  3.951928  0
C  C44  1  0.41139835  0.75000364  0.52884808  1  0  -0.11144  0  3.690639  0  0  -0.149414  0  3.960663  0  0  -0.148996  0  3.976455  0  0  -0.094885  -0.149495  0  3.949867  0
C  C45  1  0.08861309  0.25001044  0.02884038  1  0  -0.111869  0  3.691105  0  0  -0.149795  0  3.961156  0  0  -0.149375  0  3.976958  0  0  -0.095122  -0.149876  0  3.950358  0
C  C46  1  0.91139183  0.74999420  0.97116047  1  0  -0.111933  0  3.690927  0  0  -0.149838  0  3.961043  0  0  -0.149418  0  3.976838  0  0  -0.095163  -0.149918  0  3.950239  0
C  C47  1  0.58860053  0.24998310  0.47115344  1  0  -0.111362  0  3.69075  0  0  -0.149307  0  3.960729  0  0  -0.148896  0  3.976525  0  0  -0.094932  -0.149389  0  3.949933  0
C  C48  1  0.51343911  0.74998904  0.60477389  1  0  -0.117757  0  3.691341  0  0  -0.152557  0  3.963677  0  0  -0.15372  0  3.979968  0  0  -0.096512  -0.151561  0  3.952597  0
C  C49  1  0.98656716  0.24999009  0.10476140  1  0  -0.117402  0  3.691118  0  0  -0.152163  0  3.963388  0  0  -0.153333  0  3.979695  0  0  -0.096384  -0.15117  0  3.952306  0
C  C50  1  0.01343293  0.75000353  0.89523743  1  0  -0.117463  0  3.691012  0  0  -0.152239  0  3.963259  0  0  -0.153401  0  3.979569  0  0  -0.096381  -0.15125  0  3.952175  0
C  C51  1  0.48655857  0.25000182  0.39522762  1  0  -0.117782  0  3.691298  0  0  -0.15257  0  3.963621  0  0  -0.153733  0  3.97992  0  0  -0.096493  -0.151572  0  3.952552  0
C  C52  1  0.66972090  0.75000805  0.57300393  1  0  0.071607  0  3.67558  0  0  0.059819  0  3.951804  0  0  0.06077  0  3.966297  0  0  0.065541  0.05905  0  3.942067  0
C  C53  1  0.83028490  0.25001657  0.07298734  1  0  0.071354  0  3.675542  0  0  0.059632  0  3.951771  0  0  0.060529  0  3.966266  0  0  0.065336  0.05889  0  3.94202  0
C  C54  1  0.16971519  0.75000461  0.92701015  1  0  0.071494  0  3.675428  0  0  0.059853  0  3.95157  0  0  0.060729  0  3.966102  0  0  0.06542  0.059133  0  3.941804  0
C  C55  1  0.33027799  0.24998695  0.42699758  1  0  0.0716  0  3.675586  0  0  0.059829  0  3.951837  0  0  0.060748  0  3.966333  0  0  0.06547  0.059036  0  3.942118  0
C  C56  1  0.82366997  0.75000904  0.62172609  1  0  0.638748  0  3.940994  0  0  0.57929  0  4.243307  0  0  0.61404  0  4.232305  0  0  0.218833  0.555769  0  4.250077  0
C  C57  1  0.67633413  0.25001810  0.12171881  1  0  0.63889  0  3.940874  0  0  0.579462  0  4.243188  0  0  0.614214  0  4.232188  0  0  0.219063  0.555934  0  4.249958  0
C  C58  1  0.32366475  0.74999894  0.87827801  1  0  0.638698  0  3.941063  0  0  0.579202  0  4.243429  0  0  0.613956  0  4.232437  0  0  0.218859  0.555676  0  4.250183  0
C  C59  1  0.17633132  0.24998871  0.37827140  1  0  0.638464  0  3.941095  0  0  0.578987  0  4.243414  0  0  0.613731  0  4.232428  0  0  0.21869  0.555474  0  4.250178  0
O  O60  1  0.32595542  0.75002693  0.33512077  1  0  -0.646332  0  2.044931  0  0  -0.572589  0  2.288734  0  0  -0.602306  0  2.277411  0  0  -0.303513  -0.551865  0  2.295967  0
O  O61  1  0.17404364  0.25002747  0.83511011  1  0  -0.646415  0  2.044913  0  0  -0.572638  0  2.28871  0  0  -0.602373  0  2.277389  0  0  -0.303526  -0.551914  0  2.29595  0
O  O62  1  0.82596008  0.74997580  0.16488605  1  0  -0.646477  0  2.044843  0  0  -0.572726  0  2.288641  0  0  -0.602461  0  2.277318  0  0  -0.30354  -0.552001  0  2.295878  0
O  O63  1  0.67403863  0.24997495  0.66487807  1  0  -0.64631  0  2.044895  0  0  -0.572573  0  2.28869  0  0  -0.602292  0  2.277374  0  0  -0.303486  -0.55185  0  2.295925  0
O  O64  1  0.58645498  0.75002026  0.30065787  1  0  -0.629549  0  2.076586  0  0  -0.557377  0  2.338682  0  0  -0.584556  0  2.322896  0  0  -0.301216  -0.538436  0  2.348989  0
O  O65  1  0.91354693  0.25000740  0.80064435  1  0  -0.62987  0  2.076494  0  0  -0.557567  0  2.338455  0  0  -0.584731  0  2.322661  0  0  -0.301331  -0.538601  0  2.348751  0
O  O66  1  0.08645074  0.74999862  0.19935784  1  0  -0.629936  0  2.076587  0  0  -0.557636  0  2.338533  0  0  -0.584812  0  2.322742  0  0  -0.301324  -0.53867  0  2.348831  0
O  O67  1  0.41354631  0.24998714  0.69934565  1  0  -0.629596  0  2.076631  0  0  -0.557383  0  2.338695  0  0  -0.58456  0  2.322913  0  0  -0.301237  -0.538426  0  2.348995  0
O  O68  1  0.95822405  0.75007326  0.57956712  1  0  -0.633418  0  2.009051  0  0  -0.563072  0  2.219436  0  0  -0.588287  0  2.205788  0  0  -0.30141  -0.54548  0  2.228449  0
O  O69  1  0.54178184  0.25007418  0.07955786  1  0  -0.633437  0  2.008993  0  0  -0.56313  0  2.219425  0  0  -0.588351  0  2.205778  0  0  -0.301479  -0.545539  0  2.228438  0
O  O70  1  0.45821825  0.74994010  0.92043763  1  0  -0.633457  0  2.009146  0  0  -0.563083  0  2.219532  0  0  -0.588294  0  2.205885  0  0  -0.301426  -0.545495  0  2.228548  0
O  O71  1  0.04178207  0.24992725  0.42043037  1  0  -0.633411  0  2.009077  0  0  -0.562943  0  2.219369  0  0  -0.588156  0  2.205726  0  0  -0.301387  -0.545355  0  2.228383  0
O  O72  1  0.81586193  0.74995762  0.70701516  1  0  -0.643665  0  2.043088  0  0  -0.574156  0  2.259718  0  0  -0.5995  0  2.248203  0  0  -0.312442  -0.556505  0  2.267254  0
O  O73  1  0.68415550  0.24997202  0.20700591  1  0  -0.643765  0  2.043355  0  0  -0.574279  0  2.259993  0  0  -0.599625  0  2.248472  0  0  -0.312555  -0.55663  0  2.267531  0
O  O74  1  0.31584700  0.75004089  0.79299024  1  0  -0.643636  0  2.043215  0  0  -0.574149  0  2.259892  0  0  -0.599494  0  2.248373  0  0  -0.312453  -0.556497  0  2.267425  0
O  O75  1  0.18413091  0.25003876  0.29298099  1  0  -0.643409  0  2.043072  0  0  -0.573949  0  2.259716  0  0  -0.599293  0  2.248206  0  0  -0.312321  -0.556298  0  2.267244  0
O  O76  1  0.66962244  0.75002984  0.48095609  1  0  -0.186567  0  2.415352  0  0  -0.111954  0  2.633713  0  0  -0.128154  0  2.642732  0  0  -0.10577  -0.101155  0  2.627754  0
O  O77  1  0.83038213  0.25002565  0.98093882  1  0  -0.18649  0  2.415302  0  0  -0.112005  0  2.633813  0  0  -0.128077  0  2.642767  0  0  -0.105741  -0.101249  0  2.627872  0
O  O78  1  0.16961796  0.74999277  0.01905868  1  0  -0.186486  0  2.415303  0  0  -0.112019  0  2.633815  0  0  -0.128092  0  2.642779  0  0  -0.105769  -0.101294  0  2.62789  0
O  O79  1  0.33038489  0.24996791  0.51904743  1  0  -0.186484  0  2.415413  0  0  -0.111968  0  2.633833  0  0  -0.128099  0  2.642803  0  0  -0.105743  -0.101141  0  2.627852  0
O  O80  1  0.32717575  0.02753258  0.17615296  1  0  -0.854872  0  1.951451  0  0  -0.791593  0  2.17426  0  0  -0.813846  0  2.137826  0  0  -0.580684  -0.775853  0  2.199577  0
O  O81  1  0.17278596  0.97252747  0.67615220  1  0  -0.855196  0  1.951492  0  0  -0.791937  0  2.174157  0  0  -0.814189  0  2.137714  0  0  -0.580822  -0.776182  0  2.199509  0
O  O82  1  0.82716338  0.47246687  0.32384803  1  0  -0.854865  0  1.951592  0  0  -0.79157  0  2.174463  0  0  -0.813826  0  2.138028  0  0  -0.580674  -0.77583  0  2.199774  0
O  O83  1  0.67277973  0.52747134  0.82384783  1  0  -0.855236  0  1.95134  0  0  -0.791982  0  2.173997  0  0  -0.814227  0  2.137564  0  0  -0.580859  -0.776242  0  2.199315  0
O  O84  1  0.67282555  0.97247068  0.82384855  1  0  -0.854825  0  1.951591  0  0  -0.791514  0  2.174498  0  0  -0.813769  0  2.138068  0  0  -0.580642  -0.775774  0  2.199813  0
O  O85  1  0.82721654  0.02747442  0.32384865  1  0  -0.855227  0  1.951366  0  0  -0.791985  0  2.174038  0  0  -0.81423  0  2.137601  0  0  -0.580865  -0.776247  0  2.199356  0
O  O86  1  0.17282343  0.52753364  0.67615282  1  0  -0.854869  0  1.951592  0  0  -0.791588  0  2.17443  0  0  -0.813841  0  2.137995  0  0  -0.580686  -0.77585  0  2.199749  0
O  O87  1  0.32721312  0.47253192  0.17615301  1  0  -0.855196  0  1.951405  0  0  -0.791925  0  2.174068  0  0  -0.814178  0  2.137621  0  0  -0.580789  -0.776167  0  2.199426  0
O  O88  1  0.51854860  0.75014749  0.09757244  1  0  -0.872592  0  1.892851  0  0  -0.806137  0  2.113207  0  0  -0.827857  0  2.073498  0  0  -0.586034  -0.790755  0  2.140889  0
O  O89  1  0.98145394  0.25014972  0.59756593  1  0  -0.872409  0  1.893083  0  0  -0.806034  0  2.11353  0  0  -0.827745  0  2.073834  0  0  -0.58595  -0.790661  0  2.141203  0
O  O90  1  0.01854857  0.74979983  0.40243290  1  0  -0.87251  0  1.892952  0  0  -0.806076  0  2.113344  0  0  -0.827792  0  2.073636  0  0  -0.585922  -0.790695  0  2.141026  0
O  O91  1  0.48144787  0.24982409  0.90242707  1  0  -0.872491  0  1.892951  0  0  -0.806075  0  2.11334  0  0  -0.827797  0  2.073633  0  0  -0.585904  -0.790691  0  2.141021  0
