# generated using pymatgen
data_LiH2C2NO3
_symmetry_space_group_name_H-M   'P 1'
_cell_length_a   6.44465808
_cell_length_b   9.50176802
_cell_length_c   10.24964346
_cell_angle_alpha   103.23093313
_cell_angle_beta   106.84254782
_cell_angle_gamma   91.56144853
_symmetry_Int_Tables_number   1
_chemical_formula_structural   LiH2C2NO3
_chemical_formula_sum   'Li6 H12 C12 N6 O18'
_cell_volume   581.81852412
_cell_formula_units_Z   6
loop_
 _symmetry_equiv_pos_site_id
 _symmetry_equiv_pos_as_xyz
  1  'x, y, z'
loop_
 _atom_site_type_symbol
 _atom_site_label
 _atom_site_symmetry_multiplicity
 _atom_site_fract_x
 _atom_site_fract_y
 _atom_site_fract_z
 _atom_site_occupancy
 _atom_site_hle17_bader_spin_density
 _atom_site_hle17_ddec_charge
 _atom_site_hle17_ddec_spin_density
 _atom_site_hle17_ddec_sum_bond_order
 _atom_site_hle17_magmom
 _atom_site_hse06_10hf_bader_spin_density
 _atom_site_hse06_10hf_ddec_charge
 _atom_site_hse06_10hf_ddec_spin_density
 _atom_site_hse06_10hf_ddec_sum_bond_order
 _atom_site_hse06_10hf_magmom
 _atom_site_hse06_bader_spin_density
 _atom_site_hse06_ddec_charge
 _atom_site_hse06_ddec_spin_density
 _atom_site_hse06_ddec_sum_bond_order
 _atom_site_hse06_magmom
 _atom_site_pbe_bader_spin_density
 _atom_site_pbe_cm5_charge
 _atom_site_pbe_ddec_charge
 _atom_site_pbe_ddec_spin_density
 _atom_site_pbe_ddec_sum_bond_order
 _atom_site_pbe_magmom
Li  Li0  1  0.29664934  0.46608793  0.16083002  1  0  0.854643  0  0.39191  0  0  0.820617  0  0.487412  0  0  0.829737  0  0.470875  0  0  0.512156  0.813718  0  0.499989  0
Li  Li1  1  0.70334612  0.53391015  0.83916953  1  0  0.854649  0  0.391898  0  0  0.820625  0  0.487401  0  0  0.829744  0  0.470866  0  0  0.512163  0.813726  0  0.499977  0
Li  Li2  1  0.21524637  0.46999619  0.83409910  1  0  0.860274  0  0.380584  0  0  0.820246  0  0.486768  0  0  0.829936  0  0.469412  0  0  0.497228  0.812784  0  0.500047  0
Li  Li3  1  0.78475071  0.53000190  0.16590270  1  0  0.860279  0  0.380583  0  0  0.820244  0  0.486781  0  0  0.829933  0  0.469426  0  0  0.497233  0.81278  0  0.500062  0
Li  Li4  1  0.15557250  0.12107098  0.64283085  1  0  0.855524  0  0.388407  0  0  0.803084  0  0.512208  0  0  0.814312  0  0.493525  0  0  0.515524  0.794956  0  0.525755  0
Li  Li5  1  0.84442164  0.87892926  0.35716989  1  0  0.855544  0  0.3884  0  0  0.80309  0  0.512219  0  0  0.814317  0  0.493538  0  0  0.515527  0.794962  0  0.525767  0
H  H6  1  0.60065029  0.62531088  0.34923876  1  0  0.432784  0  0.859755  0  0  0.408461  0  0.911514  0  0  0.418451  0  0.896674  0  0  0.313457  0.401145  0  0.92241  0
H  H7  1  0.39934547  0.37468936  0.65075934  1  0  0.432772  0  0.859779  0  0  0.408461  0  0.911513  0  0  0.418451  0  0.896674  0  0  0.313454  0.401145  0  0.922409  0
H  H8  1  0.66649328  0.46321844  0.35000558  1  0  0.437224  0  0.86688  0  0  0.402653  0  0.935702  0  0  0.413986  0  0.919081  0  0  0.302459  0.394528  0  0.94762  0
H  H9  1  0.33351284  0.53678617  0.64999337  1  0  0.437232  0  0.866867  0  0  0.402667  0  0.93568  0  0  0.414005  0  0.919054  0  0  0.302463  0.394543  0  0.947595  0
H  H10  1  0.13890057  0.65832569  0.24938344  1  0  0.410966  0  0.903728  0  0  0.378833  0  0.972042  0  0  0.389948  0  0.955442  0  0  0.306378  0.370349  0  0.984869  0
H  H11  1  0.86109635  0.34167131  0.75061713  1  0  0.410952  0  0.903751  0  0  0.378815  0  0.972069  0  0  0.389929  0  0.955471  0  0  0.306356  0.37033  0  0.984897  0
H  H12  1  0.14428270  0.57922778  0.36914669  1  0  0.434923  0  0.865872  0  0  0.404018  0  0.928469  0  0  0.41534  0  0.911863  0  0  0.303037  0.395931  0  0.940341  0
H  H13  1  0.85572411  0.42077032  0.63085201  1  0  0.434979  0  0.865785  0  0  0.404051  0  0.928421  0  0  0.415374  0  0.911814  0  0  0.303047  0.395964  0  0.940293  0
H  H14  1  0.55386761  0.18014788  0.67285202  1  0  0.440026  0  0.862573  0  0  0.406159  0  0.930301  0  0  0.41684  0  0.914717  0  0  0.309993  0.398483  0  0.941595  0
H  H15  1  0.44612846  0.81985454  0.32714855  1  0  0.440039  0  0.862551  0  0  0.406171  0  0.930273  0  0  0.416851  0  0.91469  0  0  0.310018  0.398498  0  0.941562  0
H  H16  1  0.45468563  0.14493795  0.50669626  1  0  0.440855  0  0.808331  0  0  0.425609  0  0.855518  0  0  0.432515  0  0.845668  0  0  0.340471  0.420452  0  0.862481  0
H  H17  1  0.54531470  0.85506014  0.49330320  1  0  0.440849  0  0.808361  0  0  0.425602  0  0.855533  0  0  0.432507  0  0.845686  0  0  0.340472  0.420445  0  0.862512  0
C  C18  1  0.23063714  0.81876176  0.95635410  1  0  0.305924  0  3.667733  0  0  0.293073  0  3.936891  0  0  0.303147  0  3.947956  0  0  0.279832  0.28622  0  3.929673  0
C  C19  1  0.76935167  0.18123522  0.04364499  1  0  0.305825  0  3.667749  0  0  0.292974  0  3.93692  0  0  0.303047  0  3.947983  0  0  0.2798  0.286123  0  3.929699  0
C  C20  1  0.21863426  0.03720088  0.90428190  1  0  0.325219  0  3.679209  0  0  0.30861  0  3.948035  0  0  0.319132  0  3.958488  0  0  0.271913  0.301422  0  3.941189  0
C  C21  1  0.78136459  0.96279828  0.09571557  1  0  0.325081  0  3.67945  0  0  0.308535  0  3.948253  0  0  0.319057  0  3.958708  0  0  0.271906  0.301348  0  3.941402  0
C  C22  1  0.18823375  0.83115729  0.73273956  1  0  0.32861  0  3.682831  0  0  0.318016  0  3.935976  0  0  0.328701  0  3.945415  0  0  0.282662  0.310725  0  3.929535  0
C  C23  1  0.81176364  0.16884296  0.26726079  1  0  0.328797  0  3.68271  0  0  0.318017  0  3.936016  0  0  0.328704  0  3.945454  0  0  0.282672  0.310722  0  3.929582  0
C  C24  1  0.24767922  0.72806191  0.06410627  1  0  0.632956  0  3.879278  0  0  0.578897  0  4.179106  0  0  0.609976  0  4.171704  0  0  0.25013  0.557967  0  4.182916  0
C  C25  1  0.75231733  0.27194380  0.93589896  1  0  0.632918  0  3.879286  0  0  0.578863  0  4.179092  0  0  0.60994  0  4.171688  0  0  0.250113  0.55793  0  4.182901  0
C  C26  1  0.23474378  0.20345601  0.94336053  1  0  0.622739  0  3.941449  0  0  0.573856  0  4.244656  0  0  0.604616  0  4.236474  0  0  0.230451  0.552729  0  4.24985  0
C  C27  1  0.76526644  0.79654324  0.05664879  1  0  0.622953  0  3.941263  0  0  0.573934  0  4.244658  0  0  0.604698  0  4.236474  0  0  0.230472  0.552806  0  4.249854  0
C  C28  1  0.16222920  0.76396477  0.57758159  1  0  0.617046  0  3.914464  0  0  0.565739  0  4.211468  0  0  0.597193  0  4.20338  0  0  0.243706  0.544458  0  4.216115  0
C  C29  1  0.83777792  0.23603551  0.42241859  1  0  0.616971  0  3.91479  0  0  0.565841  0  4.211534  0  0  0.597294  0  4.203446  0  0  0.243684  0.544558  0  4.216182  0
N  N30  1  0.23950786  0.96335200  0.00294257  1  0  -0.340966  0  2.959506  0  0  -0.326672  0  3.228921  0  0  -0.338432  0  3.240427  0  0  -0.281713  -0.319259  0  3.222209  0
N  N31  1  0.76049231  0.03664501  0.99705860  1  0  -0.340856  0  2.959681  0  0  -0.326581  0  3.22908  0  0  -0.338336  0  3.240584  0  0  -0.281723  -0.31917  0  3.222366  0
N  N32  1  0.18667167  0.97566061  0.76757265  1  0  -0.459704  0  3.100006  0  0  -0.424017  0  3.353949  0  0  -0.436145  0  3.362305  0  0  -0.359509  -0.415797  0  3.348251  0
N  N33  1  0.81332425  0.02434073  0.23242767  1  0  -0.459716  0  3.10002  0  0  -0.42399  0  3.353998  0  0  -0.436118  0  3.362358  0  0  -0.359471  -0.415771  0  3.348304  0
N  N34  1  0.21209942  0.74730775  0.82347053  1  0  -0.365209  0  2.983512  0  0  -0.336457  0  3.236582  0  0  -0.348391  0  3.247572  0  0  -0.26059  -0.328465  0  3.22948  0
N  N35  1  0.78789117  0.25269032  0.17652911  1  0  -0.365284  0  2.98344  0  0  -0.336482  0  3.236562  0  0  -0.348417  0  3.247552  0  0  -0.26059  -0.328492  0  3.22946  0
O  O36  1  0.26203131  0.59336615  0.02417613  1  0  -0.717281  0  1.975613  0  0  -0.67798  0  2.220805  0  0  -0.697749  0  2.207879  0  0  -0.384552  -0.664442  0  2.230527  0
O  O37  1  0.73796059  0.40662974  0.97582134  1  0  -0.717168  0  1.975811  0  0  -0.677869  0  2.221004  0  0  -0.697635  0  2.208082  0  0  -0.384512  -0.664333  0  2.230727  0
O  O38  1  0.24267892  0.79567409  0.18499620  1  0  -0.6195  0  2.021754  0  0  -0.562114  0  2.240893  0  0  -0.585919  0  2.230709  0  0  -0.284045  -0.544821  0  2.247811  0
O  O39  1  0.75731963  0.20432289  0.81499978  1  0  -0.619562  0  2.021592  0  0  -0.562158  0  2.240695  0  0  -0.585961  0  2.230512  0  0  -0.284053  -0.544859  0  2.247611  0
O  O40  1  0.24320712  0.26620171  0.06696973  1  0  -0.6567  0  1.928351  0  0  -0.620352  0  2.154359  0  0  -0.640764  0  2.144343  0  0  -0.372115  -0.605753  0  2.161737  0
O  O41  1  0.75679080  0.73379091  0.93302231  1  0  -0.656872  0  1.927864  0  0  -0.620487  0  2.153928  0  0  -0.640905  0  2.143913  0  0  -0.372179  -0.605882  0  2.161304  0
O  O42  1  0.23934475  0.26162221  0.84382838  1  0  -0.732364  0  1.995107  0  0  -0.686125  0  2.238985  0  0  -0.708141  0  2.228179  0  0  -0.387087  -0.6702  0  2.246567  0
O  O43  1  0.76065766  0.73837913  0.15616824  1  0  -0.732379  0  1.995502  0  0  -0.686077  0  2.239441  0  0  -0.708091  0  2.228634  0  0  -0.38703  -0.670155  0  2.247026  0
O  O44  1  0.09493150  0.84431018  0.49489257  1  0  -0.705778  0  1.967277  0  0  -0.665588  0  2.209023  0  0  -0.685968  0  2.195163  0  0  -0.374789  -0.651044  0  2.218826  0
O  O45  1  0.90506149  0.15569333  0.50510961  1  0  -0.705717  0  1.967424  0  0  -0.665575  0  2.209058  0  0  -0.685983  0  2.195252  0  0  -0.374752  -0.651032  0  2.218862  0
O  O46  1  0.21407165  0.63568252  0.54461291  1  0  -0.59045  0  2.00325  0  0  -0.528126  0  2.208036  0  0  -0.553492  0  2.197414  0  0  -0.275535  -0.510147  0  2.214946  0
O  O47  1  0.78597124  0.36432981  0.45539336  1  0  -0.590533  0  2.00338  0  0  -0.528183  0  2.208019  0  0  -0.553545  0  2.197397  0  0  -0.275536  -0.510204  0  2.214933  0
O  O48  1  0.59640396  0.52780857  0.28817824  1  0  -0.963872  0  1.826551  0  0  -0.922983  0  2.004525  0  0  -0.937993  0  1.969102  0  0  -0.683588  -0.912067  0  2.030017  0
O  O49  1  0.40359327  0.47219061  0.71182382  1  0  -0.963896  0  1.826561  0  0  -0.923  0  2.004521  0  0  -0.938015  0  1.969082  0  0  -0.683601  -0.912097  0  2.030035  0
O  O50  1  0.10324950  0.56170115  0.26422088  1  0  -0.963723  0  1.848347  0  0  -0.923739  0  2.029247  0  0  -0.939079  0  1.993574  0  0  -0.690455  -0.912908  0  2.055576  0
O  O51  1  0.89674759  0.43829695  0.73578190  1  0  -0.963777  0  1.848283  0  0  -0.923792  0  2.029205  0  0  -0.939129  0  1.993536  0  0  -0.690466  -0.912957  0  2.055533  0
O  O52  1  0.41687328  0.17672979  0.59326028  1  0  -0.884118  0  1.792505  0  0  -0.833713  0  1.958866  0  0  -0.851744  0  1.929783  0  0  -0.605434  -0.820949  0  1.97959  0
O  O53  1  0.58312604  0.82327265  0.40674186  1  0  -0.884127  0  1.792506  0  0  -0.8337  0  1.958879  0  0  -0.85173  0  1.929799  0  0  -0.605449  -0.820938  0  1.979617  0
