# generated using pymatgen
data_CdH14C13N3O5
_symmetry_space_group_name_H-M   'P 1'
_cell_length_a   7.33641408
_cell_length_b   10.09065409
_cell_length_c   10.32836892
_cell_angle_alpha   89.89251717
_cell_angle_beta   79.56763328
_cell_angle_gamma   72.27442690
_symmetry_Int_Tables_number   1
_chemical_formula_structural   CdH14C13N3O5
_chemical_formula_sum   'Cd2 H28 C26 N6 O10'
_cell_volume   715.10453840
_cell_formula_units_Z   2
loop_
 _symmetry_equiv_pos_site_id
 _symmetry_equiv_pos_as_xyz
  1  'x, y, z'
loop_
 _atom_site_type_symbol
 _atom_site_label
 _atom_site_symmetry_multiplicity
 _atom_site_fract_x
 _atom_site_fract_y
 _atom_site_fract_z
 _atom_site_occupancy
 _atom_site_hle17_bader_spin_density
 _atom_site_hle17_ddec_charge
 _atom_site_hle17_ddec_spin_density
 _atom_site_hle17_ddec_sum_bond_order
 _atom_site_hle17_magmom
 _atom_site_hse06_10hf_bader_spin_density
 _atom_site_hse06_10hf_ddec_charge
 _atom_site_hse06_10hf_ddec_spin_density
 _atom_site_hse06_10hf_ddec_sum_bond_order
 _atom_site_hse06_10hf_magmom
 _atom_site_hse06_bader_spin_density
 _atom_site_hse06_ddec_charge
 _atom_site_hse06_ddec_spin_density
 _atom_site_hse06_ddec_sum_bond_order
 _atom_site_hse06_magmom
 _atom_site_pbe_bader_spin_density
 _atom_site_pbe_cm5_charge
 _atom_site_pbe_ddec_charge
 _atom_site_pbe_ddec_spin_density
 _atom_site_pbe_ddec_sum_bond_order
 _atom_site_pbe_magmom
Cd  Cd0  1  0.49411107  0.21944628  0.93892938  1  0  1.19511  0  1.608997  0  0  1.015717  0  2.053357  0  0  1.073281  0  1.997217  0  0  0.773241  0.974504  0  2.091697  0
Cd  Cd1  1  0.50589735  0.78054132  0.06106817  1  0  1.195116  0  1.608907  0  0  1.01574  0  2.053318  0  0  1.073302  0  1.997177  0  0  0.773255  0.974526  0  2.09166  0
H  H2  1  0.87567772  0.25554439  0.87142221  1  0  0.420066  0  0.826465  0  0  0.404601  0  0.877803  0  0  0.4125  0  0.869192  0  0  0.31633  0.398736  0  0.884439  0
H  H3  1  0.12431980  0.74445569  0.12857368  1  0  0.420088  0  0.826495  0  0  0.404609  0  0.87785  0  0  0.412508  0  0.869243  0  0  0.316351  0.398746  0  0.884485  0
H  H4  1  0.75058674  0.39774285  0.95447890  1  0  0.427707  0  0.880441  0  0  0.39186  0  0.952609  0  0  0.403864  0  0.935287  0  0  0.283986  0.383299  0  0.964905  0
H  H5  1  0.24940615  0.60225522  0.04551964  1  0  0.427687  0  0.880479  0  0  0.39181  0  0.952679  0  0  0.403816  0  0.935355  0  0  0.283967  0.38325  0  0.964975  0
H  H6  1  0.13878200  0.10137979  0.38847827  1  0  0.093554  0  0.965304  0  0  0.104721  0  1.031531  0  0  0.107888  0  1.029158  0  0  0.099037  0.10249  0  1.033152  0
H  H7  1  0.86123649  0.89861725  0.61152440  1  0  0.093601  0  0.965289  0  0  0.104787  0  1.031483  0  0  0.107943  0  1.029127  0  0  0.099091  0.102556  0  1.033105  0
H  H8  1  0.73970181  0.51858027  0.42501673  1  0  0.106639  0  0.972377  0  0  0.107297  0  1.051776  0  0  0.112097  0  1.047172  0  0  0.102205  0.103902  0  1.054934  0
H  H9  1  0.26029318  0.48140640  0.57498373  1  0  0.106621  0  0.972387  0  0  0.107204  0  1.051862  0  0  0.112009  0  1.047253  0  0  0.102181  0.103812  0  1.055022  0
H  H10  1  0.00768050  0.31368867  0.04135182  1  0  0.090231  0  0.982755  0  0  0.097811  0  1.053937  0  0  0.10171  0  1.050024  0  0  0.101485  0.095087  0  1.056437  0
H  H11  1  0.99232296  0.68629807  0.95865421  1  0  0.090201  0  0.982783  0  0  0.097766  0  1.053986  0  0  0.101663  0  1.050072  0  0  0.101451  0.095042  0  1.056487  0
H  H12  1  0.02238015  0.35873815  0.60526914  1  0  0.117607  0  0.957086  0  0  0.138177  0  1.021991  0  0  0.13906  0  1.022606  0  0  0.092515  0.137508  0  1.021582  0
H  H13  1  0.97761653  0.64125795  0.39473568  1  0  0.117603  0  0.957058  0  0  0.138225  0  1.021898  0  0  0.139107  0  1.02251  0  0  0.092546  0.137557  0  1.02149  0
H  H14  1  0.95322889  0.20481997  0.60585657  1  0  0.100037  0  0.948892  0  0  0.121688  0  1.01102  0  0  0.123564  0  1.009777  0  0  0.086175  0.120163  0  1.012147  0
H  H15  1  0.04676785  0.79517619  0.39415115  1  0  0.100046  0  0.948916  0  0  0.121694  0  1.011053  0  0  0.123561  0  1.00982  0  0  0.086167  0.120168  0  1.01218  0
H  H16  1  0.77388361  0.37076419  0.62175504  1  0  0.117803  0  0.957764  0  0  0.138333  0  1.019717  0  0  0.139871  0  1.019329  0  0  0.094722  0.137167  0  1.019946  0
H  H17  1  0.22611902  0.62923384  0.37824308  1  0  0.117888  0  0.957699  0  0  0.138413  0  1.019668  0  0  0.139954  0  1.019273  0  0  0.094735  0.137243  0  1.019902  0
H  H18  1  0.30388574  0.45677607  0.20916242  1  0  0.104175  0  0.949021  0  0  0.114238  0  1.00986  0  0  0.116285  0  1.007903  0  0  0.136236  0.112713  0  1.011301  0
H  H19  1  0.69611239  0.54323229  0.79083124  1  0  0.104097  0  0.949123  0  0  0.114269  0  1.009852  0  0  0.116322  0  1.007879  0  0  0.136231  0.112744  0  1.011294  0
H  H20  1  0.70004275  0.05412160  0.19944003  1  0  0.121732  0  0.920616  0  0  0.133377  0  0.978761  0  0  0.136234  0  0.975158  0  0  0.145426  0.131313  0  0.981187  0
H  H21  1  0.29995243  0.94588808  0.80056758  1  0  0.121671  0  0.920653  0  0  0.133323  0  0.978794  0  0  0.136182  0  0.975193  0  0  0.145394  0.131257  0  0.981222  0
H  H22  1  0.60189851  0.23937744  0.54335153  1  0  0.104608  0  0.918722  0  0  0.120914  0  0.977797  0  0  0.122037  0  0.977193  0  0  0.125578  0.119989  0  0.978353  0
H  H23  1  0.39808934  0.76063948  0.45665307  1  0  0.104616  0  0.918757  0  0  0.12099  0  0.977763  0  0  0.12211  0  0.977157  0  0  0.125605  0.120063  0  0.978323  0
H  H24  1  0.76759386  0.08920408  0.44915825  1  0  0.071599  0  0.928153  0  0  0.089061  0  0.990778  0  0  0.088911  0  0.991471  0  0  0.11081  0.089179  0  0.990178  0
H  H25  1  0.23239408  0.91081294  0.55085118  1  0  0.071614  0  0.928187  0  0  0.089113  0  0.990756  0  0  0.088961  0  0.991446  0  0  0.110823  0.089228  0  0.99016  0
H  H26  1  0.33651685  0.13149911  0.56602536  1  0  0.079468  0  0.932237  0  0  0.099219  0  0.992617  0  0  0.099893  0  0.993189  0  0  0.095615  0.098657  0  0.992248  0
H  H27  1  0.66347415  0.86851975  0.43397197  1  0  0.079499  0  0.932198  0  0  0.099289  0  0.992522  0  0  0.099963  0  0.993096  0  0  0.095637  0.098726  0  0.992157  0
H  H28  1  0.53560416  0.03751811  0.63634641  1  0  0.079999  0  0.954837  0  0  0.096254  0  1.021563  0  0  0.096955  0  1.021961  0  0  0.0944  0.095763  0  1.021142  0
H  H29  1  0.46437800  0.96249872  0.36365223  1  0  0.080021  0  0.954797  0  0  0.096213  0  1.021584  0  0  0.096914  0  1.021983  0  0  0.094361  0.095725  0  1.021158  0
C  C30  1  0.22047502  0.07037467  0.12270867  1  0  0.646512  0  3.933061  0  0  0.59675  0  4.222411  0  0  0.63202  0  4.215752  0  0  0.196939  0.572689  0  4.226514  0
C  C31  1  0.77952028  0.92962450  0.87729337  1  0  0.64683  0  3.932997  0  0  0.597036  0  4.222395  0  0  0.632309  0  4.215734  0  0  0.19706  0.572975  0  4.226495  0
C  C32  1  0.08465263  0.19450434  0.20668588  1  0  -0.081829  0  3.811861  0  0  -0.055347  0  4.050173  0  0  -0.065239  0  4.074794  0  0  -0.030709  -0.049062  0  4.03344  0
C  C33  1  0.91535449  0.80548641  0.79331274  1  0  -0.081858  0  3.811712  0  0  -0.055392  0  4.050073  0  0  -0.06528  0  4.074688  0  0  -0.030733  -0.04911  0  4.033345  0
C  C34  1  0.06023673  0.19462462  0.34436197  1  0  -0.124667  0  3.702873  0  0  -0.163449  0  3.95606  0  0  -0.16192  0  3.974808  0  0  -0.08895  -0.164031  0  3.943001  0
C  C35  1  0.93977076  0.80536197  0.65563670  1  0  -0.124804  0  3.702826  0  0  -0.163605  0  3.956067  0  0  -0.16207  0  3.974816  0  0  -0.089055  -0.164189  0  3.943016  0
C  C36  1  0.94090126  0.31150612  0.42442102  1  0  0.137324  0  3.756409  0  0  0.166292  0  3.997799  0  0  0.164693  0  4.022641  0  0  -0.00868  0.167334  0  3.980708  0
C  C37  1  0.05911149  0.68848772  0.57557673  1  0  0.137348  0  3.756537  0  0  0.166295  0  3.997964  0  0  0.164697  0  4.022797  0  0  -0.008673  0.167337  0  3.980875  0
C  C38  1  0.83927324  0.42832800  0.36396721  1  0  -0.103479  0  3.648687  0  0  -0.137228  0  3.894781  0  0  -0.135703  0  3.912042  0  0  -0.077046  -0.137776  0  3.882752  0
C  C39  1  0.16072868  0.57166166  0.63602831  1  0  -0.103506  0  3.648832  0  0  -0.137123  0  3.894875  0  0  -0.135645  0  3.912211  0  0  -0.077054  -0.137677  0  3.882854  0
C  C40  1  0.85990632  0.42913274  0.22638624  1  0  -0.065696  0  3.772046  0  0  -0.039177  0  4.009397  0  0  -0.047961  0  4.032201  0  0  -0.020861  -0.033813  0  3.993966  0
C  C41  1  0.14010109  0.57085378  0.77360857  1  0  -0.065725  0  3.772138  0  0  -0.039267  0  4.009575  0  0  -0.048043  0  4.032369  0  0  -0.020988  -0.033905  0  3.994151  0
C  C42  1  0.98510276  0.31262270  0.14816221  1  0  -0.082019  0  3.736812  0  0  -0.124519  0  3.994172  0  0  -0.122145  0  4.013497  0  0  -0.087004  -0.125161  0  3.979957  0
C  C43  1  0.01490019  0.68736807  0.85183701  1  0  -0.082071  0  3.736671  0  0  -0.124528  0  3.994042  0  0  -0.122162  0  4.013375  0  0  -0.086964  -0.125165  0  3.97981  0
C  C44  1  0.92124397  0.31121227  0.57172959  1  0  -0.343232  0  3.726336  0  0  -0.42697  0  3.963161  0  0  -0.428891  0  3.973032  0  0  -0.243443  -0.425439  0  3.956467  0
C  C45  1  0.07875907  0.68878164  0.42827051  1  0  -0.343352  0  3.726344  0  0  -0.427118  0  3.963156  0  0  -0.429029  0  3.973031  0  0  -0.243474  -0.425587  0  3.956463  0
C  C46  1  0.74507882  0.55198821  0.16299489  1  0  0.641  0  3.90515  0  0  0.590614  0  4.191049  0  0  0.625131  0  4.185775  0  0  0.199204  0.567309  0  4.193816  0
C  C47  1  0.25492023  0.44799528  0.83700313  1  0  0.641272  0  3.905089  0  0  0.590845  0  4.191023  0  0  0.625361  0  4.185746  0  0  0.199372  0.567538  0  4.193795  0
C  C48  1  0.39861045  0.36181649  0.23989167  1  0  0.207072  0  3.699295  0  0  0.152489  0  3.990271  0  0  0.163432  0  4.005738  0  0  0.147392  0.145347  0  3.979416  0
C  C49  1  0.60139091  0.63819083  0.76010253  1  0  0.207123  0  3.699502  0  0  0.152454  0  3.990458  0  0  0.163398  0  4.005924  0  0  0.147388  0.145306  0  3.979613  0
C  C50  1  0.60102674  0.15714839  0.23261548  1  0  0.17113  0  3.640084  0  0  0.091993  0  3.907988  0  0  0.106368  0  3.920718  0  0  0.163143  0.083077  0  3.89852  0
C  C51  1  0.39897297  0.84286015  0.76738764  1  0  0.171133  0  3.640029  0  0  0.092069  0  3.907926  0  0  0.106439  0  3.920659  0  0  0.163196  0.083144  0  3.898468  0
C  C52  1  0.61362793  0.15212449  0.47636589  1  0  -0.0078  0  3.622223  0  0  -0.08332  0  3.879059  0  0  -0.07913  0  3.889675  0  0  -0.044456  -0.085763  0  3.871695  0
C  C53  1  0.38636321  0.84789449  0.52363819  1  0  -0.007893  0  3.622415  0  0  -0.083433  0  3.879285  0  0  -0.079226  0  3.889874  0  0  -0.044473  -0.085882  0  3.871927  0
C  C54  1  0.48949531  0.06511876  0.54162791  1  0  -0.136693  0  3.695537  0  0  -0.183645  0  3.968896  0  0  -0.185084  0  3.982433  0  0  -0.168201  -0.18243  0  3.959297  0
C  C55  1  0.51049204  0.93490219  0.45836989  1  0  -0.136769  0  3.695371  0  0  -0.183679  0  3.968686  0  0  -0.185128  0  3.982225  0  0  -0.168204  -0.182466  0  3.959088  0
N  N56  1  0.50484117  0.24923764  0.15600863  1  0  -0.437421  0  3.243965  0  0  -0.362256  0  3.543083  0  0  -0.387185  0  3.559183  0  0  -0.353197  -0.344901  0  3.531023  0
N  N57  1  0.49516020  0.75076664  0.84398951  1  0  -0.43737  0  3.24391  0  0  -0.362189  0  3.543023  0  0  -0.387117  0  3.55912  0  0  -0.353172  -0.344838  0  3.530977  0
N  N58  1  0.55352709  0.21316032  0.35681375  1  0  0.041107  0  3.561329  0  0  0.165571  0  3.74355  0  0  0.154248  0  3.769768  0  0  -0.131692  0.171418  0  3.728627  0
N  N59  1  0.44647132  0.78685442  0.64318746  1  0  0.041124  0  3.561311  0  0  0.165359  0  3.743811  0  0  0.154033  0  3.770023  0  0  -0.131868  0.171262  0  3.728781  0
N  N60  1  0.42411723  0.34371209  0.36322569  1  0  -0.259156  0  2.844693  0  0  -0.254414  0  3.109532  0  0  -0.263446  0  3.12497  0  0  -0.211692  -0.248081  0  3.099316  0
N  N61  1  0.57588012  0.65630151  0.63676990  1  0  -0.25909  0  2.844652  0  0  -0.254304  0  3.109617  0  0  -0.263334  0  3.125047  0  0  -0.211581  -0.247988  0  3.099411  0
O  O62  1  0.27502847  0.08220427  0.00009964  1  0  -0.681647  0  1.982274  0  0  -0.620428  0  2.229058  0  0  -0.647249  0  2.215283  0  0  -0.342667  -0.601769  0  2.238081  0
O  O63  1  0.72498920  0.91777818  0.99990157  1  0  -0.681784  0  1.982383  0  0  -0.620533  0  2.229129  0  0  -0.647353  0  2.215354  0  0  -0.342674  -0.601876  0  2.238153  0
O  O64  1  0.27571109  0.95741426  0.18201210  1  0  -0.641441  0  1.999176  0  0  -0.570568  0  2.246862  0  0  -0.600459  0  2.235182  0  0  -0.331547  -0.549937  0  2.254356  0
O  O65  1  0.72429483  0.04258279  0.81798945  1  0  -0.64149  0  1.999297  0  0  -0.5706  0  2.246998  0  0  -0.600489  0  2.235318  0  0  -0.331535  -0.549969  0  2.25449  0
O  O66  1  0.66752142  0.66895929  0.22809378  1  0  -0.625646  0  1.917787  0  0  -0.560189  0  2.149236  0  0  -0.588767  0  2.139723  0  0  -0.324165  -0.540048  0  2.154914  0
O  O67  1  0.33248636  0.33102001  0.77190407  1  0  -0.625839  0  1.917585  0  0  -0.560311  0  2.148961  0  0  -0.588886  0  2.139446  0  0  -0.324272  -0.54017  0  2.154642  0
O  O68  1  0.72575526  0.53682252  0.04326961  1  0  -0.655128  0  2.002457  0  0  -0.581527  0  2.233951  0  0  -0.611817  0  2.225164  0  0  -0.321501  -0.560183  0  2.238887  0
O  O69  1  0.27424550  0.46317653  0.95672681  1  0  -0.655256  0  2.002555  0  0  -0.581553  0  2.233953  0  0  -0.611842  0  2.225168  0  0  -0.321497  -0.560211  0  2.23889  0
O  O70  1  0.74933164  0.32695693  0.88588920  1  0  -0.82852  0  1.858176  0  0  -0.773939  0  2.055665  0  0  -0.79503  0  2.026676  0  0  -0.578619  -0.759249  0  2.076144  0
O  O71  1  0.25066307  0.67304009  0.11410911  1  0  -0.828498  0  1.858221  0  0  -0.773871  0  2.055786  0  0  -0.794963  0  2.026798  0  0  -0.578603  -0.759176  0  2.076255  0
