# generated using pymatgen
data_KFe2H24C12S(N2O5)2
_symmetry_space_group_name_H-M   'P 1'
_cell_length_a   9.38510702
_cell_length_b   11.08641451
_cell_length_c   12.96600000
_cell_angle_alpha   99.61096828
_cell_angle_beta   109.23288410
_cell_angle_gamma   112.78754392
_symmetry_Int_Tables_number   1
_chemical_formula_structural   KFe2H24C12S(N2O5)2
_chemical_formula_sum   'K2 Fe4 H48 C24 S2 N8 O20'
_cell_volume   1105.08959665
_cell_formula_units_Z   2
loop_
 _symmetry_equiv_pos_site_id
 _symmetry_equiv_pos_as_xyz
  1  'x, y, z'
loop_
 _atom_site_type_symbol
 _atom_site_label
 _atom_site_symmetry_multiplicity
 _atom_site_fract_x
 _atom_site_fract_y
 _atom_site_fract_z
 _atom_site_occupancy
 _atom_site_hle17_bader_spin_density
 _atom_site_hle17_ddec_charge
 _atom_site_hle17_ddec_spin_density
 _atom_site_hle17_ddec_sum_bond_order
 _atom_site_hle17_magmom
 _atom_site_hse06_10hf_bader_spin_density
 _atom_site_hse06_10hf_ddec_charge
 _atom_site_hse06_10hf_ddec_spin_density
 _atom_site_hse06_10hf_ddec_sum_bond_order
 _atom_site_hse06_10hf_magmom
 _atom_site_hse06_bader_spin_density
 _atom_site_hse06_ddec_charge
 _atom_site_hse06_ddec_spin_density
 _atom_site_hse06_ddec_sum_bond_order
 _atom_site_hse06_magmom
 _atom_site_pbe_bader_charge
 _atom_site_pbe_bader_spin_density
 _atom_site_pbe_cm5_charge
 _atom_site_pbe_ddec_charge
 _atom_site_pbe_ddec_spin_density
 _atom_site_pbe_ddec_sum_bond_order
 _atom_site_pbe_magmom
K  K0  1  0.49989911  0.92457796  0.33660592  1  0  0.894793  0  0.529704  0  0  0.81907  0  0.730541  0  0  0.837868  0  0.706789  0  0.879702  0  0.85847  0.804812  0  0.747916  0
K  K1  1  0.50010316  0.07542364  0.66339215  1  0  0.894794  0  0.529661  0  0  0.819063  0  0.730519  0  0  0.837861  0  0.706768  0  0.879693  0  0.858472  0.80481  0  0.747884  0
Fe  Fe2  1  0.62414310  0.62893338  0.08734465  1  0  0.224547  0  4.050513  0  0  0.184292  0  4.683561  0  0  0.149557  0  4.712349  0  0.858896  0  0.653268  0.209068  0  4.661724  0
Fe  Fe3  1  0.37585100  0.37106197  0.91264287  1  0  0.22476  0  4.05041  0  0  0.184816  0  4.683451  0  0  0.149468  0  4.712421  0  0.858826  0  0.653377  0.209226  0  4.661732  0
Fe  Fe4  1  0.57598341  0.47015531  0.20943017  1  0  0.164866  0  4.225024  0  0  0.08695  0  4.914425  0  0  0.033374  0  4.967049  0  0.923058  0  0.734067  0.120852  0  4.881667  0
Fe  Fe5  1  0.42401121  0.52983901  0.79055733  1  0  0.164511  0  4.224666  0  0  0.086801  0  4.914112  0  0  0.033139  0  4.966727  0  0.923338  0  0.733912  0.120561  0  4.88136  0
H  H6  1  0.07469622  0.23674793  0.54139032  1  0  0.053855  0  0.939832  0  0  0.06668  0  1.008945  0  0  0.065825  0  1.009857  0  0.058903  0  0.100783  0.066958  0  1.008806  0
H  H7  1  0.92530337  0.76325679  0.45861527  1  0  0.053844  0  0.939863  0  0  0.066702  0  1.008953  0  0  0.065855  0  1.00986  0  0.058837  0  0.10081  0.066984  0  1.008814  0
H  H8  1  0.90082471  0.27133962  0.53210936  1  0  0.064284  0  0.936817  0  0  0.071575  0  1.010841  0  0  0.0735  0  1.008771  0  0.073381  0  0.103075  0.070167  0  1.012539  0
H  H9  1  0.09917079  0.72866198  0.46789096  1  0  0.064286  0  0.93672  0  0  0.071616  0  1.010739  0  0  0.073541  0  1.008663  0  0.073469  0  0.103075  0.070208  0  1.012444  0
H  H10  1  0.98058310  0.29905165  0.36915006  1  0  0.051367  0  0.930149  0  0  0.062855  0  1.002374  0  0  0.063964  0  1.0007  0  0.063634  0  0.098333  0.0622  0  1.003419  0
H  H11  1  0.01941917  0.70094994  0.63085418  1  0  0.051341  0  0.930142  0  0  0.062849  0  1.002391  0  0  0.063969  0  1.000708  0  0.063644  0  0.098326  0.062194  0  1.003434  0
H  H12  1  0.93419991  0.12050898  0.32569867  1  0  0.04834  0  0.940616  0  0  0.061794  0  1.010204  0  0  0.061857  0  1.009922  0  0.044844  0  0.099913  0.061555  0  1.010523  0
H  H13  1  0.06580010  0.87949262  0.67430657  1  0  0.048359  0  0.940661  0  0  0.061856  0  1.01022  0  0  0.061919  0  1.009939  0  0.044623  0  0.09993  0.061615  0  1.01054  0
H  H14  1  0.71461299  0.07589462  0.14204758  1  0  0.053876  0  0.933815  0  0  0.066218  0  1.002674  0  0  0.066629  0  1.00191  0  0.034554  0  0.101731  0.065521  0  1.003757  0
H  H15  1  0.28539458  0.92411217  0.85795481  1  0  0.053812  0  0.933696  0  0  0.066196  0  1.002565  0  0  0.066608  0  1.0018  0  0.034514  0  0.101714  0.0655  0  1.003647  0
H  H16  1  0.75352394  0.25247643  0.18367418  1  0  0.05192  0  0.933554  0  0  0.067443  0  0.999786  0  0  0.067324  0  0.999984  0  0.05024  0  0.096662  0.067327  0  0.999985  0
H  H17  1  0.24647522  0.74753140  0.81633098  1  0  0.051901  0  0.933576  0  0  0.067456  0  0.999805  0  0  0.067334  0  1.000005  0  0.050238  0  0.096685  0.067339  0  1.000003  0
H  H18  1  0.45772760  0.16682739  0.17483046  1  0  0.051944  0  0.948026  0  0  0.061697  0  1.02336  0  0  0.06138  0  1.024845  0  0.058683  0  0.100243  0.061762  0  1.022797  0
H  H19  1  0.54227223  0.83317005  0.82517569  1  0  0.051924  0  0.947968  0  0  0.061753  0  1.023297  0  0  0.061438  0  1.024778  0  0.058665  0  0.100283  0.061819  0  1.022733  0
H  H20  1  0.46331693  0.11587714  0.03902626  1  0  0.061656  0  0.931058  0  0  0.074622  0  0.998198  0  0  0.074429  0  0.998479  0  0.059171  0  0.100696  0.074492  0  0.998373  0
H  H21  1  0.53668083  0.88412446  0.96097922  1  0  0.061664  0  0.931058  0  0  0.074669  0  0.998227  0  0  0.074476  0  0.998508  0  0.059106  0  0.100724  0.074538  0  0.998405  0
H  H22  1  0.16623878  0.92719383  0.98415099  1  0  0.054341  0  0.939349  0  0  0.06659  0  1.008234  0  0  0.067043  0  1.007309  0  0.065418  0  0.099027  0.066088  0  1.009122  0
H  H23  1  0.83376782  0.07280361  0.01585138  1  0  0.054325  0  0.939356  0  0  0.066585  0  1.00826  0  0  0.067045  0  1.007319  0  0.065419  0  0.098989  0.066082  0  1.009149  0
H  H24  1  0.19226576  0.97682160  0.12971803  1  0  0.055133  0  0.929873  0  0  0.065622  0  1.000965  0  0  0.06665  0  0.999588  0  0.059985  0  0.100522  0.064678  0  1.002176  0
H  H25  1  0.80773624  0.02317376  0.87028525  1  0  0.055163  0  0.92985  0  0  0.0656  0  1.001003  0  0  0.066626  0  0.999629  0  0.059639  0  0.10049  0.064656  0  1.002214  0
H  H26  1  0.98610960  0.72593382  0.01745309  1  0  0.05904  0  0.940192  0  0  0.069806  0  1.011363  0  0  0.068433  0  1.013405  0  0.083675  0  0.101865  0.070687  0  1.010068  0
H  H27  1  0.01389743  0.27406050  0.98254507  1  0  0.059076  0  0.940215  0  0  0.069789  0  1.011381  0  0  0.068412  0  1.013427  0  0.083615  0  0.10185  0.070671  0  1.010085  0
H  H28  1  0.15490486  0.70048000  0.99804059  1  0  0.048787  0  0.939585  0  0  0.064833  0  1.00595  0  0  0.065451  0  1.005295  0  0.050673  0  0.092639  0.064482  0  1.00634  0
H  H29  1  0.84510452  0.29951640  0.00196152  1  0  0.048895  0  0.939591  0  0  0.06488  0  1.005976  0  0  0.065483  0  1.005332  0  0.049848  0  0.092663  0.064528  0  1.006367  0
H  H30  1  0.98689728  0.62977554  0.20608953  1  0  0.056922  0  0.935782  0  0  0.06755  0  1.009287  0  0  0.067531  0  1.009721  0  0.058261  0  0.096439  0.06739  0  1.009188  0
H  H31  1  0.01310134  0.37021982  0.79390909  1  0  0.056983  0  0.935694  0  0  0.067593  0  1.009231  0  0  0.067578  0  1.00965  0  0.058251  0  0.096459  0.067435  0  1.009131  0
H  H32  1  0.00249642  0.53817840  0.08776912  1  0  0.050949  0  0.951915  0  0  0.068749  0  1.016861  0  0  0.068054  0  1.017961  0  0.035563  0  0.099619  0.069038  0  1.016489  0
H  H33  1  0.99750671  0.46181696  0.91223212  1  0  0.050952  0  0.951896  0  0  0.068757  0  1.016846  0  0  0.068054  0  1.017956  0  0.035572  0  0.099637  0.069046  0  1.016475  0
H  H34  1  0.10804861  0.47232516  0.25696830  1  0  0.049786  0  0.920526  0  0  0.064554  0  0.985685  0  0  0.065585  0  0.984067  0  0.036157  0  0.097071  0.06366  0  0.987139  0
H  H35  1  0.89195122  0.52767228  0.74303707  1  0  0.049836  0  0.92056  0  0  0.064595  0  0.985688  0  0  0.065629  0  0.984067  0  0.036272  0  0.097085  0.0637  0  0.987146  0
H  H36  1  0.27754865  0.55886002  0.21839957  1  0  0.055303  0  0.941738  0  0  0.068301  0  1.009102  0  0  0.067319  0  1.0103  0  0.055362  0  0.102421  0.068751  0  1.008327  0
H  H37  1  0.72245223  0.44113534  0.78160498  1  0  0.055342  0  0.941696  0  0  0.068315  0  1.009048  0  0  0.067332  0  1.010248  0  0.055484  0  0.102416  0.068765  0  1.008272  0
H  H38  1  0.49307109  0.63440010  0.41356284  1  0  0.047977  0  0.951107  0  0  0.056763  0  1.029029  0  0  0.056859  0  1.029365  0  0.057709  0  0.098237  0.056439  0  1.029088  0
H  H39  1  0.50693545  0.36560877  0.58644346  1  0  0.047992  0  0.951098  0  0  0.056752  0  1.029045  0  0  0.056851  0  1.029389  0  0.057735  0  0.098215  0.056425  0  1.029109  0
H  H40  1  0.32596593  0.54049484  0.45194427  1  0  0.052823  0  0.921082  0  0  0.068643  0  0.98367  0  0  0.069358  0  0.98272  0  0.037116  0  0.098982  0.068123  0  0.984451  0
H  H41  1  0.67404391  0.45951195  0.54806020  1  0  0.052858  0  0.921097  0  0  0.068677  0  0.983682  0  0  0.069398  0  0.982737  0  0.037201  0  0.099005  0.068158  0  0.984461  0
H  H42  1  0.39073225  0.76220254  0.58843273  1  0  0.074301  0  0.964571  0  0  0.080023  0  1.038302  0  0  0.081788  0  1.036714  0  0.10902  0  0.11005  0.078648  0  1.039715  0
H  H43  1  0.60926795  0.23780322  0.41156621  1  0  0.074285  0  0.96463  0  0  0.080043  0  1.038301  0  0  0.08181  0  1.036701  0  0.109071  0  0.110057  0.078668  0  1.039713  0
H  H44  1  0.56095035  0.71971956  0.62830401  1  0  0.058027  0  0.951461  0  0  0.071253  0  1.0192  0  0  0.07055  0  1.020658  0  0.066458  0  0.103925  0.071741  0  1.018338  0
H  H45  1  0.43904829  0.28028932  0.37170118  1  0  0.058085  0  0.951449  0  0  0.071283  0  1.019185  0  0  0.070578  0  1.020639  0  0.0664  0  0.103942  0.07177  0  1.018323  0
H  H46  1  0.77387482  0.83418479  0.53508359  1  0  0.055571  0  0.939034  0  0  0.070992  0  1.004661  0  0  0.071395  0  1.004193  0  0.057991  0  0.103762  0.070479  0  1.005355  0
H  H47  1  0.22612989  0.16582097  0.46492646  1  0  0.055558  0  0.939167  0  0  0.071033  0  1.004747  0  0  0.07144  0  1.004287  0  0.057977  0  0.103799  0.070522  0  1.005443  0
H  H48  1  0.82387234  0.90096856  0.68556586  1  0  0.054016  0  0.939498  0  0  0.064805  0  1.012996  0  0  0.065893  0  1.010806  0  0.046492  0  0.101501  0.064305  0  1.014206  0
H  H49  1  0.17612639  0.09904239  0.31444427  1  0  0.053949  0  0.939528  0  0  0.064813  0  1.012995  0  0  0.06591  0  1.010791  0  0.046624  0  0.101455  0.064314  0  1.014206  0
H  H50  1  0.86769458  0.13331074  0.65956818  1  0  0.059642  0  0.937829  0  0  0.070508  0  1.008915  0  0  0.071646  0  1.008047  0  0.054512  0  0.107175  0.069737  0  1.009612  0
H  H51  1  0.13230745  0.86669813  0.34043704  1  0  0.059659  0  0.937823  0  0  0.070538  0  1.008918  0  0  0.07168  0  1.008041  0  0.05448  0  0.107156  0.069738  0  1.009641  0
H  H52  1  0.01996237  0.08002325  0.64655902  1  0  0.063001  0  0.929191  0  0  0.07352  0  1.000183  0  0  0.072985  0  1.000877  0  0.080474  0  0.104771  0.07365  0  0.999968  0
H  H53  1  0.98003679  0.91998458  0.35344692  1  0  0.06294  0  0.929242  0  0  0.073503  0  1.000196  0  0  0.07297  0  1.000887  0  0.080534  0  0.104779  0.073634  0  0.999975  0
C  C54  1  0.93609115  0.19889679  0.49095855  1  0  0.046948  0  3.669823  0  0  -0.011199  0  3.943639  0  0  -0.005057  0  3.949833  0  0.419485  0  -0.078647  -0.015396  0  3.939625  0
C  C55  1  0.06390670  0.80110689  0.50904493  1  0  0.046847  0  3.669557  0  0  -0.011393  0  3.943499  0  0  -0.005247  0  3.949689  0  0.419548  0  -0.078724  -0.015597  0  3.939487  0
C  C56  1  0.90082920  0.19407988  0.36762911  1  0  0.058792  0  3.68212  0  0  -0.004774  0  3.959401  0  0  0.001885  0  3.964956  0  0.415457  0  -0.07491  -0.009088  0  3.955051  0
C  C57  1  0.09917255  0.80592276  0.63237515  1  0  0.058899  0  3.682024  0  0  -0.004779  0  3.959465  0  0  0.001867  0  3.965022  0  0.415643  0  -0.074916  -0.009088  0  3.955116  0
C  C58  1  0.68102266  0.14787583  0.18588213  1  0  0.063557  0  3.662091  0  0  0.003161  0  3.93328  0  0  0.009912  0  3.938862  0  0.428491  0  -0.073238  -0.001028  0  3.929075  0
C  C59  1  0.31898144  0.85212889  0.81412145  1  0  0.063734  0  3.661663  0  0  0.003226  0  3.933133  0  0  0.009978  0  3.938709  0  0.428515  0  -0.073245  -0.000965  0  3.928932  0
C  C60  1  0.49208907  0.10155326  0.12443017  1  0  0.052135  0  3.669704  0  0  -0.006259  0  3.942952  0  0  -0.000111  0  3.949796  0  0.433608  0  -0.078641  -0.01042  0  3.938244  0
C  C61  1  0.50791259  0.89844730  0.87557377  1  0  0.052191  0  3.669422  0  0  -0.006454  0  3.943085  0  0  -0.000306  0  3.949929  0  0.433622  0  -0.078744  -0.010615  0  3.938376  0
C  C62  1  0.21673696  0.91383479  0.06890957  1  0  0.050501  0  3.678792  0  0  -0.010074  0  3.95803  0  0  -0.003756  0  3.963741  0  0.431863  0  -0.078998  -0.014337  0  3.954343  0
C  C63  1  0.78327086  0.08616473  0.93109338  1  0  0.050564  0  3.678889  0  0  -0.010062  0  3.958082  0  0  -0.003741  0  3.963792  0  0.432227  0  -0.078933  -0.014325  0  3.954394  0
C  C64  1  0.12535022  0.76257995  0.05572108  1  0  0.064236  0  3.662449  0  0  0.003567  0  3.935921  0  0  0.01019  0  3.942137  0  0.37889  0  -0.075819  -0.00102  0  3.931666  0
C  C65  1  0.87465474  0.23741853  0.94427795  1  0  0.063976  0  3.662837  0  0  0.003485  0  3.936099  0  0  0.010117  0  3.942322  0  0.379866  0  -0.075835  -0.0011  0  3.931846  0
C  C66  1  0.07833451  0.61889513  0.17429847  1  0  0.061149  0  3.666288  0  0  0.000357  0  3.937961  0  0  0.006714  0  3.944074  0  0.44564  0  -0.077275  -0.004158  0  3.934301  0
C  C67  1  0.92166758  0.38110231  0.82570282  1  0  0.061241  0  3.666163  0  0  0.00036  0  3.937904  0  0  0.006728  0  3.944011  0  0.442295  0  -0.077316  -0.004155  0  3.934247  0
C  C68  1  0.19006054  0.57319741  0.25291488  1  0  0.05314  0  3.678039  0  0  -0.006768  0  3.951744  0  0  -1e-05  0  3.95792  0  0.427551  0  -0.079508  -0.011265  0  3.947729  0
C  C69  1  0.80994329  0.42680107  0.74709006  1  0  0.052983  0  3.678111  0  0  -0.006837  0  3.951684  0  0  -8.1e-05  0  3.957861  0  0.427375  0  -0.079522  -0.011336  0  3.947673  0
C  C70  1  0.40001888  0.64206473  0.44529296  1  0  0.049345  0  3.678759  0  0  -0.012307  0  3.952663  0  0  -0.005995  0  3.958694  0  0.404829  0  -0.081003  -0.016509  0  3.948566  0
C  C71  1  0.59998470  0.35794102  0.55470833  1  0  0.049249  0  3.678819  0  0  -0.012402  0  3.952698  0  0  -0.006121  0  3.958756  0  0.404342  0  -0.081034  -0.016603  0  3.948601  0
C  C72  1  0.48774568  0.75194075  0.56373246  1  0  0.036918  0  3.653187  0  0  -0.017871  0  3.921578  0  0  -0.011872  0  3.927266  0  0.386711  0  -0.083362  -0.021977  0  3.917571  0
C  C73  1  0.51225061  0.24806605  0.43626955  1  0  0.036888  0  3.653228  0  0  -0.01788  0  3.921522  0  0  -0.011857  0  3.927184  0  0.387338  0  -0.08339  -0.021985  0  3.917515  0
C  C74  1  0.77255268  0.91171485  0.59979264  1  0  0.051901  0  3.671838  0  0  -0.009605  0  3.947935  0  0  -0.002957  0  3.953336  0  0.407023  0  -0.077363  -0.013895  0  3.943975  0
C  C75  1  0.22744874  0.08829299  0.40021537  1  0  0.052013  0  3.671786  0  0  -0.009643  0  3.94801  0  0  -0.003007  0  3.95343  0  0.406878  0  -0.077361  -0.013943  0  3.944059  0
C  C76  1  0.88425251  0.05607699  0.60567977  1  0  0.054659  0  3.65917  0  0  -0.004214  0  3.935286  0  0  0.001748  0  3.941829  0  0.424829  0  -0.073529  -0.008268  0  3.930899  0
C  C77  1  0.11574656  0.94392876  0.39432585  1  0  0.054704  0  3.659124  0  0  -0.004252  0  3.935386  0  0  0.001709  0  3.941932  0  0.424971  0  -0.073542  -0.008286  0  3.931005  0
S  S78  1  0.62907809  0.42907488  0.05369485  1  0  -0.297478  0  2.398637  0  0  -0.310724  0  2.886399  0  0  -0.297776  0  2.891934  0  -0.622177  0  -0.30191  -0.319725  0  2.882801  0
S  S79  1  0.37091202  0.57091944  0.94629234  1  0  -0.297502  0  2.398527  0  0  -0.31076  0  2.886292  0  0  -0.297812  0  2.891822  0  -0.622119  0  -0.301928  -0.31975  0  2.882685  0
N  N80  1  0.77444332  0.77546697  0.09662170  1  0  -0.047695  0  3.273002  0  0  -0.027852  0  3.65011  0  0  0.005178  0  3.653141  0  0.02073  0  -0.317751  -0.049132  0  3.646751  0
N  N81  1  0.22554834  0.22452423  0.90337158  1  0  -0.047621  0  3.272919  0  0  -0.027862  0  3.650019  0  0  0.005346  0  3.652943  0  0.020988  0  -0.317601  -0.049032  0  3.64662  0
N  N82  1  0.60212818  0.65372179  0.21600673  1  0  -0.041137  0  3.376523  0  0  -0.017289  0  3.779008  0  0  0.02497  0  3.76882  0  -0.118095  0  -0.387811  -0.043455  0  3.782132  0
N  N83  1  0.39786626  0.34626837  0.78398630  1  0  -0.041211  0  3.376519  0  0  -0.017488  0  3.779134  0  0  0.024911  0  3.768834  0  -0.118538  0  -0.387881  -0.043563  0  3.782182  0
N  N84  1  0.37768038  0.36946396  0.18817331  1  0  -0.047547  0  3.284022  0  0  -0.034406  0  3.689296  0  0  -0.006409  0  3.703936  0  0.021079  0  -0.316273  -0.054122  0  3.682036  0
N  N85  1  0.62232144  0.63052724  0.81180389  1  0  -0.047333  0  3.283637  0  0  -0.03433  0  3.688997  0  0  -0.006298  0  3.703618  0  0.02099  0  -0.316193  -0.053992  0  3.681705  0
N  N86  1  0.73439623  0.48271587  0.32210855  1  0  -0.05368  0  3.299751  0  0  -0.034606  0  3.687248  0  0  -0.00413  0  3.701608  0  0.006605  0  -0.322857  -0.055439  0  3.679323  0
N  N87  1  0.26559146  0.51728781  0.67787323  1  0  -0.053776  0  3.300195  0  0  -0.034694  0  3.687648  0  0  -0.004193  0  3.701987  0  0.006634  0  -0.322865  -0.055478  0  3.679694  0
O  O88  1  0.87609696  0.89297747  0.11560697  1  0  -0.162102  0  2.01807  0  0  -0.126481  0  2.240064  0  0  -0.139569  0  2.237261  0  -0.501353  0  -0.059269  -0.116816  0  2.241304  0
O  O89  1  0.12389818  0.10701581  0.88438436  1  0  -0.162171  0  2.018139  0  0  -0.126553  0  2.24014  0  0  -0.139612  0  2.237283  0  -0.501516  0  -0.059362  -0.116888  0  2.241375  0
O  O90  1  0.63430089  0.74948187  0.29791257  1  0  -0.251781  0  1.976951  0  0  -0.227497  0  2.226838  0  0  -0.24094  0  2.217904  0  -0.522969  0  -0.165332  -0.21669  0  2.231037  0
O  O91  1  0.36568010  0.25051037  0.70207138  1  0  -0.251733  0  1.976874  0  0  -0.227465  0  2.226843  0  0  -0.24088  0  2.21786  0  -0.522585  0  -0.16532  -0.21664  0  2.231002  0
O  O92  1  0.25049699  0.28710556  0.19025845  1  0  -0.173713  0  2.009832  0  0  -0.142097  0  2.234871  0  0  -0.161477  0  2.237233  0  -0.517482  0  -0.070728  -0.130133  0  2.234291  0
O  O93  1  0.74948856  0.71286173  0.80970605  1  0  -0.173692  0  2.00981  0  0  -0.142054  0  2.23489  0  0  -0.161404  0  2.237243  0  -0.517357  0  -0.070703  -0.130075  0  2.234297  0
O  O94  1  0.83254939  0.47396164  0.40353151  1  0  -0.134706  0  2.04328  0  0  -0.101941  0  2.268731  0  0  -0.120281  0  2.27091  0  -0.474999  0  -0.047112  -0.090398  0  2.267706  0
O  O95  1  0.16744471  0.52603372  0.59645986  1  0  -0.134402  0  2.043753  0  0  -0.101686  0  2.269213  0  0  -0.119997  0  2.271381  0  -0.475158  0  -0.046928  -0.090147  0  2.268189  0
O  O96  1  0.84005151  0.06219456  0.49072870  1  0  -0.335123  0  2.27014  0  0  -0.262931  0  2.521414  0  0  -0.278468  0  2.522429  0  -1.063063  0  -0.295376  -0.251928  0  2.52066  0
O  O97  1  0.15994859  0.93780912  0.50927609  1  0  -0.335124  0  2.270091  0  0  -0.262869  0  2.521385  0  0  -0.278414  0  2.522404  0  -1.063167  0  -0.295357  -0.251864  0  2.520622  0
O  O98  1  0.72320572  0.15131410  0.30327643  1  0  -0.337774  0  2.307555  0  0  -0.262952  0  2.559257  0  0  -0.279307  0  2.561635  0  -1.063552  0  -0.283526  -0.251113  0  2.556755  0
O  O99  1  0.27679829  0.84868853  0.69672606  1  0  -0.337855  0  2.307459  0  0  -0.262905  0  2.559165  0  0  -0.279261  0  2.561551  0  -1.063532  0  -0.283463  -0.251066  0  2.556662  0
O  O100  1  0.39691516  0.95875481  0.11163766  1  0  -0.331751  0  2.245504  0  0  -0.261335  0  2.49507  0  0  -0.277038  0  2.496607  0  -1.053077  0  -0.273911  -0.250461  0  2.494121  0
O  O101  1  0.60309154  0.04124470  0.88836734  1  0  -0.331868  0  2.245439  0  0  -0.261304  0  2.49503  0  0  -0.277007  0  2.496563  0  -1.053073  0  -0.273904  -0.25043  0  2.494081  0
O  O102  1  0.18334371  0.74904728  0.16805800  1  0  -0.35135  0  2.291884  0  0  -0.278628  0  2.548111  0  0  -0.29494  0  2.549401  0  -1.066734  0  -0.309229  -0.267183  0  2.54722  0
O  O103  1  0.81665942  0.25094808  0.83194093  1  0  -0.351323  0  2.291968  0  0  -0.278585  0  2.548135  0  0  -0.294895  0  2.549415  0  -1.063569  0  -0.309183  -0.267147  0  2.547252  0
O  O104  1  0.28688657  0.67640378  0.36616969  1  0  -0.32893  0  2.263706  0  0  -0.256623  0  2.516679  0  0  -0.272422  0  2.518056  0  -1.051481  0  -0.270355  -0.2458  0  2.515977  0
O  O105  1  0.71311457  0.32359781  0.63383119  1  0  -0.328932  0  2.263767  0  0  -0.256624  0  2.516658  0  0  -0.272418  0  2.518048  0  -1.051745  0  -0.270343  -0.245801  0  2.515957  0
O  O106  1  0.59965047  0.88830716  0.56858333  1  0  -0.365699  0  2.242846  0  0  -0.29455  0  2.493349  0  0  -0.310422  0  2.493925  0  -1.057851  0  -0.311624  -0.282954  0  2.492619  0
O  O107  1  0.40034963  0.11169652  0.43141992  1  0  -0.365718  0  2.242815  0  0  -0.294536  0  2.493354  0  0  -0.310416  0  2.49393  0  -1.05784  0  -0.311605  -0.282936  0  2.492624  0
