# generated using pymatgen
data_CuH17C15N5O
_symmetry_space_group_name_H-M   'P 1'
_cell_length_a   6.77640729
_cell_length_b   7.97772301
_cell_length_c   13.56102145
_cell_angle_alpha   103.57113539
_cell_angle_beta   89.99989147
_cell_angle_gamma   90.00066308
_symmetry_Int_Tables_number   1
_chemical_formula_structural   CuH17C15N5O
_chemical_formula_sum   'Cu2 H34 C30 N10 O2'
_cell_volume   712.64389413
_cell_formula_units_Z   2
loop_
 _symmetry_equiv_pos_site_id
 _symmetry_equiv_pos_as_xyz
  1  'x, y, z'
loop_
 _atom_site_type_symbol
 _atom_site_label
 _atom_site_symmetry_multiplicity
 _atom_site_fract_x
 _atom_site_fract_y
 _atom_site_fract_z
 _atom_site_occupancy
 _atom_site_hle17_ddec_charge
 _atom_site_hle17_ddec_spin_density
 _atom_site_hle17_ddec_sum_bond_order
 _atom_site_hle17_magmom
 _atom_site_hse06_10hf_ddec_charge
 _atom_site_hse06_10hf_ddec_spin_density
 _atom_site_hse06_10hf_ddec_sum_bond_order
 _atom_site_hse06_10hf_magmom
 _atom_site_hse06_ddec_charge
 _atom_site_hse06_ddec_spin_density
 _atom_site_hse06_ddec_sum_bond_order
 _atom_site_hse06_magmom
 _atom_site_pbe_cm5_charge
 _atom_site_pbe_ddec_charge
 _atom_site_pbe_ddec_spin_density
 _atom_site_pbe_ddec_sum_bond_order
 _atom_site_pbe_magmom
Cu  Cu0  1  0.23136259  0.41129292  0.16066455  1  0.752088  -0.619463  1.92812  -0.429  0.733084  -0.717893  2.326149  -0.545  0.814787  -0.794913  2.261247  -0.633  0.763489  0.688035  -0.66586  2.369542  -0.49
Cu  Cu1  1  0.73137399  0.58870747  0.83933479  1  0.75205  -0.619482  1.928231  -0.429  0.73326  -0.717936  2.326045  -0.545  0.814748  -0.794906  2.261296  -0.633  0.763543  0.688179  -0.665899  2.369458  -0.49
H  H2  1  0.49853561  0.74877727  0.36854271  1  0.057882  -0.006399  0.96591  -0.008  0.071819  -0.004836  1.030921  -0.006  0.072247  -0.003624  1.028317  -0.005  0.110753  0.071311  -0.005721  1.032801  -0.006
H  H3  1  0.99854606  0.25122065  0.63145821  1  0.057871  -0.006399  0.965905  -0.008  0.071814  -0.004836  1.030915  -0.006  0.07224  -0.003624  1.028313  -0.005  0.11075  0.071313  -0.005721  1.032784  -0.006
H  H4  1  0.75119469  0.09599732  0.30191029  1  0.083799  -0.000633  0.973016  -0.001  0.095802  -0.000432  1.038316  0.0  0.09809  -0.000281  1.036949  0.0  0.098891  0.094253  -0.000584  1.039081  -0.001
H  H5  1  0.25118826  0.90400583  0.69808498  1  0.083774  -0.000633  0.973103  -0.001  0.095842  -0.000432  1.038331  0.0  0.098133  -0.000281  1.036958  0.0  0.098946  0.094292  -0.000584  1.039105  -0.001
H  H6  1  0.74259759  0.78642959  0.21181655  1  0.116223  0.000444  0.940493  0.0  0.128992  2.1e-05  0.995582  0.0  0.133031  5.8e-05  0.993539  0.0  0.106248  0.126035  -3.2e-05  0.997295  0.0
H  H7  1  0.24260073  0.21357345  0.78817576  1  0.116267  0.000444  0.940579  0.0  0.129046  2.1e-05  0.995643  0.0  0.133075  5.7e-05  0.993613  0.0  0.106261  0.126091  -3.2e-05  0.997356  0.0
H  H8  1  0.92994138  0.34472191  0.39453955  1  0.087815  1.4e-05  0.962741  0.0  0.102002  3.2e-05  1.022251  0.0  0.104663  4.4e-05  1.021141  0.0  0.098773  0.100056  1.8e-05  1.023235  0.0
H  H9  1  0.42992893  0.65528046  0.60545984  1  0.087787  1.5e-05  0.962847  0.0  0.102007  3.2e-05  1.022313  0.0  0.104668  4.4e-05  1.021199  0.0  0.098746  0.100061  1.8e-05  1.023297  0.0
H  H10  1  0.22112108  0.47566595  0.49568004  1  0.080573  2.1e-05  0.969571  0.0  0.092373  1e-05  1.032794  0.0  0.09486  1.3e-05  1.032253  0.0  0.094496  0.09064  9e-06  1.033156  0.0
H  H11  1  0.72110905  0.52433306  0.50432134  1  0.080539  2.2e-05  0.969557  0.0  0.092381  1e-05  1.032749  0.0  0.094866  1.3e-05  1.032204  0.0  0.094476  0.090647  9e-06  1.033115  0.0
H  H12  1  0.50113243  0.28425338  0.52175274  1  0.083213  -9e-06  0.965694  0.0  0.094509  -0.0  1.026957  0.0  0.096638  6e-06  1.026805  0.0  0.095065  0.092988  -9e-06  1.027125  0.0
H  H13  1  0.00113005  0.71574345  0.47825522  1  0.08321  -9e-06  0.965812  0.0  0.094499  -0.0  1.027072  0.0  0.096629  6e-06  1.026919  0.0  0.095086  0.092977  -9e-06  1.027238  0.0
H  H14  1  0.50065322  0.97992259  0.44102721  1  0.087526  -0.000218  0.989797  0.0  0.097361  -0.000272  1.054264  0.0  0.099382  -0.000191  1.055048  0.0  0.094849  0.095982  -0.000347  1.053703  0.0
H  H15  1  0.00066037  0.02007165  0.55897892  1  0.087488  -0.000219  0.989856  0.0  0.097381  -0.000272  1.054239  0.0  0.099401  -0.000191  1.055023  0.0  0.094825  0.096003  -0.000347  1.053678  0.0
H  H16  1  0.55280363  0.35142735  0.33166371  1  0.050739  -0.000254  0.963811  0.0  0.068745  -0.000135  1.032268  0.0  0.067692  -0.000163  1.033672  0.0  0.095997  0.069348  -0.000132  1.031291  0.0
H  H17  1  0.05281155  0.64857510  0.66833389  1  0.050703  -0.000254  0.963782  0.0  0.06872  -0.000135  1.032264  0.0  0.067663  -0.000163  1.033669  0.0  0.095986  0.069324  -0.000132  1.031286  0.0
H  H18  1  0.69891620  0.52753892  0.31328141  1  0.072809  -0.002407  0.93621  -0.003  0.091557  -0.002117  0.998248  -0.002  0.091372  -0.001591  0.99893  -0.002  0.105319  0.091508  -0.002516  0.997867  -0.002
H  H19  1  0.19892906  0.47246759  0.68671806  1  0.072813  -0.002408  0.936095  -0.003  0.091569  -0.002117  0.998166  -0.002  0.091383  -0.001591  0.99885  -0.002  0.105323  0.091522  -0.002517  0.99779  -0.002
H  H20  1  0.68024812  0.43055187  0.13013939  1  0.091953  -0.00029  0.934209  0.0  0.105309  -0.000221  0.997204  0.0  0.106334  -0.00015  0.997014  0.0  0.11289  0.104405  -0.000286  0.997463  0.0
H  H21  1  0.18026171  0.56945315  0.86985843  1  0.091994  -0.000288  0.93421  0.0  0.105351  -0.000221  0.997172  0.0  0.106382  -0.00015  0.996976  0.0  0.112912  0.104445  -0.000286  0.997429  0.0
H  H22  1  0.76319936  0.25282300  0.17620887  1  0.074819  -0.003684  0.933614  -0.005  0.090306  -0.002607  0.99735  -0.003  0.08995  -0.001815  0.997924  -0.003  0.102702  0.090284  -0.003168  0.997191  -0.004
H  H23  1  0.26320960  0.74718672  0.82378875  1  0.074846  -0.003684  0.933662  -0.005  0.090352  -0.002606  0.997314  -0.003  0.089994  -0.001815  0.997892  -0.003  0.10273  0.090327  -0.003168  0.997156  -0.004
H  H24  1  0.36638075  0.12239033  0.97638550  1  0.095901  -0.000478  0.963244  -0.001  0.114142  -0.000481  1.030263  -0.001  0.114752  -0.000305  1.030777  -0.001  0.097918  0.113597  -0.000622  1.029969  -0.001
H  H25  1  0.86639714  0.87761013  0.02361591  1  0.096009  -0.000478  0.963111  -0.001  0.114219  -0.000481  1.03015  -0.001  0.114827  -0.000305  1.030664  -0.001  0.097946  0.113671  -0.000621  1.029857  -0.001
H  H26  1  0.62310654  0.09465342  0.99731582  1  0.087664  -0.004167  0.959909  -0.005  0.108499  -0.00312  1.02305  -0.004  0.10869  -0.002222  1.023428  -0.003  0.094625  0.108299  -0.003719  1.022704  -0.004
H  H27  1  0.12312740  0.90533429  0.00268412  1  0.087696  -0.004167  0.959879  -0.005  0.108452  -0.00312  1.02313  -0.004  0.108642  -0.002222  1.023507  -0.003  0.094596  0.108253  -0.003719  1.022784  -0.004
H  H28  1  0.53232975  0.29909872  0.98300469  1  0.106324  -0.000619  0.964416  -0.001  0.120016  -0.000482  1.035333  0.0  0.119846  -0.000342  1.037267  0.0  0.102008  0.119841  -0.000598  1.034303  -0.001
H  H29  1  0.03233305  0.70089065  0.01699484  1  0.10623  -0.000619  0.96445  -0.001  0.119972  -0.000482  1.035306  0.0  0.119803  -0.000342  1.037237  0.0  0.101986  0.119796  -0.000598  1.034278  -0.001
H  H30  1  0.28164187  0.03019578  0.13004830  1  0.107531  -0.000581  0.948127  -0.001  0.12992  -0.000519  1.007262  -0.001  0.130386  -0.00033  1.007899  0.0  0.105941  0.129349  -0.000676  1.007097  -0.001
H  H31  1  0.78164799  0.96980256  0.86995660  1  0.107491  -0.000582  0.948144  -0.001  0.129834  -0.000519  1.007328  -0.001  0.130301  -0.00033  1.007962  0.0  0.105924  0.129266  -0.000676  1.007161  -0.001
H  H32  1  0.40065230  0.12707382  0.24603566  1  0.088851  4.5e-05  0.989811  0.0  0.105546  9e-05  1.060494  0.0  0.104438  0.000139  1.063435  0.0  0.096442  0.106115  3.8e-05  1.058754  0.0
H  H33  1  0.90065748  0.87292957  0.75396759  1  0.088885  4.5e-05  0.989831  0.0  0.105571  9e-05  1.060512  0.0  0.104465  0.00014  1.063449  0.0  0.096458  0.10614  3.8e-05  1.058774  0.0
H  H34  1  0.53838025  0.99221363  0.14493680  1  0.093117  -0.003781  0.940992  -0.004  0.115525  -0.002693  1.002288  -0.003  0.115523  -0.001909  1.003157  -0.002  0.098601  0.115512  -0.003227  1.00159  -0.003
H  H35  1  0.03838631  0.00779128  0.85506558  1  0.093087  -0.003781  0.940984  -0.004  0.115491  -0.002693  1.002277  -0.003  0.11549  -0.001909  1.003146  -0.002  0.09857  0.115476  -0.003228  1.001585  -0.003
C  C36  1  0.37443708  0.69025646  0.32067568  1  0.16284  0.017386  3.724603  0.012  0.121164  0.006418  3.979498  0.004  0.143702  0.008854  3.990121  0.006  0.065406  0.106481  0.003899  3.972746  0.003
C  C37  1  0.87444964  0.30974279  0.67932556  1  0.1629  0.017389  3.724424  0.012  0.121222  0.006417  3.979323  0.004  0.143758  0.008855  3.989938  0.006  0.065433  0.106539  0.003899  3.972581  0.003
C  C38  1  0.20668963  0.79714159  0.31569619  1  -0.183039  -0.005307  3.762351  -0.007  -0.169941  -0.002607  4.003327  -0.004  -0.189376  -0.001598  4.030326  -0.003  -0.043896  -0.157447  -0.003497  3.985337  -0.005
C  C39  1  0.70669926  0.20285856  0.68430388  1  -0.18312  -0.005301  3.762358  -0.007  -0.170011  -0.002609  4.00334  -0.004  -0.189444  -0.001597  4.030337  -0.003  -0.043946  -0.157516  -0.003497  3.985365  -0.005
C  C40  1  0.21140860  0.97721560  0.36915936  1  0.048917  0.002963  3.758503  0.002  0.062517  0.001125  3.978033  0.001  0.067068  0.001255  4.003617  0.001  -0.002354  0.059805  0.000829  3.960594  0.001
C  C41  1  0.71141301  0.02278460  0.63084145  1  0.048829  0.002957  3.758386  0.002  0.062429  0.001127  3.977928  0.001  0.06698  0.001256  4.003513  0.001  -0.002392  0.05972  0.000829  3.960496  0.001
C  C42  1  0.04715627  0.08631023  0.36060058  1  0.026148  -0.000866  3.820615  -0.001  0.042924  1.6e-05  4.048476  0.0  0.038351  5.4e-05  4.074229  0.0  -0.019426  0.045692  -1.9e-05  4.031403  0.0
C  C43  1  0.54715498  0.91368960  0.63939888  1  0.026172  -0.000863  3.820473  -0.001  0.042962  1.5e-05  4.048331  0.0  0.038387  5.4e-05  4.074087  0.0  -0.019397  0.045732  -1.9e-05  4.031256  0.0
C  C44  1  0.87760034  0.01268624  0.30469662  1  -0.0708  0.005783  3.774854  0.003  -0.093527  0.001052  4.024768  0.0  -0.089649  0.001936  4.043075  0.001  -0.083737  -0.095998  0.000144  4.012411  -0.001
C  C45  1  0.37759652  0.98731689  0.69529998  1  -0.070739  0.005779  3.774804  0.003  -0.093534  0.001053  4.024734  0.0  -0.089653  0.001933  4.043041  0.001  -0.083793  -0.096004  0.000143  4.012377  -0.001
C  C46  1  0.87123539  0.84280468  0.25562259  1  -0.184533  -0.011627  3.724327  -0.012  -0.200991  -0.006944  3.975044  -0.008  -0.208954  -0.005253  3.990753  -0.006  -0.101894  -0.195891  -0.008226  3.964597  -0.009
C  C47  1  0.37123496  0.15719838  0.74437180  1  -0.184631  -0.011623  3.724378  -0.012  -0.201086  -0.006943  3.975113  -0.008  -0.209045  -0.005251  3.990829  -0.006  -0.101877  -0.195986  -0.008226  3.964674  -0.009
C  C48  1  0.03628039  0.72996573  0.25702554  1  0.360461  0.006678  3.839459  0.006  0.348638  0.000576  4.097504  0.001  0.373253  0.002027  4.109227  0.002  0.100784  0.332365  -0.001115  4.089132  0.0
C  C49  1  0.53628631  0.27003527  0.74297188  1  0.360596  0.006671  3.839305  0.006  0.348759  0.000578  4.097359  0.001  0.373376  0.002027  4.109062  0.002  0.100827  0.332479  -0.001116  4.089001  0.0
C  C50  1  0.05458465  0.26479014  0.40599205  1  -0.109764  0.001458  3.75277  0.001  -0.131821  0.000296  4.007526  0.0  -0.132031  0.00043  4.027246  0.0  -0.092428  -0.131925  0.000148  3.994873  0.0
C  C51  1  0.55457814  0.73520720  0.59400854  1  -0.109793  0.001452  3.752857  0.001  -0.131888  0.000298  4.007617  0.0  -0.132094  0.000429  4.027333  0.0  -0.092444  -0.131993  0.000147  3.994958  0.0
C  C52  1  0.21621347  0.33753273  0.46221099  1  -0.090269  -0.000567  3.813076  0.0  -0.109895  0.000167  4.07511  0.0  -0.113459  0.000242  4.097217  0.0  -0.108268  -0.107454  9.7e-05  4.060198  0.0
C  C53  1  0.71620763  0.66246366  0.53779225  1  -0.090244  -0.000565  3.813098  0.0  -0.109908  0.000165  4.075158  0.0  -0.113467  0.000245  4.097261  0.0  -0.108245  -0.107461  9.7e-05  4.060226  0.0
C  C54  1  0.37474806  0.23045348  0.47508746  1  -0.074263  0.001424  3.801089  0.001  -0.089058  5.1e-05  4.058128  0.0  -0.088314  0.000198  4.078115  0.0  -0.100221  -0.089401  -7.6e-05  4.044466  0.0
C  C55  1  0.87474813  0.76954064  0.52491824  1  -0.074273  0.001424  3.801139  0.001  -0.089049  5.1e-05  4.058182  0.0  -0.088308  0.000198  4.078177  0.0  -0.100257  -0.089394  -7.6e-05  4.044527  0.0
C  C56  1  0.37292445  0.05569398  0.42944051  1  -0.139932  -0.001082  3.753695  -0.001  -0.158689  -0.000318  4.00317  0.0  -0.163383  -0.000221  4.024529  0.0  -0.101387  -0.155546  -0.000435  3.988494  -0.001
C  C57  1  0.87293117  0.94430011  0.57056372  1  -0.139791  -0.001081  3.753503  -0.001  -0.158604  -0.000317  4.002979  0.0  -0.163298  -0.000221  4.024338  0.0  -0.101301  -0.155465  -0.000435  3.988304  -0.001
C  C58  1  0.57897451  0.43862934  0.28073478  1  -0.002091  -0.002002  3.704034  -0.002  -0.063607  -0.002404  3.970884  -0.002  -0.058644  -0.001185  3.985081  -0.001  -0.071562  -0.066341  -0.003335  3.961218  -0.003
C  C59  1  0.07898109  0.56137080  0.71926248  1  -0.001921  -0.001998  3.703822  -0.002  -0.063498  -0.002404  3.970792  -0.002  -0.058536  -0.001185  3.984982  -0.001  -0.071568  -0.066231  -0.003335  3.961127  -0.003
C  C60  1  0.63655023  0.33877085  0.17480886  1  -0.047499  0.004213  3.617553  0.005  -0.098841  0.000941  3.865408  0.002  -0.095497  0.001825  3.879217  0.002  -0.076404  -0.100731  0.000218  3.856234  0.001
C  C61  1  0.13655931  0.66123245  0.82518877  1  -0.047638  0.004209  3.617568  0.005  -0.098938  0.000938  3.865537  0.002  -0.095602  0.001827  3.879342  0.002  -0.076418  -0.100826  0.000217  3.856358  0.001
C  C62  1  0.49921267  0.18633327  0.01298527  1  -0.191169  0.003902  3.649481  0.005  -0.286475  0.000397  3.900461  0.002  -0.283274  0.001529  3.913383  0.003  -0.155579  -0.288045  -0.000553  3.891858  0.002
C  C63  1  0.99922517  0.81366207  0.98701456  1  -0.191191  0.003903  3.649276  0.005  -0.286408  0.000396  3.900227  0.002  -0.283208  0.001529  3.913147  0.003  -0.15555  -0.287989  -0.000552  3.891644  0.002
C  C64  1  0.41948516  0.08877718  0.16366798  1  -0.188736  0.004342  3.62857  0.005  -0.28577  0.001324  3.880232  0.002  -0.282011  0.002403  3.892231  0.003  -0.151483  -0.287932  0.000383  3.872449  0.002
C  C65  1  0.91949503  0.91122125  0.83633457  1  -0.188766  0.00434  3.628687  0.005  -0.285724  0.001326  3.880365  0.002  -0.281962  0.002402  3.892354  0.003  -0.151485  -0.287888  0.000383  3.872583  0.002
N  N66  1  0.06493876  0.26455211  0.05709588  1  -0.513662  -0.049238  2.709126  -0.062  -0.542035  -0.022172  3.043614  -0.032  -0.572932  -0.008097  3.049571  -0.02  -0.32397  -0.52334  -0.030966  3.040538  -0.038
N  N67  1  0.56495034  0.73545047  0.94290173  1  -0.513778  -0.049267  2.708767  -0.062  -0.54211  -0.022183  3.043337  -0.032  -0.57295  -0.008114  3.049245  -0.02  -0.32397  -0.523406  -0.03098  3.040247  -0.038
N  N68  1  0.39599470  0.53021510  0.27215862  1  -0.341728  -0.081424  3.321093  -0.098  -0.282655  -0.060595  3.629051  -0.078  -0.315338  -0.052078  3.646309  -0.072  -0.39097  -0.264344  -0.06493  3.619846  -0.08
N  N69  1  0.89600779  0.46978564  0.72783985  1  -0.34184  -0.081426  3.321084  -0.098  -0.282806  -0.060591  3.62911  -0.078  -0.315434  -0.052078  3.646328  -0.072  -0.391028  -0.26449  -0.064928  3.619906  -0.08
N  N70  1  0.46511220  0.24038668  0.12314308  1  -0.115413  -0.097708  3.32579  -0.12  -0.027407  -0.073475  3.585242  -0.097  -0.05688  -0.060898  3.61466  -0.087  -0.359733  -0.010175  -0.07934  3.567053  -0.1
N  N71  1  0.96512284  0.75961476  0.87685615  1  -0.115328  -0.097707  3.325708  -0.12  -0.027464  -0.07347  3.58528  -0.097  -0.056894  -0.060899  3.614656  -0.087  -0.359747  -0.010225  -0.079337  3.567094  -0.1
N  N72  1  0.97875822  0.32722411  0.99719307  1  0.385747  0.032961  4.20738  0.033  0.440755  0.005414  4.505438  0.006  0.460718  0.009562  4.536765  0.009  0.080319  0.428357  0.001409  4.484018  0.004
N  N73  1  0.47876709  0.67277749  0.00280985  1  0.385958  0.03294  4.207166  0.033  0.440807  0.005406  4.505437  0.006  0.460775  0.009557  4.536749  0.009  0.080356  0.42841  0.001403  4.484008  0.004
N  N74  1  0.89109423  0.37978760  0.93623282  1  -0.403614  -0.107797  2.461673  -0.12  -0.433214  -0.053105  2.730899  -0.061  -0.448227  -0.045983  2.739588  -0.057  -0.210184  -0.424014  -0.058173  2.72546  -0.064
N  N75  1  0.39111104  0.62022084  0.06376818  1  -0.403701  -0.107751  2.461889  -0.12  -0.433198  -0.053088  2.731153  -0.061  -0.448229  -0.04597  2.739843  -0.057  -0.210176  -0.424006  -0.058156  2.725717  -0.064
O  O76  1  0.01564015  0.57233806  0.20453364  1  -0.546419  -0.081021  2.117659  -0.105  -0.507604  -0.060489  2.396867  -0.086  -0.547813  -0.047429  2.393091  -0.073  -0.328028  -0.481687  -0.069014  2.399577  -0.093
O  O77  1  0.51565394  0.42766402  0.79546247  1  -0.54645  -0.081017  2.117594  -0.105  -0.50769  -0.060483  2.396834  -0.086  -0.547854  -0.047429  2.393038  -0.073  -0.328073  -0.481767  -0.069006  2.39955  -0.093
