# generated using pymatgen
data_ZnH16C24N2(O2F3)2
_symmetry_space_group_name_H-M   'P 1'
_cell_length_a   7.09281268
_cell_length_b   9.16791397
_cell_length_c   11.31035728
_cell_angle_alpha   73.33691711
_cell_angle_beta   71.71988014
_cell_angle_gamma   67.26090235
_symmetry_Int_Tables_number   1
_chemical_formula_structural   ZnH16C24N2(O2F3)2
_chemical_formula_sum   'Zn1 H16 C24 N2 O4 F6'
_cell_volume   632.46828512
_cell_formula_units_Z   1
loop_
 _symmetry_equiv_pos_site_id
 _symmetry_equiv_pos_as_xyz
  1  'x, y, z'
loop_
 _atom_site_type_symbol
 _atom_site_label
 _atom_site_symmetry_multiplicity
 _atom_site_fract_x
 _atom_site_fract_y
 _atom_site_fract_z
 _atom_site_occupancy
 _atom_site_hle17_bader_spin_density
 _atom_site_hle17_ddec_charge
 _atom_site_hle17_ddec_spin_density
 _atom_site_hle17_ddec_sum_bond_order
 _atom_site_hle17_magmom
 _atom_site_hse06_10hf_bader_spin_density
 _atom_site_hse06_10hf_ddec_charge
 _atom_site_hse06_10hf_ddec_spin_density
 _atom_site_hse06_10hf_ddec_sum_bond_order
 _atom_site_hse06_10hf_magmom
 _atom_site_hse06_bader_spin_density
 _atom_site_hse06_ddec_charge
 _atom_site_hse06_ddec_spin_density
 _atom_site_hse06_ddec_sum_bond_order
 _atom_site_hse06_magmom
 _atom_site_pbe_bader_spin_density
 _atom_site_pbe_cm5_charge
 _atom_site_pbe_ddec_charge
 _atom_site_pbe_ddec_spin_density
 _atom_site_pbe_ddec_sum_bond_order
 _atom_site_pbe_magmom
Zn  Zn0  1  0.95939279  0.00009171  0.00000333  1  0  1.00551  0  1.945097  0  0  0.836411  0  2.394334  0  0  0.881845  0  2.341101  0  0  0.685652  0.804533  0  2.431116  0
H  H1  1  0.14857905  0.23865243  0.02205297  1  0  0.113148  0  0.929091  0  0  0.117165  0  0.993122  0  0  0.120652  0  0.990417  0  0  0.127813  0.114564  0  0.995288  0
H  H2  1  0.40924825  0.76143425  0.97789281  1  0  0.112883  0  0.929631  0  0  0.116746  0  0.993836  0  0  0.120207  0  0.991131  0  0  0.127428  0.114203  0  0.9959  0
H  H3  1  0.50902127  0.23854330  0.02281590  1  0  0.113629  0  0.920766  0  0  0.117032  0  0.984979  0  0  0.120706  0  0.982156  0  0  0.129626  0.114354  0  0.987142  0
H  H4  1  0.77025148  0.76170098  0.97712271  1  0  0.112757  0  0.921887  0  0  0.116815  0  0.985398  0  0  0.120418  0  0.982717  0  0  0.12969  0.114111  0  0.98759  0
H  H5  1  0.90361490  0.71344054  0.39347957  1  0  0.125924  0  0.999877  0  0  0.12958  0  1.071409  0  0  0.13384  0  1.07118  0  0  0.092211  0.126529  0  1.071801  0
H  H6  1  0.01055055  0.28650380  0.60644876  1  0  0.125401  0  1.000109  0  0  0.128877  0  1.071891  0  0  0.133115  0  1.07171  0  0  0.092358  0.125881  0  1.072198  0
H  H7  1  0.79414073  0.81179585  0.54290126  1  0  0.088783  0  0.985314  0  0  0.09669  0  1.051849  0  0  0.099735  0  1.04939  0  0  0.094023  0.094574  0  1.053526  0
H  H8  1  0.14899750  0.18806019  0.45713041  1  0  0.088123  0  0.986578  0  0  0.095874  0  1.053036  0  0  0.098908  0  1.050583  0  0  0.094112  0.093741  0  1.054793  0
H  H9  1  0.66846689  0.26882196  0.28570907  1  0  0.10545  0  0.949552  0  0  0.110326  0  1.01567  0  0  0.115042  0  1.010981  0  0  0.10013  0.107101  0  1.018778  0
H  H10  1  0.22283781  0.73110000  0.71439657  1  0  0.105019  0  0.948902  0  0  0.110527  0  1.014349  0  0  0.115157  0  1.009801  0  0  0.100095  0.107254  0  1.017525  0
H  H11  1  0.63048166  0.94951806  0.72377627  1  0  0.080457  0  0.962091  0  0  0.088811  0  1.025373  0  0  0.09152  0  1.025127  0  0  0.092314  0.086825  0  1.025833  0
H  H12  1  0.30368646  0.05032222  0.27627288  1  0  0.080784  0  0.962517  0  0  0.089447  0  1.025305  0  0  0.092207  0  1.02498  0  0  0.092624  0.08744  0  1.025788  0
H  H13  1  0.50168811  0.40840788  0.46829678  1  0  0.079143  0  0.988326  0  0  0.09119  0  1.046173  0  0  0.094011  0  1.044654  0  0  0.094593  0.0892  0  1.047336  0
H  H14  1  0.37821066  0.59144373  0.53181376  1  0  0.078919  0  0.989069  0  0  0.090941  0  1.046849  0  0  0.093757  0  1.045347  0  0  0.094366  0.088942  0  1.048023  0
H  H15  1  0.48151446  0.24993858  0.68973261  1  0  0.079484  0  0.946518  0  0  0.08998  0  1.005828  0  0  0.092625  0  1.005171  0  0  0.095258  0.088061  0  1.006369  0
H  H16  1  0.42097016  0.74989105  0.31035908  1  0  0.079933  0  0.946236  0  0  0.089946  0  1.005859  0  0  0.092626  0  1.005143  0  0  0.095016  0.088055  0  1.006356  0
C  C17  1  0.28859157  0.13271433  0.01234438  1  0  0.081575  0  3.649316  0  0  0.051874  0  3.901573  0  0  0.053224  0  3.920123  0  0  0.065529  0.050755  0  3.889709  0
C  C18  1  0.43358276  0.86741725  0.98762231  1  0  0.083122  0  3.650781  0  0  0.053898  0  3.902665  0  0  0.055327  0  3.921191  0  0  0.066943  0.052709  0  3.890807  0
C  C19  1  0.83794473  0.95649470  0.28551083  1  0  0.447446  0  3.763431  0  0  0.42909  0  4.024318  0  0  0.458295  0  4.026154  0  0  0.135052  0.409635  0  4.022224  0
C  C20  1  0.07987837  0.04348647  0.71450513  1  0  0.448422  0  3.762186  0  0  0.42955  0  4.023588  0  0  0.458751  0  4.025424  0  0  0.135519  0.409993  0  4.021648  0
C  C21  1  0.74258238  0.03124751  0.40053745  1  0  -0.035904  0  3.750041  0  0  -0.012155  0  3.974031  0  0  -0.021465  0  3.999829  0  0  -0.018014  -0.006704  0  3.957752  0
C  C22  1  0.17423535  0.96866851  0.59951467  1  0  -0.035816  0  3.749763  0  0  -0.01204  0  3.973994  0  0  -0.021211  0  3.999485  0  0  -0.017522  -0.006524  0  3.957686  0
C  C23  1  0.48480883  0.13268238  0.01258056  1  0  0.083228  0  3.64886  0  0  0.055251  0  3.900614  0  0  0.056435  0  3.919053  0  0  0.067569  0.054211  0  3.888798  0
C  C24  1  0.62997140  0.86751949  0.98739114  1  0  0.083044  0  3.647605  0  0  0.054331  0  3.899337  0  0  0.055493  0  3.917783  0  0  0.066704  0.053306  0  3.887553  0
C  C25  1  0.00902538  0.70178562  0.19888609  1  0  0.238206  0  3.914072  0  0  0.219886  0  4.1851  0  0  0.239178  0  4.196044  0  0  0.088706  0.207303  0  4.177304  0
C  C26  1  0.91003906  0.29828710  0.80101478  1  0  0.23447  0  3.91819  0  0  0.217842  0  4.187562  0  0  0.237252  0  4.198565  0  0  0.087594  0.205108  0  4.179811  0
C  C27  1  0.91649312  0.78541813  0.29855374  1  0  -0.391841  0  3.771357  0  0  -0.433066  0  4.048918  0  0  -0.456613  0  4.071082  0  0  -0.15704  -0.417284  0  4.033623  0
C  C28  1  0.00052995  0.21458328  0.70138817  1  0  -0.389381  0  3.769805  0  0  -0.430603  0  4.046904  0  0  -0.454154  0  4.069078  0  0  -0.156973  -0.414819  0  4.031642  0
C  C29  1  0.08889523  0.51614133  0.23324862  1  0  0.715437  0  3.62403  0  0  0.645987  0  3.960398  0  0  0.675039  0  3.932968  0  0  0.296606  0.625049  0  3.980183  0
C  C30  1  0.83878082  0.48393870  0.76665107  1  0  0.713835  0  3.625466  0  0  0.641414  0  3.965681  0  0  0.669824  0  3.939408  0  0  0.295754  0.620823  0  3.984966  0
C  C31  1  0.73076864  0.94247333  0.52488736  1  0  -0.067345  0  3.715559  0  0  -0.090485  0  3.960632  0  0  -0.090238  0  3.983119  0  0  -0.079641  -0.090353  0  3.945348  0
C  C32  1  0.19809370  0.05739989  0.47515514  1  0  -0.065731  0  3.718341  0  0  -0.088829  0  3.96371  0  0  -0.088526  0  3.986197  0  0  -0.079505  -0.088726  0  3.948425  0
C  C33  1  0.65928476  0.20016061  0.38222085  1  0  -0.066009  0  3.723175  0  0  -0.094986  0  3.978375  0  0  -0.093266  0  3.996825  0  0  -0.084117  -0.095578  0  3.965407  0
C  C34  1  0.24144464  0.79974707  0.61787356  1  0  -0.065325  0  3.720404  0  0  -0.094898  0  3.975654  0  0  -0.093206  0  3.994228  0  0  -0.084072  -0.095506  0  3.962711  0
C  C35  1  0.63778971  0.02070205  0.62805257  1  0  -0.070048  0  3.765532  0  0  -0.082225  0  4.020099  0  0  -0.086654  0  4.04274  0  0  -0.094443  -0.079288  0  4.004705  0
C  C36  1  0.28639627  0.97915363  0.37200345  1  0  -0.072103  0  3.76851  0  0  -0.084545  0  4.0232  0  0  -0.089005  0  4.045761  0  0  -0.095275  -0.081566  0  4.007829  0
C  C37  1  0.56611945  0.27756026  0.48531950  1  0  -0.082795  0  3.792375  0  0  -0.094864  0  4.04391  0  0  -0.099348  0  4.066138  0  0  -0.096502  -0.091905  0  4.028505  0
C  C38  1  0.32873145  0.72230077  0.51477790  1  0  -0.08336  0  3.790228  0  0  -0.09534  0  4.04175  0  0  -0.099847  0  4.063972  0  0  -0.096648  -0.092401  0  4.026406  0
C  C39  1  0.55478724  0.18855140  0.60900549  1  0  -0.048492  0  3.764084  0  0  -0.066066  0  4.018813  0  0  -0.065853  0  4.040619  0  0  -0.087749  -0.065637  0  4.003523  0
C  C40  1  0.35207513  0.81129936  0.39108472  1  0  -0.047695  0  3.762813  0  0  -0.064842  0  4.017341  0  0  -0.064628  0  4.039121  0  0  -0.087024  -0.064413  0  4.002023  0
N  N41  1  0.65365086  0.00011548  0.99998944  1  0  -0.250593  0  3.253481  0  0  -0.180362  0  3.510498  0  0  -0.19278  0  3.528312  0  0  -0.294078  -0.172114  0  3.499006  0
N  N42  1  0.26486049  0.00004095  0.99998962  1  0  -0.247998  0  3.253104  0  0  -0.177555  0  3.510251  0  0  -0.19012  0  3.527995  0  0  -0.293561  -0.169229  0  3.498843  0
O  O43  1  0.04450640  0.75278693  0.07901939  1  0  -0.52841  0  2.108672  0  0  -0.480222  0  2.363809  0  0  -0.504742  0  2.356253  0  0  -0.309397  -0.463166  0  2.36832  0
O  O44  1  0.87667133  0.24735359  0.92089191  1  0  -0.527272  0  2.111188  0  0  -0.478948  0  2.365054  0  0  -0.503495  0  2.357466  0  0  -0.308718  -0.461909  0  2.369642  0
O  O45  1  0.84235981  0.05374267  0.17916215  1  0  -0.546003  0  2.076212  0  0  -0.4847  0  2.325905  0  0  -0.509695  0  2.315616  0  0  -0.293477  -0.467016  0  2.332259  0
O  O46  1  0.07510821  0.94629872  0.82087468  1  0  -0.547033  0  2.076584  0  0  -0.4852  0  2.32616  0  0  -0.510179  0  2.315882  0  0  -0.294006  -0.467482  0  2.332587  0
F  F47  1  0.02993539  0.45568928  0.35928014  1  0  -0.253646  0  1.174308  0  0  -0.205897  0  1.330557  0  0  -0.215519  0  1.31445  0  0  -0.092718  -0.198887  0  1.3418  0
F  F48  1  0.84548304  0.54444204  0.64062381  1  0  -0.253265  0  1.175153  0  0  -0.205617  0  1.333143  0  0  -0.215141  0  1.317271  0  0  -0.093334  -0.19875  0  1.344314  0
F  F49  1  0.01834007  0.44927856  0.16923249  1  0  -0.254796  0  1.126772  0  0  -0.216797  0  1.278219  0  0  -0.225603  0  1.261334  0  0  -0.107334  -0.210325  0  1.290058  0
F  F50  1  0.63734284  0.55070330  0.83067621  1  0  -0.254053  0  1.126217  0  0  -0.214902  0  1.278392  0  0  -0.22361  0  1.261743  0  0  -0.106807  -0.208531  0  1.2901  0
F  F51  1  0.30420360  0.45792430  0.20016902  1  0  -0.260303  0  1.115566  0  0  -0.221176  0  1.266695  0  0  -0.231314  0  1.251147  0  0  -0.108279  -0.214066  0  1.27778  0
F  F52  1  0.96270210  0.54223019  0.79976007  1  0  -0.258918  0  1.116838  0  0  -0.219162  0  1.269119  0  0  -0.228974  0  1.253652  0  0  -0.107053  -0.212084  0  1.280097  0
