# generated using pymatgen
data_EuH14C14N3O9F4
_symmetry_space_group_name_H-M   'P 1'
_cell_length_a   11.41728157
_cell_length_b   12.37686179
_cell_length_c   20.22630900
_cell_angle_alpha   73.50547776
_cell_angle_beta   73.60659606
_cell_angle_gamma   62.53123709
_symmetry_Int_Tables_number   1
_chemical_formula_structural   EuH14C14N3O9F4
_chemical_formula_sum   'Eu4 H56 C56 N12 O36 F16'
_cell_volume   2392.84959877
_cell_formula_units_Z   4
loop_
 _symmetry_equiv_pos_site_id
 _symmetry_equiv_pos_as_xyz
  1  'x, y, z'
loop_
 _atom_site_type_symbol
 _atom_site_label
 _atom_site_symmetry_multiplicity
 _atom_site_fract_x
 _atom_site_fract_y
 _atom_site_fract_z
 _atom_site_occupancy
 _atom_site_pbe_bader_charge
 _atom_site_pbe_bader_spin_density
 _atom_site_pbe_cm5_charge
 _atom_site_pbe_ddec_charge
 _atom_site_pbe_ddec_spin_density
 _atom_site_pbe_ddec_sum_bond_order
 _atom_site_pbe_magmom
Eu  Eu0  1  0.13810555  0.10829906  0.69528999  1  2.204265  0  1.508124  2.055006  0  2.174887  0
Eu  Eu1  1  0.94169984  0.39168957  0.80471160  1  2.203005  0  1.507755  2.054306  0  2.174809  0
Eu  Eu2  1  0.86189480  0.89170103  0.30470968  1  2.204275  0  1.508133  2.054995  0  2.174915  0
Eu  Eu3  1  0.05830009  0.60831144  0.19528846  1  2.202986  0  1.507773  2.054342  0  2.174761  0
H  H4  1  0.96252021  0.02411631  0.61182006  1  0.105894  0  0.129589  0.051515  0  0.982311  0
H  H5  1  0.59845235  0.47587624  0.88819206  1  0.107845  0  0.130116  0.052216  0  0.983007  0
H  H6  1  0.03747922  0.97588378  0.38817976  1  0.105896  0  0.129585  0.051501  0  0.982329  0
H  H7  1  0.40154709  0.52412385  0.11180775  1  0.107849  0  0.13012  0.052222  0  0.983003  0
H  H8  1  0.24078589  0.73744865  0.65810237  1  0.08713  0  0.114787  0.133469  0  1.00952  0
H  H9  1  0.63635927  0.76252113  0.84190871  1  0.107637  0  0.114673  0.13313  0  1.011235  0
H  H10  1  0.75921446  0.26255143  0.34189729  1  0.087127  0  0.114801  0.133485  0  1.009473  0
H  H11  1  0.36363975  0.23747989  0.15809150  1  0.107637  0  0.114679  0.133112  0  1.011229  0
H  H12  1  0.25315052  0.68511534  0.58126054  1  0.096463  0  0.109276  0.127707  0  0.974109  0
H  H13  1  0.51955415  0.81486196  0.91874905  1  0.070486  0  0.109126  0.127039  0  0.974408  0
H  H14  1  0.74684983  0.31488474  0.41873913  1  0.096473  0  0.109277  0.127709  0  0.974109  0
H  H15  1  0.48044661  0.18513720  0.08125121  1  0.070485  0  0.109157  0.127122  0  0.974371  0
H  H16  1  0.14475626  0.65516514  0.65972126  1  0.077984  0  0.107773  0.128477  0  0.993859  0
H  H17  1  0.45966284  0.84482644  0.84028842  1  0.068472  0  0.107549  0.127805  0  0.994328  0
H  H18  1  0.85524409  0.34483494  0.34027841  1  0.077973  0  0.107771  0.128507  0  0.993823  0
H  H19  1  0.54033751  0.15517364  0.15971174  1  0.06847  0  0.107528  0.127771  0  0.994293  0
H  H20  1  0.92226257  0.93361129  0.54755036  1  0.052596  0  0.110019  0.122063  0  0.995132  0
H  H21  1  0.40341173  0.56640186  0.95245140  1  0.073129  0  0.110041  0.121843  0  0.994213  0
H  H22  1  0.07773687  0.06638880  0.45244945  1  0.05259  0  0.110016  0.122047  0  0.995151  0
H  H23  1  0.59658771  0.43359823  0.04754890  1  0.073132  0  0.110046  0.121854  0  0.99421  0
H  H24  1  0.96500985  0.77196872  0.57645393  1  0.074298  0  0.106726  0.126108  0  1.018285  0
H  H25  1  0.31342793  0.72804621  0.92353619  1  0.079165  0  0.106452  0.125505  0  1.017178  0
H  H26  1  0.03499000  0.22803044  0.42354647  1  0.074314  0  0.106708  0.126068  0  1.018302  0
H  H27  1  0.68657201  0.27195480  0.07646338  1  0.079171  0  0.106458  0.125513  0  1.017221  0
H  H28  1  0.07342871  0.82253302  0.50669011  1  0.095458  0  0.103887  0.119286  0  0.993365  0
H  H29  1  0.40262695  0.67748412  0.99331198  1  0.054316  0  0.104133  0.119442  0  0.993888  0
H  H30  1  0.92657072  0.17746706  0.49330970  1  0.09546  0  0.103888  0.119273  0  0.993372  0
H  H31  1  0.59737339  0.32251597  0.00668818  1  0.054393  0  0.104143  0.119461  0  0.993874  0
H  H32  1  0.48064647  0.00838036  0.68188037  1  0.122507  0  0.124121  0.048146  0  1.019581  0
H  H33  1  0.17093205  0.49159412  0.81811979  1  0.125025  0  0.124273  0.048731  0  1.01947  0
H  H34  1  0.51935297  0.99161972  0.31811944  1  0.122501  0  0.124169  0.048211  0  1.019552  0
H  H35  1  0.82906781  0.50840504  0.18188012  1  0.125029  0  0.12427  0.048741  0  1.019462  0
H  H36  1  0.69256020  0.91116411  0.68277862  1  0.038845  0  0.10346  0.111305  0  1.001625  0
H  H37  1  0.28652482  0.58880556  0.81722336  1  0.056955  0  0.103402  0.111188  0  1.002535  0
H  H38  1  0.30743965  0.08883504  0.31722178  1  0.038838  0  0.103459  0.111299  0  1.001634  0
H  H39  1  0.71347594  0.41119360  0.18277690  1  0.05696  0  0.103404  0.111189  0  1.002572  0
H  H40  1  0.77536997  0.78845837  0.63295613  1  0.123418  0  0.103724  0.126173  0  1.034702  0
H  H41  1  0.19680216  0.71151607  0.86704455  1  0.095856  0  0.103458  0.125721  0  1.034585  0
H  H42  1  0.22462905  0.21154264  0.36704359  1  0.123416  0  0.103747  0.126202  0  1.034653  0
H  H43  1  0.80319819  0.28848402  0.13295512  1  0.095856  0  0.103451  0.125706  0  1.034603  0
H  H44  1  0.74836085  0.75181536  0.72604694  1  0.102197  0  0.110706  0.132047  0  1.003817  0
H  H45  1  0.22623820  0.74815532  0.77395410  1  0.095113  0  0.11062  0.131745  0  1.0039  0
H  H46  1  0.25163900  0.24818380  0.27395297  1  0.102257  0  0.110704  0.132055  0  1.003817  0
H  H47  1  0.77376215  0.25184476  0.22604557  1  0.095123  0  0.110629  0.131757  0  1.003893  0
H  H48  1  0.47069267  0.71934708  0.68646401  1  0.072876  0  0.108257  0.127025  0  1.009241  0
H  H49  1  0.87651249  0.78062494  0.81354660  1  0.094024  0  0.108108  0.126474  0  1.008146  0
H  H50  1  0.52930677  0.28065300  0.31353581  1  0.072878  0  0.108258  0.127027  0  1.009255  0
H  H51  1  0.12348828  0.21937422  0.18645366  1  0.094015  0  0.108119  0.126485  0  1.008134  0
H  H52  1  0.62630331  0.63281746  0.71908039  1  0.078554  0  0.106518  0.125537  0  1.025201  0
H  H53  1  0.97820419  0.86715709  0.78092362  1  0.094305  0  0.106809  0.126024  0  1.024062  0
H  H54  1  0.37369662  0.36718355  0.28091918  1  0.078554  0  0.106516  0.125543  0  1.025187  0
H  H55  1  0.02179525  0.13284300  0.21907669  1  0.094303  0  0.106822  0.126039  0  1.02402  0
H  H56  1  0.62795436  0.67938807  0.62697640  1  0.06371  0  0.106493  0.130198  0  0.988356  0
H  H57  1  0.93433847  0.82058450  0.87302951  1  0.089019  0  0.106245  0.129916  0  0.988127  0
H  H58  1  0.37204508  0.32061201  0.37302341  1  0.063713  0  0.106425  0.13008  0  0.988358  0
H  H59  1  0.06566188  0.17941558  0.12697016  1  0.089018  0  0.106236  0.129912  0  0.988136  0
C  C60  1  0.28026151  0.24999551  0.75000150  1  1.650658  0  0.244426  0.697489  0  4.126939  0
C  C61  1  0.71973884  0.75000457  0.24999866  1  1.65065  0  0.244391  0.697434  0  4.127036  0
C  C62  1  0.41267927  0.24999764  0.74999916  1  0.130768  0  -0.023024  -0.209591  0  3.997615  0
C  C63  1  0.58732199  0.75000245  0.25000085  1  0.130779  0  -0.02305  -0.209649  0  3.997587  0
C  C64  1  0.51594844  0.14435025  0.77782747  1  0.482941  0  0.090206  0.149877  0  4.100539  0
C  C65  1  0.43811520  0.35564908  0.72217312  1  0.502539  0  0.089862  0.149952  0  4.10218  0
C  C66  1  0.48405100  0.85564984  0.22217283  1  0.482973  0  0.090203  0.149868  0  4.100531  0
C  C67  1  0.56188598  0.64434915  0.27782723  1  0.502564  0  0.089867  0.14997  0  4.102116  0
C  C68  1  0.63828897  0.14405587  0.77739004  1  0.537173  0  0.090952  0.15149  0  4.096076  0
C  C69  1  0.55972349  0.35594811  0.72260702  1  0.517622  0  0.089581  0.151035  0  4.099778  0
C  C70  1  0.36171129  0.85594236  0.22261045  1  0.537136  0  0.090942  0.151526  0  4.096082  0
C  C71  1  0.44027636  0.64405105  0.27739338  1  0.517627  0  0.08957  0.150991  0  4.099856  0
C  C72  1  0.66318588  0.25000402  0.74999859  1  0.113887  0  -0.023647  -0.204951  0  3.986634  0
C  C73  1  0.33681447  0.74999606  0.25000157  1  0.113871  0  -0.023647  -0.204917  0  3.986673  0
C  C74  1  0.79596710  0.25000338  0.75000153  1  1.66867  0  0.237025  0.691836  0  4.146429  0
C  C75  1  0.20403366  0.74999578  0.24999873  1  1.668662  0  0.236997  0.69177  0  4.146434  0
C  C76  1  0.98232588  0.44178745  0.65188632  1  1.626991  0  0.226508  0.667495  0  4.164792  0
C  C77  1  0.07601699  0.05820992  0.84811461  1  1.624953  0  0.227099  0.668742  0  4.16229  0
C  C78  1  0.01767405  0.55821356  0.34811326  1  1.627023  0  0.226463  0.667417  0  4.164863  0
C  C79  1  0.92398295  0.94179109  0.15188496  1  1.624943  0  0.227111  0.668765  0  4.162286  0
C  C80  1  0.99186212  0.47131477  0.57354583  1  0.069034  0  -0.020033  -0.203152  0  4.002788  0
C  C81  1  0.03673301  0.02868593  0.92645447  1  0.077822  0  -0.019389  -0.202915  0  4.001601  0
C  C82  1  0.00813823  0.52868531  0.42645384  1  0.069008  0  -0.020061  -0.203212  0  4.002793  0
C  C83  1  0.96326734  0.97131415  0.07354569  1  0.078088  0  -0.019422  -0.202993  0  4.001629  0
C  C84  1  0.90678422  0.45653634  0.54258060  1  0.574435  0  0.096927  0.164235  0  4.087125  0
C  C85  1  0.90590667  0.04347085  0.95741332  1  0.627714  0  0.096923  0.165078  0  4.085851  0
C  C86  1  0.09321613  0.54346374  0.45741857  1  0.574788  0  0.096931  0.164252  0  4.087154  0
C  C87  1  0.09409236  0.95653016  0.04258639  1  0.627659  0  0.096913  0.165114  0  4.085824  0
C  C88  1  0.08533578  0.51479229  0.52976526  1  0.554276  0  0.095423  0.161119  0  4.079556  0
C  C89  1  0.12989863  0.98519922  0.97024102  1  0.491361  0  0.095589  0.161452  0  4.0799  0
C  C90  1  0.91466324  0.48520872  0.47023495  1  0.554607  0  0.095417  0.161139  0  4.079458  0
C  C91  1  0.87010039  0.01480179  0.02975919  1  0.491124  0  0.095632  0.161514  0  4.079957  0
C  C92  1  0.04636268  0.94027459  0.63169488  1  1.372139  0  0.189609  0.327256  0  4.090965  0
C  C93  1  0.61834797  0.55970937  0.86831241  1  1.381423  0  0.18937  0.326152  0  4.091748  0
C  C94  1  0.95363717  0.05972457  0.36830503  1  1.372136  0  0.189616  0.327275  0  4.09095  0
C  C95  1  0.38165280  0.44028979  0.13168735  1  1.381419  0  0.189302  0.326021  0  4.091791  0
C  C96  1  0.18568179  0.72220523  0.62794327  1  0.250245  0  -0.131451  -0.274881  0  3.880116  0
C  C97  1  0.53585103  0.77777581  0.87206632  1  0.252303  0  -0.130794  -0.273389  0  3.881879  0
C  C98  1  0.81431856  0.27779485  0.37205640  1  0.250247  0  -0.131475  -0.274962  0  3.880019  0
C  C99  1  0.46414932  0.22222427  0.12793335  1  0.252312  0  -0.130795  -0.273451  0  3.881821  0
C  C100  1  0.00545971  0.84243831  0.55669496  1  0.261175  0  -0.131154  -0.287135  0  3.938028  0
C  C101  1  0.40458368  0.65757174  0.94330594  1  0.279633  0  -0.131418  -0.28736  0  3.935542  0
C  C102  1  0.99454014  0.15756085  0.44330495  1  0.261172  0  -0.131122  -0.287056  0  3.937999  0
C  C103  1  0.59541666  0.34242835  0.05669422  1  0.279577  0  -0.131441  -0.287448  0  3.935562  0
C  C104  1  0.46635624  0.92669711  0.68105341  1  1.352188  0  0.183281  0.323605  0  4.092349  0
C  C105  1  0.07412055  0.57327806  0.81894613  1  1.354807  0  0.183245  0.32163  0  4.090325  0
C  C106  1  0.53364320  0.07330297  0.31894640  1  1.352356  0  0.183236  0.323515  0  4.0925  0
C  C107  1  0.92587930  0.42672110  0.18105377  1  1.354831  0  0.183286  0.321704  0  4.090336  0
C  C108  1  0.70593111  0.81841211  0.68075616  1  0.219953  0  -0.132077  -0.282908  0  3.887529  0
C  C109  1  0.20511825  0.68155977  0.81924520  1  0.236066  0  -0.131725  -0.282244  0  3.888574  0
C  C110  1  0.29406833  0.18158797  0.31924365  1  0.219888  0  -0.132105  -0.282952  0  3.887475  0
C  C111  1  0.79488118  0.31844031  0.18075461  1  0.236047  0  -0.13173  -0.282215  0  3.888592  0
C  C112  1  0.57505627  0.70590663  0.67831126  1  0.289599  0  -0.135089  -0.274405  0  3.868791  0
C  C113  1  0.95928401  0.79406832  0.82169446  1  0.222326  0  -0.13519  -0.274339  0  3.866088  0
C  C114  1  0.42494408  0.29409345  0.32168841  1  0.289596  0  -0.135016  -0.274299  0  3.868719  0
C  C115  1  0.04071634  0.20593176  0.17830570  1  0.222338  0  -0.1352  -0.274343  0  3.866057  0
N  N116  1  0.07696183  0.83975778  0.60675270  1  -1.212634  0  -0.275884  0.038289  0  3.709765  0
N  N117  1  0.52347413  0.66023666  0.89325824  1  -1.210544  0  -0.275329  0.040517  0  3.70697  0
N  N118  1  0.92303852  0.16024230  0.39324697  1  -1.212626  0  -0.275878  0.038338  0  3.709676  0
N  N119  1  0.47652531  0.33976342  0.10674206  1  -1.210584  0  -0.2753  0.040684  0  3.706887  0
N  N120  1  0.57685569  0.82157647  0.68081272  1  -1.203098  0  -0.271962  0.047783  0  3.70429  0
N  N121  1  0.07926452  0.67840115  0.81919065  1  -1.200271  0  -0.271664  0.04903  0  3.703996  0
N  N122  1  0.42314375  0.17842361  0.31918710  1  -1.203094  0  -0.271953  0.047828  0  3.704229  0
N  N123  1  0.92073491  0.32159893  0.18080966  1  -1.200282  0  -0.271688  0.048946  0  3.704065  0
N  N124  1  0.20211909  0.19087134  0.54394338  1  0.815375  0  0.082314  0.72593  0  4.437298  0
N  N125  1  0.93696795  0.30912357  0.95605397  1  0.842078  0  0.080655  0.723748  0  4.435572  0
N  N126  1  0.79788035  0.80912875  0.45605594  1  0.81538  0  0.082386  0.726038  0  4.437319  0
N  N127  1  0.06303290  0.69087744  0.04394595  1  0.842034  0  0.080687  0.723771  0  4.435532  0
O  O128  1  0.28696846  0.16005490  0.72903315  1  -1.168298  0  -0.376084  -0.64046  0  2.314076  0
O  O129  1  0.17606405  0.33992129  0.77097131  1  -1.166379  0  -0.375665  -0.638944  0  2.314788  0
O  O130  1  0.71303097  0.83994518  0.27096667  1  -1.168294  0  -0.376024  -0.640375  0  2.314196  0
O  O131  1  0.82393671  0.66007787  0.22902944  1  -1.166383  0  -0.375685  -0.638973  0  2.314832  0
O  O132  1  0.89927148  0.16717240  0.72195816  1  -1.178873  0  -0.377051  -0.649371  0  2.258475  0
O  O133  1  0.78840426  0.33282235  0.77804398  1  -1.169112  0  -0.376611  -0.648276  0  2.259214  0
O  O134  1  0.10072887  0.83282768  0.27804150  1  -1.178858  0  -0.37704  -0.649336  0  2.258463  0
O  O135  1  0.21159517  0.66717773  0.22195632  1  -1.169115  0  -0.376617  -0.648269  0  2.25922  0
O  O136  1  0.02964199  0.32815914  0.68126328  1  -1.200306  0  -0.418545  -0.733012  0  2.465344  0
O  O137  1  0.03908796  0.17182725  0.81873335  1  -1.19601  0  -0.419028  -0.733479  0  2.464468  0
O  O138  1  0.97035654  0.67184094  0.31873667  1  -1.20031  0  -0.418523  -0.73295  0  2.465326  0
O  O139  1  0.96091197  0.82817376  0.18126671  1  -1.195987  0  -0.419022  -0.733472  0  2.464465  0
O  O140  1  0.92731828  0.52858542  0.68613348  1  -1.15571  0  -0.33762  -0.577075  0  2.140425  0
O  O141  1  0.14205757  0.97139830  0.81387104  1  -1.152173  0  -0.338233  -0.578064  0  2.140717  0
O  O142  1  0.07268348  0.47141559  0.31386630  1  -1.155728  0  -0.337609  -0.577061  0  2.140537  0
O  O143  1  0.85794236  0.02860271  0.18612903  1  -1.152187  0  -0.338249  -0.578081  0  2.140688  0
O  O144  1  0.10635877  0.94166211  0.67453749  1  -1.178241  0  -0.367417  -0.551066  0  2.405016  0
O  O145  1  0.72255596  0.55831600  0.82547961  1  -1.18192  0  -0.368237  -0.552295  0  2.405863  0
O  O146  1  0.89364067  0.05833797  0.32546232  1  -1.178279  0  -0.367429  -0.551092  0  2.405018  0
O  O147  1  0.27744439  0.44168409  0.17452005  1  -1.181906  0  -0.368216  -0.552261  0  2.405836  0
O  O148  1  0.35176503  0.93541346  0.68149585  1  -1.17273  0  -0.382338  -0.564987  0  2.358077  0
O  O149  1  0.96869679  0.56457477  0.81850131  1  -1.174017  0  -0.382549  -0.564555  0  2.355624  0
O  O150  1  0.64823441  0.06458663  0.31850346  1  -1.172892  0  -0.382338  -0.564985  0  2.358193  0
O  O151  1  0.03130306  0.43542439  0.18149909  1  -1.174025  0  -0.382556  -0.564596  0  2.355602  0
O  O152  1  0.27284565  0.18158205  0.58602977  1  -0.553958  0  -0.239908  -0.51007  0  1.979424  0
O  O153  1  0.04049390  0.31839232  0.91396701  1  -0.557143  0  -0.238794  -0.509081  0  1.979433  0
O  O154  1  0.72715246  0.81841896  0.41397009  1  -0.553995  0  -0.239892  -0.51008  0  1.979447  0
O  O155  1  0.95950645  0.68160776  0.08603315  1  -0.557125  0  -0.23878  -0.509066  0  1.979399  0
O  O156  1  0.22687666  0.22649649  0.48013721  1  -0.477456  0  -0.151128  -0.385329  0  1.966578  0
O  O157  1  0.93354552  0.27351564  0.01986518  1  -0.503936  0  -0.150882  -0.384711  0  1.965652  0
O  O158  1  0.77312278  0.77350360  0.51986211  1  -0.47742  0  -0.151194  -0.385403  0  1.966607  0
O  O159  1  0.06645491  0.72648629  0.98013465  1  -0.503943  0  -0.150921  -0.384758  0  1.965677  0
O  O160  1  0.10143456  0.16136693  0.57221634  1  -0.598074  0  -0.256624  -0.555229  0  2.018254  0
O  O161  1  0.83504376  0.33862626  0.92778635  1  -0.595049  0  -0.256025  -0.554025  0  2.016035  0
O  O162  1  0.89856579  0.83863316  0.42778332  1  -0.598076  0  -0.25665  -0.555262  0  2.018259  0
O  O163  1  0.16495617  0.66137475  0.07221372  1  -0.595023  0  -0.256031  -0.554022  0  2.015994  0
F  F164  1  0.49814963  0.03886782  0.80777636  1  -0.622272  0  -0.078134  -0.105092  0  1.421484  0
F  F165  1  0.34477046  0.46113362  0.69222808  1  -0.626398  0  -0.077793  -0.104834  0  1.420725  0
F  F166  1  0.50185114  0.96113134  0.19222390  1  -0.622263  0  -0.078134  -0.105085  0  1.421505  0
F  F167  1  0.65522989  0.53886647  0.30777209  1  -0.62642  0  -0.077813  -0.104856  0  1.420753  0
F  F168  1  0.73251461  0.03809410  0.80596664  1  -0.626173  0  -0.077699  -0.098939  0  1.427117  0
F  F169  1  0.57654817  0.46191426  0.69402587  1  -0.614966  0  -0.07697  -0.099022  0  1.427208  0
F  F170  1  0.26748574  0.96190599  0.19403401  1  -0.626155  0  -0.077693  -0.098962  0  1.42712  0
F  F171  1  0.42345127  0.53808582  0.30597394  1  -0.614981  0  -0.076903  -0.098949  0  1.4273  0
F  F172  1  0.81368272  0.41531134  0.58312628  1  -0.620547  0  -0.083603  -0.105562  0  1.381902  0
F  F173  1  0.81213465  0.08469566  0.91686182  1  -0.623128  0  -0.083786  -0.106502  0  1.379857  0
F  F174  1  0.18631631  0.58468967  0.41687344  1  -0.620557  0  -0.083618  -0.105575  0  1.381934  0
F  F175  1  0.18786529  0.91530535  0.08313776  1  -0.623116  0  -0.083803  -0.106544  0  1.37984  0
F  F176  1  0.17153220  0.52836379  0.55779768  1  -0.624833  0  -0.082051  -0.110422  0  1.378947  0
F  F177  1  0.25770363  0.97161906  0.94221026  1  -0.626728  0  -0.082576  -0.111177  0  1.379596  0
F  F178  1  0.82846724  0.47163630  0.44220164  1  -0.624838  0  -0.082053  -0.110431  0  1.378866  0
F  F179  1  0.74229721  0.02838195  0.05778966  1  -0.626793  0  -0.082591  -0.111196  0  1.37972  0
