# generated using pymatgen
data_Cd3H42C46(N4O9)2
_symmetry_space_group_name_H-M   'P 1'
_cell_length_a   10.35214293
_cell_length_b   10.55174345
_cell_length_c   12.97579125
_cell_angle_alpha   70.10779021
_cell_angle_beta   70.79892432
_cell_angle_gamma   84.58046252
_symmetry_Int_Tables_number   1
_chemical_formula_structural   Cd3H42C46(N4O9)2
_chemical_formula_sum   'Cd3 H42 C46 N8 O18'
_cell_volume   1258.42984508
_cell_formula_units_Z   1
loop_
 _symmetry_equiv_pos_site_id
 _symmetry_equiv_pos_as_xyz
  1  'x, y, z'
loop_
 _atom_site_type_symbol
 _atom_site_label
 _atom_site_symmetry_multiplicity
 _atom_site_fract_x
 _atom_site_fract_y
 _atom_site_fract_z
 _atom_site_occupancy
 _atom_site_hle17_bader_spin_density
 _atom_site_hle17_ddec_charge
 _atom_site_hle17_ddec_spin_density
 _atom_site_hle17_ddec_sum_bond_order
 _atom_site_hle17_magmom
 _atom_site_hse06_10hf_bader_spin_density
 _atom_site_hse06_10hf_ddec_charge
 _atom_site_hse06_10hf_ddec_spin_density
 _atom_site_hse06_10hf_ddec_sum_bond_order
 _atom_site_hse06_10hf_magmom
 _atom_site_hse06_bader_spin_density
 _atom_site_hse06_ddec_charge
 _atom_site_hse06_ddec_spin_density
 _atom_site_hse06_ddec_sum_bond_order
 _atom_site_hse06_magmom
 _atom_site_pbe_bader_spin_density
 _atom_site_pbe_cm5_charge
 _atom_site_pbe_ddec_charge
 _atom_site_pbe_ddec_spin_density
 _atom_site_pbe_ddec_sum_bond_order
 _atom_site_pbe_magmom
Cd  Cd0  1  0.50000097  0.49999951  0.50000164  1  0  1.277159  0  1.591352  0  0  1.123994  0  2.031598  0  0  1.177893  0  1.969773  0  0  0.761814  1.085266  0  2.074617  0
Cd  Cd1  1  0.14857461  0.32750253  0.26318193  1  0  1.115164  0  1.694648  0  0  0.919877  0  2.148252  0  0  0.976712  0  2.097494  0  0  0.77185  0.876624  0  2.185312  0
Cd  Cd2  1  0.85142339  0.67249750  0.73681892  1  0  1.115141  0  1.694673  0  0  0.919849  0  2.14828  0  0  0.976686  0  2.097519  0  0  0.771832  0.876597  0  2.185339  0
H  H3  1  0.14768121  0.23683246  0.51166320  1  0  0.425646  0  0.883344  0  0  0.38936  0  0.956135  0  0  0.400692  0  0.939989  0  0  0.287134  0.381223  0  0.967669  0
H  H4  1  0.85231782  0.76316758  0.48833741  1  0  0.42565  0  0.883338  0  0  0.389373  0  0.956117  0  0  0.400706  0  0.939971  0  0  0.287141  0.381236  0  0.967653  0
H  H5  1  0.06995811  0.14485279  0.47260132  1  0  0.429126  0  0.821717  0  0  0.407782  0  0.881472  0  0  0.416602  0  0.871399  0  0  0.315164  0.401077  0  0.889424  0
H  H6  1  0.93003991  0.85514825  0.52739925  1  0  0.429144  0  0.821671  0  0  0.407799  0  0.881439  0  0  0.416621  0  0.871365  0  0  0.315165  0.401094  0  0.889395  0
H  H7  1  0.75500851  0.56251999  0.44526520  1  0  0.401034  0  0.917991  0  0  0.365846  0  0.990358  0  0  0.377531  0  0.973294  0  0  0.277389  0.357618  0  1.002334  0
H  H8  1  0.24499367  0.43748411  0.55473280  1  0  0.400965  0  0.918081  0  0  0.365792  0  0.99042  0  0  0.377477  0  0.973354  0  0  0.277382  0.357564  0  1.0024  0
H  H9  1  0.77929660  0.43206154  0.40050255  1  0  0.425567  0  0.871842  0  0  0.395926  0  0.93319  0  0  0.405996  0  0.918693  0  0  0.287738  0.388672  0  0.943671  0
H  H10  1  0.22070343  0.56793950  0.59949832  1  0  0.425556  0  0.871851  0  0  0.395918  0  0.933194  0  0  0.405988  0  0.918698  0  0  0.287724  0.388665  0  0.943673  0
H  H11  1  0.46773503  0.45453398  0.29559013  1  0  0.432947  0  0.871229  0  0  0.398614  0  0.940506  0  0  0.410223  0  0.923782  0  0  0.285033  0.390366  0  0.952348  0
H  H12  1  0.53226394  0.54546705  0.70441177  1  0  0.432934  0  0.871279  0  0  0.398592  0  0.940562  0  0  0.410202  0  0.923837  0  0  0.28505  0.390344  0  0.952405  0
H  H13  1  0.50207795  0.60951678  0.26505773  1  0  0.416604  0  0.855947  0  0  0.390843  0  0.928419  0  0  0.398034  0  0.918702  0  0  0.302175  0.385789  0  0.933098  0
H  H14  1  0.49791986  0.39048520  0.73494727  1  0  0.416605  0  0.855851  0  0  0.390844  0  0.9284  0  0  0.398035  0  0.918681  0  0  0.302167  0.38579  0  0.933008  0
H  H15  1  0.07356212  0.74598716  0.40339828  1  0  0.320412  0  0.907789  0  0  0.306436  0  0.957281  0  0  0.314992  0  0.95071  0  0  0.315938  0.300243  0  0.962253  0
H  H16  1  0.92643799  0.25401491  0.59660075  1  0  0.320458  0  0.907702  0  0  0.306377  0  0.957355  0  0  0.314969  0  0.95072  0  0  0.315926  0.300181  0  0.962332  0
H  H17  1  0.15995106  0.52793630  0.81960257  1  0  0.32014  0  0.933658  0  0  0.298634  0  0.998339  0  0  0.307461  0  0.991304  0  0  0.308007  0.292366  0  1.003384  0
H  H18  1  0.84004898  0.47206274  0.18039807  1  0  0.320149  0  0.933664  0  0  0.298633  0  0.998352  0  0  0.307462  0  0.991316  0  0  0.307998  0.292365  0  1.003397  0
H  H19  1  0.32977920  0.91225694  0.25711423  1  0  0.122555  0  0.947867  0  0  0.132378  0  1.006528  0  0  0.136112  0  1.003631  0  0  0.109039  0.129722  0  1.008563  0
H  H20  1  0.67022096  0.08774615  0.74288375  1  0  0.122567  0  0.947912  0  0  0.132417  0  1.00654  0  0  0.136152  0  1.003642  0  0  0.109044  0.129761  0  1.008575  0
H  H21  1  0.53477918  0.91532154  0.08785656  1  0  0.093808  0  0.961927  0  0  0.104603  0  1.022118  0  0  0.106498  0  1.023112  0  0  0.100027  0.103115  0  1.021752  0
H  H22  1  0.46522316  0.08468059  0.91213807  1  0  0.093845  0  0.961949  0  0  0.104635  0  1.022141  0  0  0.106531  0  1.023133  0  0  0.100055  0.103141  0  1.021791  0
H  H23  1  0.55855303  0.75052906  0.98637393  1  0  0.096899  0  0.961706  0  0  0.10774  0  1.020425  0  0  0.109958  0  1.02066  0  0  0.098217  0.106073  0  1.020395  0
H  H24  1  0.44144520  0.24947203  0.01362195  1  0  0.096896  0  0.961847  0  0  0.107739  0  1.02055  0  0  0.109955  0  1.020784  0  0  0.09822  0.106076  0  1.020518  0
H  H25  1  0.38456704  0.56613626  0.05623010  1  0  0.105083  0  0.94883  0  0  0.116406  0  1.008426  0  0  0.119171  0  1.007066  0  0  0.103719  0.114394  0  1.009407  0
H  H26  1  0.61543106  0.43386178  0.94376896  1  0  0.105051  0  0.948845  0  0  0.116391  0  1.008416  0  0  0.119151  0  1.007057  0  0  0.103749  0.114379  0  1.009397  0
H  H27  1  0.97585899  0.53902860  0.40420941  1  0  0.084262  0  0.953228  0  0  0.09635  0  1.015906  0  0  0.098548  0  1.012672  0  0  0.137489  0.094467  0  1.018575  0
H  H28  1  0.02414002  0.46097243  0.59579170  1  0  0.084283  0  0.953218  0  0  0.096356  0  1.015913  0  0  0.098544  0  1.012691  0  0  0.137475  0.094473  0  1.018583  0
H  H29  1  0.15788900  0.28095235  0.76166419  1  0  0.107881  0  0.976222  0  0  0.114998  0  1.040744  0  0  0.118252  0  1.039123  0  0  0.098626  0.112489  0  1.04224  0
H  H30  1  0.84211819  0.71904674  0.23833475  1  0  0.107852  0  0.976183  0  0  0.115035  0  1.040641  0  0  0.118286  0  1.039023  0  0  0.098621  0.112524  0  1.042141  0
H  H31  1  0.16071376  0.03213347  0.85178287  1  0  0.086218  0  0.962195  0  0  0.098951  0  1.01926  0  0  0.100715  0  1.019962  0  0  0.095837  0.097534  0  1.019135  0
H  H32  1  0.83928630  0.96786758  0.14821722  1  0  0.086215  0  0.962187  0  0  0.098941  0  1.019257  0  0  0.100705  0  1.019959  0  0  0.095837  0.097525  0  1.019131  0
H  H33  1  0.16835942  0.92810120  0.05130880  1  0  0.085149  0  0.961252  0  0  0.095476  0  1.021188  0  0  0.097506  0  1.022108  0  0  0.095106  0.094027  0  1.020729  0
H  H34  1  0.83163442  0.07189878  0.94869459  1  0  0.085201  0  0.961236  0  0  0.095525  0  1.021168  0  0  0.097556  0  1.022085  0  0  0.095123  0.094075  0  1.020709  0
H  H35  1  0.17029948  0.07054131  0.17083110  1  0  0.116395  0  0.95522  0  0  0.125886  0  1.01716  0  0  0.129034  0  1.01521  0  0  0.104936  0.123554  0  1.018796  0
H  H36  1  0.82969239  0.92945867  0.82917121  1  0  0.116325  0  0.955284  0  0  0.125783  0  1.017264  0  0  0.128931  0  1.015317  0  0  0.10492  0.123452  0  1.0189  0
H  H37  1  0.16824443  0.57327806  0.99789349  1  0  0.089548  0  0.91795  0  0  0.103592  0  0.973797  0  0  0.105545  0  0.971514  0  0  0.139777  0.102135  0  0.975475  0
H  H38  1  0.83175256  0.42672498  0.00210756  1  0  0.089585  0  0.917927  0  0  0.103573  0  0.973833  0  0  0.105568  0  0.971496  0  0  0.13976  0.102116  0  0.975511  0
H  H39  1  0.84712926  0.96046864  0.37405878  1  0  0.095073  0  0.976644  0  0  0.100751  0  1.048278  0  0  0.105581  0  1.042841  0  0  0.104673  0.097379  0  1.051975  0
H  H40  1  0.15287194  0.03953044  0.62593848  1  0  0.095118  0  0.976558  0  0  0.100775  0  1.048211  0  0  0.105607  0  1.042776  0  0  0.104685  0.097404  0  1.051909  0
H  H41  1  0.43466147  0.94644521  0.37072253  1  0  0.110746  0  0.951758  0  0  0.116757  0  1.019238  0  0  0.120938  0  1.015281  0  0  0.109081  0.113705  0  1.022112  0
H  H42  1  0.56534166  0.05355285  0.62927687  1  0  0.110732  0  0.951751  0  0  0.116754  0  1.01922  0  0  0.120935  0  1.015263  0  0  0.109073  0.113701  0  1.022094  0
H  H43  1  0.63235003  0.32776872  0.28269475  1  0  0.105674  0  0.97958  0  0  0.112784  0  1.049813  0  0  0.116804  0  1.045844  0  0  0.107034  0.10998  0  1.052639  0
H  H44  1  0.36764995  0.67222830  0.71730723  1  0  0.105638  0  0.979586  0  0  0.112743  0  1.049829  0  0  0.116762  0  1.045867  0  0  0.107024  0.109939  0  1.052656  0
C  C45  1  0.25774342  0.63732064  0.19531759  1  0  0.134212  0  3.837094  0  0  0.133959  0  4.078759  0  0  0.137424  0  4.102829  0  0  0.080928  0.131459  0  4.062346  0
C  C46  1  0.74225468  0.36267841  0.80468119  1  0  0.134184  0  3.837025  0  0  0.133977  0  4.078683  0  0  0.13744  0  4.102751  0  0  0.080921  0.131476  0  4.062272  0
C  C47  1  0.24252645  0.73592238  0.25042532  1  0  0.153486  0  3.783407  0  0  0.146525  0  4.024824  0  0  0.15054  0  4.047068  0  0  0.096749  0.143808  0  4.009902  0
C  C48  1  0.75747478  0.26407872  0.74957140  1  0  0.153497  0  3.783344  0  0  0.146448  0  4.024872  0  0  0.150463  0  4.047123  0  0  0.096785  0.14373  0  4.00995  0
C  C49  1  0.34091307  0.83744809  0.21404636  1  0  -0.1495  0  3.737038  0  0  -0.164912  0  3.984943  0  0  -0.16774  0  4.003403  0  0  -0.088285  -0.163223  0  3.972624  0
C  C50  1  0.65908914  0.16255301  0.78595089  1  0  -0.149609  0  3.737052  0  0  -0.165015  0  3.984995  0  0  -0.167847  0  4.003455  0  0  -0.088356  -0.163323  0  3.972675  0
C  C51  1  0.45454133  0.83895622  0.11882827  1  0  -0.077741  0  3.785691  0  0  -0.092758  0  4.038939  0  0  -0.09439  0  4.061091  0  0  -0.095154  -0.091589  0  4.024215  0
C  C52  1  0.54546072  0.16103680  0.88117275  1  0  -0.077701  0  3.785529  0  0  -0.092704  0  4.038778  0  0  -0.09434  0  4.060941  0  0  -0.095152  -0.091539  0  4.024052  0
C  C53  1  0.46850273  0.74411939  0.06110761  1  0  -0.088963  0  3.793955  0  0  -0.104283  0  4.046655  0  0  -0.106486  0  4.068742  0  0  -0.10205  -0.102657  0  4.03181  0
C  C54  1  0.53149531  0.25588065  0.93889246  1  0  -0.089093  0  3.793879  0  0  -0.10442  0  4.046598  0  0  -0.10662  0  4.068676  0  0  -0.102097  -0.102798  0  4.031755  0
C  C55  1  0.37126652  0.64185452  0.09854437  1  0  -0.150646  0  3.773434  0  0  -0.169487  0  4.024102  0  0  -0.171897  0  4.043687  0  0  -0.097744  -0.167834  0  4.010928  0
C  C56  1  0.62873563  0.35814756  0.90145417  1  0  -0.150471  0  3.773294  0  0  -0.169321  0  4.02393  0  0  -0.171726  0  4.04351  0  0  -0.09773  -0.167669  0  4.010756  0
C  C57  1  0.06974496  0.58894604  0.34033897  1  0  0.267774  0  3.67969  0  0  0.203595  0  3.958409  0  0  0.22165  0  3.968521  0  0  0.158954  0.191884  0  3.951346  0
C  C58  1  0.93025416  0.41105905  0.65965948  1  0  0.267744  0  3.679684  0  0  0.203586  0  3.958388  0  0  0.221643  0  3.968512  0  0  0.158969  0.191874  0  3.951326  0
C  C59  1  0.16624539  0.25556724  0.03206024  1  0  0.134279  0  3.834597  0  0  0.134998  0  4.075494  0  0  0.137716  0  4.100554  0  0  0.079809  0.133096  0  4.058138  0
C  C60  1  0.83375462  0.74443179  0.96794118  1  0  0.134263  0  3.834686  0  0  0.134981  0  4.075535  0  0  0.137707  0  4.100577  0  0  0.079745  0.133078  0  4.058179  0
C  C61  1  0.16290016  0.31450364  0.91716594  1  0  0.150704  0  3.791346  0  0  0.144226  0  4.031405  0  0  0.147935  0  4.054391  0  0  0.089941  0.141608  0  4.0158  0
C  C62  1  0.83710190  0.68549641  0.08283472  1  0  0.150653  0  3.791434  0  0  0.144217  0  4.031436  0  0  0.147927  0  4.054418  0  0  0.089934  0.141598  0  4.01583  0
C  C63  1  0.16037763  0.23626278  0.84989880  1  0  -0.15818  0  3.754311  0  0  -0.174065  0  4.002778  0  0  -0.177775  0  4.023395  0  0  -0.101991  -0.171444  0  3.988943  0
C  C64  1  0.83962549  0.76373728  0.15010084  1  0  -0.15811  0  3.754258  0  0  -0.174072  0  4.002691  0  0  -0.177778  0  4.023308  0  0  -0.10195  -0.17145  0  3.988857  0
C  C65  1  0.16251404  0.09700766  0.90108553  1  0  -0.068112  0  3.788325  0  0  -0.083617  0  4.040685  0  0  -0.085234  0  4.063487  0  0  -0.097079  -0.082728  0  4.025671  0
C  C66  1  0.83748601  0.90299239  0.09891484  1  0  -0.068081  0  3.788423  0  0  -0.083581  0  4.040801  0  0  -0.085198  0  4.063603  0  0  -0.097076  -0.082693  0  4.02579  0
C  C67  1  0.16653645  0.03761053  0.01520176  1  0  -0.07712  0  3.795259  0  0  -0.091215  0  4.049232  0  0  -0.093913  0  4.072252  0  0  -0.097808  -0.089495  0  4.033875  0
C  C68  1  0.83346151  0.96238848  0.98480015  1  0  -0.077239  0  3.795381  0  0  -0.091335  0  4.049344  0  0  -0.094034  0  4.072365  0  0  -0.097841  -0.089612  0  4.033991  0
C  C69  1  0.16785928  0.11538435  0.08255209  1  0  -0.143397  0  3.741638  0  0  -0.16435  0  3.993177  0  0  -0.166921  0  4.013677  0  0  -0.094057  -0.162287  0  3.979184  0
C  C70  1  0.83213359  0.88461362  0.91745053  1  0  -0.143265  0  3.74162  0  0  -0.164187  0  3.993137  0  0  -0.16676  0  4.013636  0  0  -0.094007  -0.162127  0  3.979145  0
C  C71  1  0.16797353  0.47332212  0.99143332  1  0  0.254358  0  3.697888  0  0  0.189106  0  3.980473  0  0  0.206972  0  3.990663  0  0  0.154407  0.177476  0  3.973067  0
C  C72  1  0.83202453  0.52667692  0.00856625  1  0  0.254363  0  3.697942  0  0  0.189139  0  3.980524  0  0  0.206975  0  3.990711  0  0  0.154393  0.17751  0  3.973117  0
C  C73  1  0.75081577  0.15106625  0.32994455  1  0  -0.079668  0  3.76782  0  0  -0.050529  0  4.00205  0  0  -0.061901  0  4.025571  0  0  -0.021033  -0.043529  0  3.987053  0
C  C74  1  0.24918633  0.84893079  0.67005537  1  0  -0.079743  0  3.768054  0  0  -0.050576  0  4.002235  0  0  -0.061946  0  4.025757  0  0  -0.021089  -0.043575  0  3.987236  0
C  C75  1  0.75366158  0.01041278  0.36268771  1  0  -0.049057  0  3.699347  0  0  -0.088983  0  3.948895  0  0  -0.083462  0  3.964869  0  0  -0.071011  -0.091877  0  3.937701  0
C  C76  1  0.24634051  0.98958125  0.63731226  1  0  -0.049159  0  3.699356  0  0  -0.089076  0  3.948909  0  0  -0.083558  0  3.964888  0  0  -0.071049  -0.09197  0  3.937715  0
C  C77  1  0.63977516  0.93631271  0.37884170  1  0  -0.082546  0  3.773569  0  0  -0.056203  0  4.01461  0  0  -0.067837  0  4.038989  0  0  -0.018872  -0.048774  0  3.99784  0
C  C78  1  0.36022493  0.06368735  0.62115789  1  0  -0.082444  0  3.77346  0  0  -0.056119  0  4.014502  0  0  -0.067754  0  4.038882  0  0  -0.018854  -0.048689  0  3.99773  0
C  C79  1  0.52369742  0.00422099  0.35759277  1  0  -0.034845  0  3.664629  0  0  -0.07546  0  3.913453  0  0  -0.069912  0  3.930669  0  0  -0.063579  -0.078045  0  3.901149  0
C  C80  1  0.47630268  0.99578007  0.64240654  1  0  -0.034798  0  3.664554  0  0  -0.07542  0  3.913378  0  0  -0.069869  0  3.93059  0  0  -0.063554  -0.078004  0  3.901071  0
C  C81  1  0.52117475  0.14504661  0.32042370  1  0  -0.073988  0  3.751972  0  0  -0.044218  0  3.985682  0  0  -0.055804  0  4.009632  0  0  -0.018386  -0.036986  0  3.969983  0
C  C82  1  0.47882625  0.85495342  0.67957798  1  0  -0.074105  0  3.752002  0  0  -0.044339  0  3.985719  0  0  -0.055929  0  4.009668  0  0  -0.018408  -0.037107  0  3.970018  0
C  C83  1  0.63437783  0.21828849  0.30857982  1  0  -0.044786  0  3.662704  0  0  -0.085979  0  3.908519  0  0  -0.080494  0  3.925837  0  0  -0.070314  -0.089448  0  3.897639  0
C  C84  1  0.36562328  0.78171157  0.69141952  1  0  -0.044624  0  3.662671  0  0  -0.085821  0  3.908461  0  0  -0.080339  0  3.925783  0  0  -0.07026  -0.089292  0  3.897582  0
C  C85  1  0.87403768  0.22571751  0.31753239  1  0  0.653632  0  3.89269  0  0  0.603539  0  4.176303  0  0  0.637694  0  4.170852  0  0  0.206927  0.58018  0  4.179336  0
C  C86  1  0.12596128  0.77428251  0.68246979  1  0  0.653674  0  3.892437  0  0  0.60359  0  4.176009  0  0  0.637745  0  4.170555  0  0  0.20698  0.580231  0  4.179042  0
C  C87  1  0.64099195  0.78549219  0.41686409  1  0  0.66315  0  3.901303  0  0  0.60699  0  4.199264  0  0  0.641589  0  4.193295  0  0  0.215197  0.58342  0  4.202606  0
C  C88  1  0.35900910  0.21450585  0.58313658  1  0  0.663094  0  3.901397  0  0  0.606954  0  4.199315  0  0  0.641555  0  4.193347  0  0  0.215225  0.583385  0  4.202656  0
C  C89  1  0.39661755  0.21514181  0.29525977  1  0  0.633789  0  3.929857  0  0  0.58497  0  4.215889  0  0  0.619124  0  4.211045  0  0  0.194105  0.561719  0  4.21831  0
C  C90  1  0.60338458  0.78485826  0.70473932  1  0  0.633768  0  3.930044  0  0  0.584957  0  4.216068  0  0  0.619113  0  4.211221  0  0  0.194065  0.561706  0  4.218489  0
N  N91  1  0.14774805  0.54615535  0.25485647  1  0  -0.457631  0  3.194216  0  0  -0.387792  0  3.481397  0  0  -0.411113  0  3.495712  0  0  -0.364867  -0.371541  0  3.470959  0
N  N92  1  0.85225002  0.45384671  0.74514305  1  0  -0.457671  0  3.194265  0  0  -0.387829  0  3.481436  0  0  -0.41115  0  3.495749  0  0  -0.364863  -0.371576  0  3.470999  0
N  N93  1  0.12094699  0.70199266  0.34065707  1  0  -0.323964  0  3.380156  0  0  -0.2619  0  3.611705  0  0  -0.279412  0  3.622925  0  0  -0.375228  -0.250306  0  3.604082  0
N  N94  1  0.87905112  0.29801041  0.65934139  1  0  -0.323912  0  3.380047  0  0  -0.261771  0  3.6117  0  0  -0.279305  0  3.622889  0  0  -0.375208  -0.250175  0  3.60408  0
N  N95  1  0.16971018  0.35840339  0.07579204  1  0  -0.464949  0  3.212405  0  0  -0.395651  0  3.504328  0  0  -0.41895  0  3.519118  0  0  -0.364614  -0.379177  0  3.493484  0
N  N96  1  0.83028370  0.64159660  0.92421056  1  0  -0.464962  0  3.212479  0  0  -0.39566  0  3.504377  0  0  -0.418965  0  3.519183  0  0  -0.364562  -0.379185  0  3.493532  0
N  N97  1  0.16417744  0.45245822  0.89516054  1  0  -0.342094  0  3.393313  0  0  -0.280137  0  3.632007  0  0  -0.29778  0  3.643694  0  0  -0.375886  -0.268369  0  3.624102  0
N  N98  1  0.83582571  0.54754186  0.10483832  1  0  -0.342142  0  3.393347  0  0  -0.280169  0  3.631996  0  0  -0.297825  0  3.643708  0  0  -0.375879  -0.268402  0  3.62409  0
O  O99  1  0.87061308  0.35414186  0.29525359  1  0  -0.675258  0  2.015096  0  0  -0.609762  0  2.240812  0  0  -0.636029  0  2.230253  0  0  -0.326142  -0.590705  0  2.24743  0
O  O100  1  0.12938698  0.64585618  0.70474654  1  0  -0.675334  0  2.014903  0  0  -0.609848  0  2.240612  0  0  -0.636117  0  2.230054  0  0  -0.326187  -0.59079  0  2.247231  0
O  O101  1  0.97987642  0.15788813  0.32848912  1  0  -0.62661  0  1.977138  0  0  -0.562407  0  2.211867  0  0  -0.59062  0  2.20198  0  0  -0.324869  -0.541474  0  2.218878  0
O  O102  1  0.02012266  0.84211292  0.67151043  1  0  -0.626586  0  1.977088  0  0  -0.562377  0  2.211795  0  0  -0.590591  0  2.201909  0  0  -0.324866  -0.541444  0  2.218808  0
O  O103  1  0.74974296  0.72538860  0.43359026  1  0  -0.663649  0  2.040034  0  0  -0.594109  0  2.262191  0  0  -0.621409  0  2.251657  0  0  -0.318556  -0.574644  0  2.268576  0
O  O104  1  0.25025710  0.27460944  0.56640987  1  0  -0.663662  0  2.040091  0  0  -0.594107  0  2.262209  0  0  -0.621401  0  2.25166  0  0  -0.31858  -0.574642  0  2.268593  0
O  O105  1  0.53356545  0.72618422  0.42881756  1  0  -0.635533  0  2.014105  0  0  -0.570167  0  2.264098  0  0  -0.599651  0  2.254496  0  0  -0.319622  -0.549388  0  2.26996  0
O  O106  1  0.46643460  0.27381583  0.57118281  1  0  -0.63553  0  2.014144  0  0  -0.570185  0  2.264142  0  0  -0.599667  0  2.254534  0  0  -0.319646  -0.549408  0  2.270006  0
O  O107  1  0.30180887  0.14498520  0.29670131  1  0  -0.636633  0  1.933318  0  0  -0.577103  0  2.167391  0  0  -0.604887  0  2.157543  0  0  -0.333269  -0.556704  0  2.174335  0
O  O108  1  0.69819127  0.85501588  0.70329721  1  0  -0.636592  0  1.933419  0  0  -0.577058  0  2.167482  0  0  -0.604843  0  2.157634  0  0  -0.333206  -0.556658  0  2.174423  0
O  O109  1  0.38754409  0.34287996  0.27326148  1  0  -0.657732  0  2.009137  0  0  -0.590467  0  2.238376  0  0  -0.619214  0  2.229577  0  0  -0.3247  -0.569402  0  2.243068  0
O  O110  1  0.61245695  0.65712008  0.72673942  1  0  -0.657697  0  2.009161  0  0  -0.590444  0  2.238406  0  0  -0.619185  0  2.229599  0  0  -0.324697  -0.569379  0  2.243099  0
O  O111  1  0.07098333  0.23365360  0.47999475  1  0  -0.820246  0  1.87756  0  0  -0.763031  0  2.067111  0  0  -0.784742  0  2.039284  0  0  -0.567474  -0.747838  0  2.087506  0
O  O112  1  0.92901775  0.76634746  0.52000509  1  0  -0.820245  0  1.877523  0  0  -0.763079  0  2.067052  0  0  -0.784779  0  2.03923  0  0  -0.567481  -0.747886  0  2.087447  0
O  O113  1  0.73541084  0.46385702  0.46729895  1  0  -0.841689  0  1.847758  0  0  -0.783111  0  2.032463  0  0  -0.805519  0  1.999564  0  0  -0.594592  -0.767201  0  2.055669  0
O  O114  1  0.26459125  0.53614505  0.53270116  1  0  -0.841588  0  1.847826  0  0  -0.783028  0  2.032517  0  0  -0.805429  0  1.999614  0  0  -0.594568  -0.767125  0  2.055729  0
O  O115  1  0.52221274  0.51866927  0.30837612  1  0  -0.84536  0  1.861471  0  0  -0.788178  0  2.063798  0  0  -0.809402  0  2.031962  0  0  -0.584728  -0.773144  0  2.083849  0
O  O116  1  0.47778727  0.48133278  0.69162526  1  0  -0.845367  0  1.861476  0  0  -0.788169  0  2.063891  0  0  -0.809394  0  2.032052  0  0  -0.584735  -0.773134  0  2.083876  0
