# generated using pymatgen
data_ZnH4C16(NCl)4
_symmetry_space_group_name_H-M   'P 1'
_cell_length_a   19.82060440
_cell_length_b   19.82057886
_cell_length_c   19.82051970
_cell_angle_alpha   107.54586126
_cell_angle_beta   110.44236800
_cell_angle_gamma   110.44242972
_symmetry_Int_Tables_number   1
_chemical_formula_structural   ZnH4C16(NCl)4
_chemical_formula_sum   'Zn4 H16 C64 N16 Cl16'
_cell_volume   5989.07681885
_cell_formula_units_Z   4
loop_
 _symmetry_equiv_pos_site_id
 _symmetry_equiv_pos_as_xyz
  1  'x, y, z'
loop_
 _atom_site_type_symbol
 _atom_site_label
 _atom_site_symmetry_multiplicity
 _atom_site_fract_x
 _atom_site_fract_y
 _atom_site_fract_z
 _atom_site_occupancy
 _atom_site_pbe_bader_charge
 _atom_site_pbe_bader_spin_density
 _atom_site_pbe_cm5_charge
 _atom_site_pbe_ddec_charge
 _atom_site_pbe_ddec_spin_density
 _atom_site_pbe_ddec_sum_bond_order
 _atom_site_pbe_magmom
C  C0  1  0.93125457  0.52924105  0.65380788  1  0.591728  0  0.116638  0.19088  0  4.07582  0
C  C1  1  0.70875880  0.35109749  0.41979243  1  0.659893  0  0.114084  0.186256  0  4.116471  0
C  C2  1  0.92396778  0.94593047  0.61027119  1  -0.086863  0  -0.082233  -0.122528  0  3.963041  0
C  C3  1  0.66434015  0.97804126  0.05407118  1  -0.078706  0  -0.082246  -0.122562  0  3.963073  0
C  C4  1  0.59847539  0.98264749  0.90660701  1  0.04712  0  -0.08323  -0.12468  0  3.966063  0
C  C5  1  0.92395854  0.61583342  0.01734906  1  0.00427  0  -0.083307  -0.124734  0  3.966172  0
C  C6  1  0.07602852  0.68630400  0.02196324  1  -0.05573  0  -0.082172  -0.122416  0  3.963001  0
C  C7  1  0.92396095  0.61026184  0.94592675  1  -0.086293  0  -0.0823  -0.122501  0  3.963186  0
C  C8  1  0.07603214  0.69187333  0.09338626  1  0.025897  0  -0.083328  -0.124795  0  3.96611  0
C  C9  1  0.59848252  0.90660916  0.98264768  1  0.047386  0  -0.08333  -0.12484  0  3.965924  0
C  C10  1  0.66433197  0.05407161  0.97803237  1  -0.077953  0  -0.082406  -0.122767  0  3.963271  0
C  C11  1  0.07603695  0.02196914  0.68630343  1  -0.055653  0  -0.082279  -0.122614  0  3.963391  0
C  C12  1  0.93130370  0.58020688  0.28896769  1  0.60368  0  0.114171  0.186325  0  4.116262  0
C  C13  1  0.92396251  0.01735098  0.61583976  1  -0.029932  0  -0.083351  -0.124786  0  3.966013  0
C  C14  1  0.40153076  0.38418429  0.30814527  1  -0.006905  0  -0.083277  -0.124699  0  3.966529  0
C  C15  1  0.33566374  0.31369836  0.38972823  1  -0.054717  0  -0.082254  -0.12261  0  3.963163  0
C  C16  1  0.30228195  0.35579924  0.35579760  1  0.118605  0  -0.000966  0.136366  0  4.111515  0
C  C17  1  0.43671339  0.34451612  0.34451479  1  0.074531  0  -0.001893  0.13515  0  4.11916  0
C  C18  1  0.99999961  0.09220086  0.65548974  1  0.041827  0  -0.001872  0.135228  0  4.119191  0
C  C19  1  0.00000384  0.94648660  0.64421085  1  0.134264  0  -0.000846  0.136396  0  4.111556  0
C  C20  1  0.69772946  0.05351994  0.05351510  1  0.193237  0  -0.000822  0.136257  0  4.111795  0
C  C21  1  0.56329099  0.90780256  0.90780153  1  0.006082  0  -0.001846  0.135382  0  4.118676  0
C  C22  1  0.99999655  0.65549041  0.09219725  1  0.04205  0  -0.001847  0.135243  0  4.118956  0
C  C23  1  0.06874901  0.59798660  0.72255514  1  0.579485  0  0.116675  0.190886  0  4.075768  0
C  C24  1  0.99999578  0.64420275  0.94647956  1  0.133642  0  -0.000897  0.136244  0  4.111427  0
C  C25  1  0.87543532  0.27744550  0.34618835  1  0.596  0  0.116605  0.190801  0  4.075727  0
C  C26  1  0.29123598  0.71103066  0.64233602  1  0.617944  0  0.11419  0.186516  0  4.116235  0
C  C27  1  0.06869177  0.35766030  0.64889598  1  0.615807  0  0.11424  0.186483  0  4.116456  0
C  C28  1  0.93126421  0.65381344  0.52925227  1  0.589345  0  0.116708  0.191003  0  4.076316  0
C  C29  1  0.06869775  0.64890117  0.35766325  1  0.61649  0  0.114192  0.18645  0  4.116489  0
C  C30  1  0.70876936  0.41980592  0.35110366  1  0.660049  0  0.114126  0.186304  0  4.116477  0
C  C31  1  0.12456475  0.40200465  0.47075545  1  0.596709  0  0.116587  0.190802  0  4.075967  0
C  C32  1  0.06875865  0.72255687  0.59799652  1  0.579538  0  0.116709  0.190947  0  4.075649  0
C  C33  1  0.93129639  0.28896427  0.58019912  1  0.603543  0  0.114214  0.186446  0  4.116148  0
C  C34  1  0.29123559  0.64233438  0.71103562  1  0.618489  0  0.114166  0.186392  0  4.116429  0
C  C35  1  0.87543483  0.34619471  0.27744262  1  0.595907  0  0.116626  0.190857  0  4.07591  0
C  C36  1  0.12456691  0.47075652  0.40200972  1  0.596712  0  0.116632  0.190832  0  4.07587  0
C  C37  1  0.24045172  0.36801839  0.36801903  1  0.000328  0  -0.040426  -0.099153  0  4.107806  0
C  C38  1  0.50885952  0.34584326  0.34584763  1  -0.120078  0  -0.041817  -0.100276  0  4.115401  0
C  C39  1  0.99999876  0.16301424  0.65415904  1  -0.130572  0  -0.041775  -0.10036  0  4.115116  0
C  C40  1  0.00000114  0.87243575  0.63199080  1  0.15299  0  -0.040363  -0.098963  0  4.107644  0
C  C41  1  0.75955629  0.12756426  0.12756263  1  0.218443  0  -0.040314  -0.098863  0  4.107419  0
C  C42  1  0.49113457  0.83698374  0.83698526  1  -0.12411  0  -0.04194  -0.10051  0  4.115498  0
C  C43  1  0.99999841  0.65415937  0.16301399  1  -0.130859  0  -0.041743  -0.100319  0  4.115393  0
C  C44  1  0.99999878  0.63198574  0.87243111  1  0.154207  0  -0.04042  -0.099156  0  4.107782  0
C  C45  1  0.57538690  0.35351699  0.35351425  1  -0.163624  0  -0.061461  -0.083206  0  4.197775  0
C  C46  1  0.19240902  0.38456514  0.38456453  1  -0.304554  0  -0.059584  -0.084628  0  4.195681  0
C  C47  1  0.00001126  0.80785030  0.61544462  1  -0.409073  0  -0.059577  -0.084766  0  4.195457  0
C  C48  1  0.99999303  0.22187458  0.64648167  1  -0.170606  0  -0.061528  -0.083228  0  4.197812  0
C  C49  1  0.42460932  0.77812856  0.77813221  1  -0.18818  0  -0.061382  -0.083082  0  4.197939  0
C  C50  1  0.80759691  0.19215984  0.19215301  1  -0.538538  0  -0.059659  -0.084792  0  4.195296  0
C  C51  1  0.99999693  0.61543244  0.80784145  1  -0.410407  0  -0.059478  -0.084444  0  4.195555  0
C  C52  1  0.00000055  0.64648636  0.22187118  1  -0.170446  0  -0.061496  -0.083113  0  4.197836  0
C  C53  1  0.00000334  0.58664240  0.73410714  1  0.187205  0  -0.032298  -0.069573  0  4.173635  0
C  C54  1  0.00000195  0.62920863  0.28519747  1  0.194992  0  -0.032892  -0.06814  0  4.174599  0
C  C55  1  0.65598972  0.37079097  0.37078511  1  0.076815  0  -0.032835  -0.067958  0  4.174361  0
C  C56  1  0.14746650  0.41335751  0.41335922  1  0.205059  0  -0.032257  -0.069466  0  4.17376  0
C  C57  1  0.00001075  0.73411375  0.58663830  1  0.187076  0  -0.032357  -0.069464  0  4.173665  0
C  C58  1  0.99999436  0.28519578  0.62920692  1  0.195192  0  -0.032858  -0.068047  0  4.17491  0
C  C59  1  0.34400510  0.71479866  0.71480223  1  0.203505  0  -0.032959  -0.068084  0  4.17427  0
C  C60  1  0.85253120  0.26589306  0.26588636  1  0.209422  0  -0.032308  -0.069494  0  4.173721  0
C  C61  1  0.33567916  0.38975264  0.31371722  1  -0.055731  0  -0.08235  -0.122815  0  3.963419  0
C  C62  1  0.40151578  0.30812562  0.38415940  1  -0.006632  0  -0.083238  -0.124697  0  3.966216  0
C  C63  1  0.07603744  0.09339051  0.69187525  1  0.014466  0  -0.083286  -0.124654  0  3.966268  0
Cl  Cl64  1  0.82880644  0.48984109  0.62525940  1  -0.168524  0  0.022918  -0.043058  0  1.571913  0
Cl  Cl65  1  0.68384522  0.29091597  0.46250911  1  -0.173536  0  0.012486  -0.058801  0  1.568299  0
Cl  Cl66  1  0.82840443  0.53748737  0.22133490  1  -0.169203  0  0.01243  -0.058872  0  1.56823  0
Cl  Cl67  1  0.17119897  0.66103700  0.79646152  1  -0.159818  0  0.022942  -0.043034  0  1.571813  0
Cl  Cl68  1  0.86457946  0.20353794  0.37473361  1  -0.166327  0  0.022938  -0.043022  0  1.571741  0
Cl  Cl69  1  0.31614780  0.77865860  0.60706401  1  -0.172436  0  0.012472  -0.058853  0  1.568267  0
Cl  Cl70  1  0.17158748  0.39292996  0.70907626  1  -0.173545  0  0.012462  -0.058832  0  1.568446  0
Cl  Cl71  1  0.82882315  0.62526852  0.48985322  1  -0.167271  0  0.022927  -0.043088  0  1.572296  0
Cl  Cl72  1  0.17159124  0.70907532  0.39292816  1  -0.173709  0  0.012421  -0.058876  0  1.56849  0
Cl  Cl73  1  0.68385350  0.46252179  0.29092620  1  -0.173803  0  0.012474  -0.058798  0  1.56847  0
Cl  Cl74  1  0.13541886  0.33895775  0.51015517  1  -0.165721  0  0.022991  -0.042973  0  1.571936  0
Cl  Cl75  1  0.17121391  0.79646895  0.66104393  1  -0.160163  0  0.022894  -0.043077  0  1.571712  0
Cl  Cl76  1  0.82839625  0.22133503  0.53748043  1  -0.16939  0  0.012443  -0.05887  0  1.568209  0
Cl  Cl77  1  0.31614571  0.60706518  0.77866375  1  -0.172524  0  0.012442  -0.058866  0  1.568394  0
Cl  Cl78  1  0.86457978  0.37473918  0.20354304  1  -0.166262  0  0.022961  -0.04299  0  1.572057  0
Cl  Cl79  1  0.13542404  0.51016082  0.33896423  1  -0.165651  0  0.022948  -0.043021  0  1.571896  0
H  H80  1  0.42803953  0.41194903  0.27702755  1  0.069389  0  0.107534  0.111785  0  0.986118  0
H  H81  1  0.13496383  0.71307890  0.02309075  1  0.08074  0  0.107928  0.112164  0  0.985531  0
H  H82  1  0.68999104  0.97691036  0.11187583  1  0.076032  0  0.107927  0.112215  0  0.985583  0
H  H83  1  0.57197007  0.98390346  0.84897963  1  0.049153  0  0.107487  0.111763  0  0.986013  0
H  H84  1  0.13491972  0.15101816  0.72299585  1  0.076178  0  0.107472  0.111724  0  0.985902  0
H  H85  1  0.86503110  0.88812388  0.57811325  1  0.100329  0  0.107953  0.112186  0  0.985537  0
H  H86  1  0.31003407  0.42191735  0.28695043  1  0.083353  0  0.107983  0.112344  0  0.985491  0
H  H87  1  0.42801442  0.27699210  0.41190873  1  0.069796  0  0.107455  0.111776  0  0.985802  0
H  H88  1  0.31000719  0.28691223  0.42187718  1  0.082175  0  0.107957  0.112221  0  0.985485  0
H  H89  1  0.13496786  0.02308971  0.71307755  1  0.080576  0  0.10794  0.112193  0  0.985548  0
H  H90  1  0.86508113  0.01610234  0.58808049  1  0.088431  0  0.107456  0.111712  0  0.985844  0
H  H91  1  0.57197680  0.84897770  0.98389905  1  0.049034  0  0.107493  0.111776  0  0.985885  0
H  H92  1  0.68998193  0.11187676  0.97691003  1  0.076228  0  0.107979  0.112276  0  0.985629  0
H  H93  1  0.86502734  0.57810057  0.88811450  1  0.100555  0  0.107957  0.112174  0  0.985535  0
H  H94  1  0.13491268  0.72299858  0.15101957  1  0.06496  0  0.107448  0.111737  0  0.985809  0
H  H95  1  0.86507276  0.58806690  0.01609143  1  0.053612  0  0.107413  0.11166  0  0.985939  0
N  N96  1  0.95697785  0.50725212  0.60063805  1  -0.750847  0  -0.278573  -0.242793  0  3.539792  0
N  N97  1  0.78545436  0.38677555  0.42995889  1  -0.850037  0  -0.271062  -0.234815  0  3.52411  0
N  N98  1  0.95681440  0.57004124  0.35549790  1  -0.713573  0  -0.271038  -0.234688  0  3.523979  0
N  N99  1  0.04300608  0.55026669  0.64365342  1  -0.818764  0  -0.278348  -0.242469  0  3.539611  0
N  N100  1  0.90660904  0.35634200  0.39935269  1  -0.842938  0  -0.278384  -0.24251  0  3.539542  0
N  N101  1  0.21454523  0.64449470  0.60131471  1  -0.860005  0  -0.271142  -0.235033  0  3.524133  0
N  N102  1  0.04318111  0.39868082  0.61322338  1  -0.851971  0  -0.271177  -0.234958  0  3.524244  0
N  N103  1  0.95699105  0.60064740  0.50725984  1  -0.741535  0  -0.278393  -0.24262  0  3.539819  0
N  N104  1  0.04318449  0.61322741  0.39868266  1  -0.8526  0  -0.27111  -0.234886  0  3.524064  0
N  N105  1  0.78546096  0.42996079  0.38677323  1  -0.713943  0  -0.271121  -0.234807  0  3.524082  0
N  N106  1  0.09338322  0.44972275  0.49273517  1  -0.848821  0  -0.278368  -0.24257  0  3.539479  0
N  N107  1  0.04301796  0.64365770  0.55026875  1  -0.809441  0  -0.278561  -0.242859  0  3.539845  0
N  N108  1  0.95681058  0.35549808  0.57004072  1  -0.713568  0  -0.271088  -0.234799  0  3.524033  0
N  N109  1  0.21454349  0.60130828  0.64449873  1  -0.723328  0  -0.27103  -0.234749  0  3.523966  0
N  N110  1  0.90660945  0.39935726  0.35633936  1  -0.70447  0  -0.278517  -0.242772  0  3.539619  0
N  N111  1  0.09338318  0.49273842  0.44972269  1  -0.709976  0  -0.278482  -0.242667  0  3.539676  0
Zn  Zn112  1  0.89504571  0.39504818  0.49999741  1  1.21749  0  0.738121  0.684088  0  2.360805  0
Zn  Zn113  1  0.10495073  0.60494762  0.49999502  1  1.217231  0  0.738146  0.684199  0  2.360735  0
Zn  Zn114  1  0.89505050  0.50000161  0.39505258  1  1.217472  0  0.738208  0.684232  0  2.360786  0
Zn  Zn115  1  0.10494683  0.49999622  0.60494895  1  1.217192  0  0.738129  0.684133  0  2.360667  0
