# generated using pymatgen
data_ZnH12C7S2(NO)4
_symmetry_space_group_name_H-M   'P 1'
_cell_length_a   8.38108791
_cell_length_b   10.83804568
_cell_length_c   14.68570410
_cell_angle_alpha   90.00008813
_cell_angle_beta   90.00006093
_cell_angle_gamma   89.99995246
_symmetry_Int_Tables_number   1
_chemical_formula_structural   ZnH12C7S2(NO)4
_chemical_formula_sum   'Zn4 H48 C28 S8 N16 O16'
_cell_volume   1333.97025748
_cell_formula_units_Z   4
loop_
 _symmetry_equiv_pos_site_id
 _symmetry_equiv_pos_as_xyz
  1  'x, y, z'
loop_
 _atom_site_type_symbol
 _atom_site_label
 _atom_site_symmetry_multiplicity
 _atom_site_fract_x
 _atom_site_fract_y
 _atom_site_fract_z
 _atom_site_occupancy
 _atom_site_hle17_bader_spin_density
 _atom_site_hle17_ddec_charge
 _atom_site_hle17_ddec_spin_density
 _atom_site_hle17_ddec_sum_bond_order
 _atom_site_hle17_magmom
 _atom_site_hse06_10hf_bader_spin_density
 _atom_site_hse06_10hf_ddec_charge
 _atom_site_hse06_10hf_ddec_spin_density
 _atom_site_hse06_10hf_ddec_sum_bond_order
 _atom_site_hse06_10hf_magmom
 _atom_site_hse06_bader_spin_density
 _atom_site_hse06_ddec_charge
 _atom_site_hse06_ddec_spin_density
 _atom_site_hse06_ddec_sum_bond_order
 _atom_site_hse06_magmom
 _atom_site_pbe_bader_spin_density
 _atom_site_pbe_cm5_charge
 _atom_site_pbe_ddec_charge
 _atom_site_pbe_ddec_spin_density
 _atom_site_pbe_ddec_sum_bond_order
 _atom_site_pbe_magmom
Zn  Zn0  1  0.18023586  0.86945738  0.82904490  1  0  0.837468  0  2.092261  0  0  0.677323  0  2.576361  0  0  0.720111  0  2.52556  0  0  0.528712  0.647527  0  2.611401  0
Zn  Zn1  1  0.31976302  0.13054223  0.32904466  1  0  0.837448  0  2.092296  0  0  0.677278  0  2.576375  0  0  0.720063  0  2.525574  0  0  0.528692  0.647483  0  2.611414  0
Zn  Zn2  1  0.81976274  0.36945727  0.67095637  1  0  0.837469  0  2.092257  0  0  0.677298  0  2.576335  0  0  0.720084  0  2.525534  0  0  0.528696  0.647507  0  2.611376  0
Zn  Zn3  1  0.68023609  0.63054353  0.17095525  1  0  0.837433  0  2.092293  0  0  0.677286  0  2.5764  0  0  0.720076  0  2.525599  0  0  0.528694  0.647487  0  2.611441  0
H  H4  1  0.60168054  0.01932350  0.97711916  1  0  0.129474  0  0.959023  0  0  0.135465  0  1.025036  0  0  0.140071  0  1.023482  0  0  0.097731  0.13223  0  1.026226  0
H  H5  1  0.89832124  0.98067609  0.47711721  1  0  0.129499  0  0.959006  0  0  0.135455  0  1.025058  0  0  0.140062  0  1.023506  0  0  0.097711  0.13222  0  1.026248  0
H  H6  1  0.39831962  0.51932375  0.52288307  1  0  0.129501  0  0.959003  0  0  0.135458  0  1.025053  0  0  0.140064  0  1.023501  0  0  0.097713  0.132223  0  1.026243  0
H  H7  1  0.10167988  0.48067706  0.02288106  1  0  0.129477  0  0.959022  0  0  0.135469  0  1.025033  0  0  0.140075  0  1.023478  0  0  0.09773  0.132233  0  1.026224  0
H  H8  1  0.79473437  0.30138157  0.00053835  1  0  0.116652  0  0.93988  0  0  0.140106  0  0.995981  0  0  0.141156  0  0.996522  0  0  0.095055  0.139209  0  0.995778  0
H  H9  1  0.70526653  0.69861795  0.50053977  1  0  0.116658  0  0.939873  0  0  0.140116  0  0.995964  0  0  0.141159  0  0.996512  0  0  0.095048  0.139212  0  0.99577  0
H  H10  1  0.20526694  0.80138202  0.49946108  1  0  0.11669  0  0.93983  0  0  0.140126  0  0.995953  0  0  0.14117  0  0.9965  0  0  0.095059  0.139222  0  0.995758  0
H  H11  1  0.29473464  0.19861886  0.99946130  1  0  0.116644  0  0.939888  0  0  0.140099  0  0.995993  0  0  0.141144  0  0.996538  0  0  0.095048  0.139197  0  0.995795  0
H  H12  1  0.92531261  0.21445816  0.93164317  1  0  0.117086  0  0.942952  0  0  0.137078  0  1.006462  0  0  0.138577  0  1.006774  0  0  0.094025  0.135995  0  1.006223  0
H  H13  1  0.57468909  0.78554041  0.43164284  1  0  0.117081  0  0.942899  0  0  0.137057  0  1.006432  0  0  0.138555  0  1.006745  0  0  0.094022  0.135975  0  1.006192  0
H  H14  1  0.07468854  0.71445964  0.56835656  1  0  0.117087  0  0.942916  0  0  0.137066  0  1.00644  0  0  0.138565  0  1.006753  0  0  0.094018  0.135984  0  1.006201  0
H  H15  1  0.42531343  0.28554127  0.06835656  1  0  0.117068  0  0.942963  0  0  0.137059  0  1.006475  0  0  0.138558  0  1.006788  0  0  0.09402  0.135976  0  1.006236  0
H  H16  1  0.82522814  0.14142286  0.02439753  1  0  0.126014  0  0.941242  0  0  0.146938  0  0.998484  0  0  0.149371  0  0.997542  0  0  0.096759  0.145196  0  0.999084  0
H  H17  1  0.67477400  0.85857671  0.52439707  1  0  0.126015  0  0.941245  0  0  0.146944  0  0.998477  0  0  0.149377  0  0.997534  0  0  0.096765  0.145202  0  0.999076  0
H  H18  1  0.17477454  0.64142235  0.47560308  1  0  0.12602  0  0.941242  0  0  0.146946  0  0.998474  0  0  0.149379  0  0.99753  0  0  0.096741  0.145204  0  0.999072  0
H  H19  1  0.32522818  0.35857755  0.97560215  1  0  0.126001  0  0.941245  0  0  0.146928  0  0.998487  0  0  0.149361  0  0.997543  0  0  0.096756  0.145185  0  0.999086  0
H  H20  1  0.71943588  0.06918181  0.72076856  1  0  0.346885  0  0.909448  0  0  0.323211  0  0.979545  0  0  0.331241  0  0.97338  0  0  0.297643  0.317315  0  0.984218  0
H  H21  1  0.78056543  0.93082001  0.22076784  1  0  0.346911  0  0.909444  0  0  0.32318  0  0.979622  0  0  0.33121  0  0.973457  0  0  0.297624  0.317284  0  0.984296  0
H  H22  1  0.28056423  0.56918083  0.77923237  1  0  0.346901  0  0.909445  0  0  0.32323  0  0.979535  0  0  0.33126  0  0.97337  0  0  0.297648  0.317334  0  0.984208  0
H  H23  1  0.21943455  0.43081867  0.27923173  1  0  0.34694  0  0.909397  0  0  0.323213  0  0.979574  0  0  0.331243  0  0.973408  0  0  0.297629  0.317317  0  0.984248  0
H  H24  1  0.61415669  0.93213445  0.69305158  1  0  0.355185  0  0.896323  0  0  0.336878  0  0.956668  0  0  0.345135  0  0.94973  0  0  0.306012  0.33105  0  0.961563  0
H  H25  1  0.88584576  0.06786455  0.19305200  1  0  0.355172  0  0.896375  0  0  0.336858  0  0.956728  0  0  0.345116  0  0.949788  0  0  0.306004  0.33103  0  0.961623  0
H  H26  1  0.38584422  0.43213490  0.80694839  1  0  0.355185  0  0.896331  0  0  0.33687  0  0.956685  0  0  0.345128  0  0.949744  0  0  0.30601  0.331042  0  0.96158  0
H  H27  1  0.11415700  0.56786558  0.30694853  1  0  0.355166  0  0.896353  0  0  0.336862  0  0.956699  0  0  0.34512  0  0.94976  0  0  0.306012  0.331034  0  0.961595  0
H  H28  1  0.96084093  0.74431084  0.72546201  1  0  0.325288  0  0.918774  0  0  0.305231  0  0.990414  0  0  0.312208  0  0.984841  0  0  0.29412  0.299883  0  0.995128  0
H  H29  1  0.53916158  0.25569007  0.22546107  1  0  0.325293  0  0.918793  0  0  0.305238  0  0.99043  0  0  0.312215  0  0.984857  0  0  0.294131  0.299889  0  0.995145  0
H  H30  1  0.03916138  0.24430960  0.77453843  1  0  0.325301  0  0.918775  0  0  0.305248  0  0.990412  0  0  0.312225  0  0.98484  0  0  0.294139  0.299899  0  0.995127  0
H  H31  1  0.46084098  0.75568804  0.27453831  1  0  0.32529  0  0.918793  0  0  0.305238  0  0.990428  0  0  0.312214  0  0.984856  0  0  0.294126  0.299889  0  0.995143  0
H  H32  1  0.75594628  0.73901750  0.70817166  1  0  0.352626  0  0.905378  0  0  0.333875  0  0.965861  0  0  0.342016  0  0.959382  0  0  0.30338  0.328118  0  0.970514  0
H  H33  1  0.74405620  0.26098153  0.20817153  1  0  0.352636  0  0.90536  0  0  0.333864  0  0.965868  0  0  0.342005  0  0.959388  0  0  0.303368  0.328106  0  0.970524  0
H  H34  1  0.24405484  0.23901893  0.79182809  1  0  0.352646  0  0.905348  0  0  0.333877  0  0.96585  0  0  0.342018  0  0.95937  0  0  0.303382  0.328121  0  0.970501  0
H  H35  1  0.25594635  0.76098151  0.29182785  1  0  0.352629  0  0.905374  0  0  0.333878  0  0.965858  0  0  0.342018  0  0.959378  0  0  0.303382  0.328122  0  0.970509  0
H  H36  1  0.97622979  0.70076083  0.11216760  1  0  0.336679  0  0.928543  0  0  0.314606  0  0.997177  0  0  0.322483  0  0.990689  0  0  0.294865  0.308975  0  1.001906  0
H  H37  1  0.52377012  0.29923985  0.61216846  1  0  0.336673  0  0.928533  0  0  0.31459  0  0.99718  0  0  0.322465  0  0.990692  0  0  0.294865  0.30896  0  1.001906  0
H  H38  1  0.02377044  0.20076076  0.38783239  1  0  0.336688  0  0.928535  0  0  0.314604  0  0.997186  0  0  0.322479  0  0.990698  0  0  0.29487  0.308974  0  1.001914  0
H  H39  1  0.47622974  0.79923989  0.88783205  1  0  0.336705  0  0.928499  0  0  0.314635  0  0.99713  0  0  0.322511  0  0.990641  0  0  0.29488  0.309004  0  1.001858  0
H  H40  1  0.05479929  0.82151175  0.17930411  1  0  0.349421  0  0.90522  0  0  0.331556  0  0.964924  0  0  0.339386  0  0.958445  0  0  0.305384  0.326029  0  0.969548  0
H  H41  1  0.44520050  0.17848754  0.67930508  1  0  0.349453  0  0.905154  0  0  0.331572  0  0.964872  0  0  0.339402  0  0.958394  0  0  0.305388  0.326044  0  0.969498  0
H  H42  1  0.94519961  0.32151279  0.32069534  1  0  0.349441  0  0.905173  0  0  0.331558  0  0.964897  0  0  0.339388  0  0.958418  0  0  0.305378  0.32603  0  0.969523  0
H  H43  1  0.55479950  0.67848832  0.82069529  1  0  0.34942  0  0.905202  0  0  0.331564  0  0.964895  0  0  0.339394  0  0.958417  0  0  0.305387  0.326037  0  0.96952  0
H  H44  1  0.26904305  0.95235900  0.99605705  1  0  0.333532  0  0.941784  0  0  0.313066  0  1.007501  0  0  0.320823  0  1.001241  0  0  0.295291  0.307558  0  1.012105  0
H  H45  1  0.23095852  0.04764095  0.49605599  1  0  0.333502  0  0.941793  0  0  0.31303  0  1.007518  0  0  0.320785  0  1.001258  0  0  0.295286  0.307523  0  1.01212  0
H  H46  1  0.73095903  0.45235952  0.50394363  1  0  0.333558  0  0.941731  0  0  0.313076  0  1.007473  0  0  0.320833  0  1.001211  0  0  0.295297  0.30757  0  1.012076  0
H  H47  1  0.76904187  0.54764185  0.00394315  1  0  0.333532  0  0.941781  0  0  0.313075  0  1.007488  0  0  0.320832  0  1.001228  0  0  0.295301  0.307566  0  1.012092  0
H  H48  1  0.18501254  0.98538158  0.10366469  1  0  0.347375  0  0.897223  0  0  0.329494  0  0.959742  0  0  0.337145  0  0.953593  0  0  0.302326  0.324088  0  0.964101  0
H  H49  1  0.31498830  0.01461848  0.60366404  1  0  0.347403  0  0.897151  0  0  0.329492  0  0.959714  0  0  0.337142  0  0.953567  0  0  0.302321  0.324086  0  0.964073  0
H  H50  1  0.81498738  0.48538286  0.39633562  1  0  0.34738  0  0.897174  0  0  0.329465  0  0.959745  0  0  0.337116  0  0.953596  0  0  0.302302  0.324059  0  0.964104  0
H  H51  1  0.68501187  0.51461840  0.89633478  1  0  0.347387  0  0.897227  0  0  0.329498  0  0.959761  0  0  0.337149  0  0.953611  0  0  0.302331  0.324092  0  0.96412  0
C  C52  1  0.85475676  0.91432953  0.72223445  1  0  0.60693  0  3.832565  0  0  0.565456  0  4.121821  0  0  0.59302  0  4.127107  0  0  0.256641  0.54678  0  4.117374  0
C  C53  1  0.64524217  0.08567230  0.22223338  1  0  0.606829  0  3.83265  0  0  0.56536  0  4.121895  0  0  0.592923  0  4.127187  0  0  0.256587  0.546684  0  4.117448  0
C  C54  1  0.14524179  0.41432823  0.77776619  1  0  0.606889  0  3.832653  0  0  0.565406  0  4.121919  0  0  0.592969  0  4.127207  0  0  0.256602  0.54673  0  4.11747  0
C  C55  1  0.35475818  0.58567034  0.27776581  1  0  0.606893  0  3.832619  0  0  0.565427  0  4.12187  0  0  0.592992  0  4.127156  0  0  0.256629  0.546751  0  4.117422  0
C  C56  1  0.11202563  0.82426024  0.04270598  1  0  0.607468  0  3.843934  0  0  0.568817  0  4.129952  0  0  0.596926  0  4.134369  0  0  0.252888  0.549808  0  4.126244  0
C  C57  1  0.38797749  0.17574061  0.54270692  1  0  0.607422  0  3.843988  0  0  0.568767  0  4.13001  0  0  0.596875  0  4.13443  0  0  0.252869  0.549757  0  4.126304  0
C  C58  1  0.88797805  0.32426068  0.45729347  1  0  0.607395  0  3.844028  0  0  0.568763  0  4.130014  0  0  0.596872  0  4.134432  0  0  0.252868  0.549755  0  4.126306  0
C  C59  1  0.61202251  0.67573979  0.95729345  1  0  0.607435  0  3.843891  0  0  0.568783  0  4.129929  0  0  0.596892  0  4.134348  0  0  0.252876  0.549775  0  4.12622  0
C  C60  1  0.44311151  0.05310074  0.86148082  1  0  0.712574  0  3.875525  0  0  0.656309  0  4.179203  0  0  0.692815  0  4.167768  0  0  0.209757  0.631456  0  4.18653  0
C  C61  1  0.05688743  0.94689986  0.36147590  1  0  0.712524  0  3.875376  0  0  0.656271  0  4.17906  0  0  0.692759  0  4.167653  0  0  0.209752  0.631432  0  4.186368  0
C  C62  1  0.55688623  0.55309928  0.63852486  1  0  0.712522  0  3.875327  0  0  0.656303  0  4.178957  0  0  0.692791  0  4.167548  0  0  0.209806  0.631456  0  4.186277  0
C  C63  1  0.94311134  0.44689960  0.13851960  1  0  0.712623  0  3.875488  0  0  0.656366  0  4.179165  0  0  0.692866  0  4.167741  0  0  0.209788  0.631511  0  4.186499  0
C  C64  1  0.65894730  0.26847433  0.82944305  1  0  0.657318  0  3.894898  0  0  0.600783  0  4.198521  0  0  0.634706  0  4.188428  0  0  0.216422  0.577611  0  4.204831  0
C  C65  1  0.84105063  0.73152403  0.32944214  1  0  0.657345  0  3.894788  0  0  0.600836  0  4.198385  0  0  0.63476  0  4.188291  0  0  0.216422  0.577663  0  4.204695  0
C  C66  1  0.34105021  0.76847493  0.67055810  1  0  0.657269  0  3.894927  0  0  0.600783  0  4.198489  0  0  0.634708  0  4.188396  0  0  0.216417  0.577611  0  4.204801  0
C  C67  1  0.15894837  0.23152526  0.17055720  1  0  0.657291  0  3.894981  0  0  0.600743  0  4.19862  0  0  0.634666  0  4.188528  0  0  0.216389  0.577572  0  4.204932  0
C  C68  1  0.67643203  0.18022603  0.90790502  1  0  0.099386  0  3.676946  0  0  0.118918  0  3.921927  0  0  0.121615  0  3.939706  0  0  0.011373  0.116828  0  3.910033  0
C  C69  1  0.82356725  0.81977434  0.40790421  1  0  0.099367  0  3.676991  0  0  0.118897  0  3.92196  0  0  0.121593  0  3.939737  0  0  0.011365  0.116809  0  3.910063  0
C  C70  1  0.32356677  0.68022555  0.59209535  1  0  0.099433  0  3.677023  0  0  0.118962  0  3.92197  0  0  0.121657  0  3.939748  0  0  0.011395  0.116874  0  3.910074  0
C  C71  1  0.17643166  0.31977356  0.09209524  1  0  0.099343  0  3.676984  0  0  0.118882  0  3.921959  0  0  0.121579  0  3.939738  0  0  0.011353  0.116792  0  3.910064  0
C  C72  1  0.58011524  0.08239294  0.92042187  1  0  -0.311703  0  3.677775  0  0  -0.337397  0  3.932069  0  0  -0.350015  0  3.947073  0  0  -0.116572  -0.329215  0  3.922392  0
C  C73  1  0.91987928  0.91760838  0.42041646  1  0  -0.311745  0  3.677753  0  0  -0.337407  0  3.932064  0  0  -0.350024  0  3.947078  0  0  -0.116561  -0.329229  0  3.922383  0
C  C74  1  0.41987889  0.58239052  0.57958384  1  0  -0.311754  0  3.677785  0  0  -0.337424  0  3.932081  0  0  -0.350041  0  3.947096  0  0  -0.116581  -0.329245  0  3.922403  0
C  C75  1  0.08011594  0.41760763  0.07957833  1  0  -0.311713  0  3.677763  0  0  -0.337411  0  3.932054  0  0  -0.350027  0  3.94706  0  0  -0.116573  -0.329229  0  3.922379  0
C  C76  1  0.81258265  0.20975536  0.96990211  1  0  -0.321673  0  3.705619  0  0  -0.399097  0  3.935694  0  0  -0.402687  0  3.945057  0  0  -0.234105  -0.396162  0  3.929127  0
C  C77  1  0.68741912  0.79024330  0.46990254  1  0  -0.321657  0  3.705522  0  0  -0.399068  0  3.935596  0  0  -0.402651  0  3.944966  0  0  -0.234084  -0.396128  0  3.929034  0
C  C78  1  0.18741850  0.70975668  0.53009762  1  0  -0.321719  0  3.705558  0  0  -0.39912  0  3.935645  0  0  -0.402705  0  3.945014  0  0  -0.234087  -0.39618  0  3.929083  0
C  C79  1  0.31258220  0.29024506  0.03009824  1  0  -0.321616  0  3.705631  0  0  -0.39904  0  3.935703  0  0  -0.402625  0  3.945071  0  0  -0.23408  -0.3961  0  3.929139  0
S  S80  1  0.02621990  0.99914677  0.74332823  1  0  -0.446948  0  2.074794  0  0  -0.414959  0  2.441657  0  0  -0.431968  0  2.425102  0  0  -0.18192  -0.402947  0  2.453033  0
S  S81  1  0.47378001  0.00085542  0.24332453  1  0  -0.446898  0  2.074791  0  0  -0.414917  0  2.441655  0  0  -0.431925  0  2.425103  0  0  -0.181899  -0.402904  0  2.45303  0
S  S82  1  0.97377975  0.49914490  0.75667455  1  0  -0.446919  0  2.074783  0  0  -0.414937  0  2.441658  0  0  -0.431945  0  2.425106  0  0  -0.181907  -0.402926  0  2.453033  0
S  S83  1  0.52621924  0.50085424  0.25667251  1  0  -0.44693  0  2.074822  0  0  -0.414943  0  2.441685  0  0  -0.431952  0  2.425132  0  0  -0.181918  -0.402931  0  2.45306  0
S  S84  1  0.09517548  0.73881312  0.94368213  1  0  -0.447187  0  2.031565  0  0  -0.418623  0  2.385022  0  0  -0.438417  0  2.372664  0  0  -0.192434  -0.404605  0  2.39301  0
S  S85  1  0.40482600  0.26118580  0.44368278  1  0  -0.447174  0  2.031597  0  0  -0.418602  0  2.385033  0  0  -0.438397  0  2.372678  0  0  -0.192429  -0.404585  0  2.393025  0
S  S86  1  0.90482684  0.23881456  0.55631694  1  0  -0.447189  0  2.031602  0  0  -0.418627  0  2.385038  0  0  -0.438422  0  2.372683  0  0  -0.192443  -0.404612  0  2.393029  0
S  S87  1  0.59517417  0.76118692  0.05631729  1  0  -0.447182  0  2.031585  0  0  -0.418601  0  2.385017  0  0  -0.438395  0  2.37266  0  0  -0.192428  -0.404582  0  2.393005  0
N  N88  1  0.71953679  0.97589140  0.70873152  1  0  -0.652701  0  3.082624  0  0  -0.60385  0  3.30901  0  0  -0.625847  0  3.305428  0  0  -0.55586  -0.588892  0  3.311623  0
N  N89  1  0.78046449  0.02410856  0.20873045  1  0  -0.652661  0  3.082614  0  0  -0.603749  0  3.309029  0  0  -0.625745  0  3.305449  0  0  -0.555802  -0.58879  0  3.311641  0
N  N90  1  0.28046288  0.47589188  0.79126919  1  0  -0.652715  0  3.082614  0  0  -0.603841  0  3.308983  0  0  -0.625837  0  3.305399  0  0  -0.555851  -0.588883  0  3.311596  0
N  N91  1  0.21953712  0.52410948  0.29126934  1  0  -0.652679  0  3.082607  0  0  -0.603802  0  3.309056  0  0  -0.625798  0  3.305472  0  0  -0.555827  -0.588844  0  3.31167  0
N  N92  1  0.85748677  0.79145866  0.71557144  1  0  -0.673994  0  3.129775  0  0  -0.628142  0  3.357762  0  0  -0.649793  0  3.354446  0  0  -0.564647  -0.613187  0  3.360403  0
N  N93  1  0.64251333  0.20854131  0.21556982  1  0  -0.673961  0  3.129865  0  0  -0.628122  0  3.357887  0  0  -0.649772  0  3.354572  0  0  -0.564636  -0.613168  0  3.360531  0
N  N94  1  0.14251310  0.29145830  0.78442906  1  0  -0.673965  0  3.129847  0  0  -0.62813  0  3.357878  0  0  -0.649781  0  3.354562  0  0  -0.56464  -0.613177  0  3.360521  0
N  N95  1  0.35748689  0.70854213  0.28442882  1  0  -0.673999  0  3.129791  0  0  -0.628154  0  3.357785  0  0  -0.649805  0  3.354468  0  0  -0.564662  -0.613199  0  3.360426  0
N  N96  1  0.04003506  0.78076080  0.11693050  1  0  -0.656753  0  3.100843  0  0  -0.610523  0  3.326106  0  0  -0.631607  0  3.322174  0  0  -0.57017  -0.596089  0  3.328724  0
N  N97  1  0.45996580  0.21923929  0.61693085  1  0  -0.65673  0  3.100826  0  0  -0.610487  0  3.326099  0  0  -0.631568  0  3.322161  0  0  -0.570163  -0.596055  0  3.328719  0
N  N98  1  0.95996508  0.28076012  0.38306959  1  0  -0.656699  0  3.100838  0  0  -0.610468  0  3.326107  0  0  -0.631553  0  3.322179  0  0  -0.570133  -0.596034  0  3.328724  0
N  N99  1  0.54003415  0.71924020  0.88306889  1  0  -0.656762  0  3.100794  0  0  -0.610532  0  3.326049  0  0  -0.631613  0  3.322109  0  0  -0.570182  -0.596104  0  3.328679  0
N  N100  1  0.19193286  0.93021751  0.04739225  1  0  -0.680402  0  3.141997  0  0  -0.637458  0  3.368625  0  0  -0.658954  0  3.364741  0  0  -0.57365  -0.62285  0  3.37128  0
N  N101  1  0.30806668  0.06978243  0.54739166  1  0  -0.680369  0  3.1419  0  0  -0.637404  0  3.368572  0  0  -0.658902  0  3.364693  0  0  -0.573622  -0.622794  0  3.371223  0
N  N102  1  0.80806593  0.43021800  0.45260800  1  0  -0.680399  0  3.141884  0  0  -0.637425  0  3.368537  0  0  -0.658922  0  3.364655  0  0  -0.573631  -0.622817  0  3.37119  0
N  N103  1  0.69193223  0.56978247  0.95260791  1  0  -0.680381  0  3.141927  0  0  -0.637443  0  3.368574  0  0  -0.658939  0  3.36469  0  0  -0.573653  -0.622834  0  3.371228  0
O  O104  1  0.36840356  0.95212542  0.88520710  1  0  -0.664638  0  2.161258  0  0  -0.57343  0  2.423316  0  0  -0.602074  0  2.406124  0  0  -0.325726  -0.553506  0  2.434747  0
O  O105  1  0.13159661  0.04787338  0.38520325  1  0  -0.664637  0  2.161392  0  0  -0.57335  0  2.42338  0  0  -0.601973  0  2.406174  0  0  -0.325707  -0.553437  0  2.434812  0
O  O106  1  0.63159733  0.45212623  0.61479698  1  0  -0.664704  0  2.161374  0  0  -0.57342  0  2.423346  0  0  -0.602047  0  2.406146  0  0  -0.325753  -0.553505  0  2.434784  0
O  O107  1  0.86840259  0.54787537  0.11479316  1  0  -0.664656  0  2.161272  0  0  -0.573466  0  2.423344  0  0  -0.602106  0  2.406154  0  0  -0.325738  -0.553538  0  2.434774  0
O  O108  1  0.40020886  0.12002603  0.79589734  1  0  -0.634145  0  1.989344  0  0  -0.576003  0  2.213536  0  0  -0.599025  0  2.203012  0  0  -0.311312  -0.56005  0  2.220352  0
O  O109  1  0.09978995  0.87997073  0.29589373  1  0  -0.634028  0  1.989177  0  0  -0.575989  0  2.213463  0  0  -0.599008  0  2.20295  0  0  -0.311309  -0.560048  0  2.220286  0
O  O110  1  0.59979000  0.62002838  0.70410637  1  0  -0.63399  0  1.989189  0  0  -0.575979  0  2.213476  0  0  -0.598997  0  2.202961  0  0  -0.311311  -0.56003  0  2.220295  0
O  O111  1  0.90020889  0.37997433  0.20410306  1  0  -0.634143  0  1.989364  0  0  -0.576  0  2.213553  0  0  -0.59902  0  2.203034  0  0  -0.311309  -0.560047  0  2.220372  0
O  O112  1  0.73971242  0.23729795  0.75796061  1  0  -0.649949  0  2.124872  0  0  -0.567422  0  2.388939  0  0  -0.596684  0  2.375391  0  0  -0.322216  -0.546846  0  2.398038  0
O  O113  1  0.76028418  0.76270119  0.25795969  1  0  -0.649954  0  2.124812  0  0  -0.567442  0  2.388903  0  0  -0.596708  0  2.375356  0  0  -0.322223  -0.546866  0  2.398002  0
O  O114  1  0.26028393  0.73729782  0.74204051  1  0  -0.649887  0  2.124913  0  0  -0.567389  0  2.38898  0  0  -0.596655  0  2.375432  0  0  -0.322179  -0.546813  0  2.39808  0
O  O115  1  0.23971240  0.26270160  0.24203969  1  0  -0.64997  0  2.124917  0  0  -0.567427  0  2.388991  0  0  -0.596688  0  2.375442  0  0  -0.322209  -0.546851  0  2.398091  0
O  O116  1  0.58398802  0.36739995  0.83936429  1  0  -0.617352  0  1.9771  0  0  -0.568234  0  2.204734  0  0  -0.591771  0  2.19526  0  0  -0.309783  -0.55133  0  2.210419  0
O  O117  1  0.91600994  0.63259843  0.33936332  1  0  -0.617352  0  1.977078  0  0  -0.568241  0  2.204718  0  0  -0.591766  0  2.195216  0  0  -0.309774  -0.551338  0  2.210404  0
O  O118  1  0.41600939  0.86740048  0.66063697  1  0  -0.617356  0  1.97703  0  0  -0.568269  0  2.204685  0  0  -0.591789  0  2.195173  0  0  -0.309816  -0.551367  0  2.210371  0
O  O119  1  0.08398917  0.13259969  0.16063591  1  0  -0.617309  0  1.97714  0  0  -0.568193  0  2.204788  0  0  -0.591723  0  2.195296  0  0  -0.309761  -0.55129  0  2.210473  0
