# generated using pymatgen
data_CdH10C13N2O7
_symmetry_space_group_name_H-M   'P 1'
_cell_length_a   8.01069177
_cell_length_b   12.74560750
_cell_length_c   18.30060000
_cell_angle_alpha   90.00000000
_cell_angle_beta   90.00000000
_cell_angle_gamma   90.00000000
_symmetry_Int_Tables_number   1
_chemical_formula_structural   CdH10C13N2O7
_chemical_formula_sum   'Cd4 H40 C52 N8 O28'
_cell_volume   1868.51199613
_cell_formula_units_Z   4
loop_
 _symmetry_equiv_pos_site_id
 _symmetry_equiv_pos_as_xyz
  1  'x, y, z'
loop_
 _atom_site_type_symbol
 _atom_site_label
 _atom_site_symmetry_multiplicity
 _atom_site_fract_x
 _atom_site_fract_y
 _atom_site_fract_z
 _atom_site_occupancy
 _atom_site_hle17_bader_spin_density
 _atom_site_hle17_ddec_charge
 _atom_site_hle17_ddec_spin_density
 _atom_site_hle17_ddec_sum_bond_order
 _atom_site_hle17_magmom
 _atom_site_hse06_10hf_bader_spin_density
 _atom_site_hse06_10hf_ddec_charge
 _atom_site_hse06_10hf_ddec_spin_density
 _atom_site_hse06_10hf_ddec_sum_bond_order
 _atom_site_hse06_10hf_magmom
 _atom_site_hse06_bader_spin_density
 _atom_site_hse06_ddec_charge
 _atom_site_hse06_ddec_spin_density
 _atom_site_hse06_ddec_sum_bond_order
 _atom_site_hse06_magmom
 _atom_site_pbe_bader_charge
 _atom_site_pbe_bader_spin_density
 _atom_site_pbe_cm5_charge
 _atom_site_pbe_ddec_charge
 _atom_site_pbe_ddec_spin_density
 _atom_site_pbe_ddec_sum_bond_order
 _atom_site_pbe_magmom
Cd  Cd0  1  0.10018985  0.16177809  0.10820902  1  0  1.133788  0  1.617851  0  0  0.9378  0  2.051127  0  0  0.997735  0  1.998498  0  1.276575  0  0.765219  0.895066  0  2.087066  0
Cd  Cd1  1  0.39981066  0.83822132  0.60820902  1  0  1.13377  0  1.617883  0  0  0.937783  0  2.051158  0  0  0.997712  0  1.998537  0  1.276553  0  0.76521  0.895046  0  2.087098  0
Cd  Cd2  1  0.60019036  0.33822162  0.89179098  1  0  1.13379  0  1.61786  0  0  0.937809  0  2.051144  0  0  0.997744  0  1.998511  0  1.276564  0  0.765226  0.895075  0  2.087082  0
Cd  Cd3  1  0.89980868  0.66177936  0.39179043  1  0  1.133799  0  1.61786  0  0  0.937809  0  2.051142  0  0  0.997747  0  1.998507  0  1.276545  0  0.765225  0.895073  0  2.087083  0
H  H4  1  0.29661234  0.66365452  0.38756544  1  0  0.091596  0  0.967788  0  0  0.097243  0  1.03558  0  0  0.100863  0  1.031799  0  0.148533  0  0.11889  0.094543  0  1.038427  0
H  H5  1  0.20338443  0.33634568  0.88756598  1  0  0.091617  0  0.967766  0  0  0.097268  0  1.035556  0  0  0.100889  0  1.031773  0  0.148531  0  0.118901  0.094568  0  1.038403  0
H  H6  1  0.79661535  0.83634617  0.61243402  1  0  0.091585  0  0.967781  0  0  0.097231  0  1.035571  0  0  0.100852  0  1.031787  0  0.148546  0  0.118886  0.094531  0  1.038418  0
H  H7  1  0.70338495  0.16365403  0.11243456  1  0  0.091599  0  0.967746  0  0  0.097247  0  1.035548  0  0  0.100867  0  1.031766  0  0.148538  0  0.118882  0.094548  0  1.038394  0
H  H8  1  0.49914666  0.36171599  0.44147624  1  0  0.128496  0  0.945959  0  0  0.13589  0  1.010711  0  0  0.140536  0  1.00592  0  0.120997  0  0.116603  0.132466  0  1.01427  0
H  H9  1  0.00085261  0.63828578  0.94147733  1  0  0.128501  0  0.945942  0  0  0.135898  0  1.010693  0  0  0.140549  0  1.005891  0  0.121012  0  0.116592  0.132473  0  1.014252  0
H  H10  1  0.99914717  0.13828607  0.55852322  1  0  0.128482  0  0.945952  0  0  0.135874  0  1.010708  0  0  0.140527  0  1.005906  0  0.120926  0  0.116585  0.13245  0  1.014267  0
H  H11  1  0.50085437  0.86171412  0.05852431  1  0  0.128469  0  0.945991  0  0  0.135872  0  1.010737  0  0  0.140524  0  1.005936  0  0.120936  0  0.116591  0.132449  0  1.014296  0
H  H12  1  0.96617374  0.41871131  0.42216485  1  0  0.110605  0  0.948002  0  0  0.118209  0  1.013342  0  0  0.121729  0  1.009879  0  0.123415  0  0.124626  0.115639  0  1.015878  0
H  H13  1  0.53382531  0.58128889  0.92216649  1  0  0.110608  0  0.947984  0  0  0.118222  0  1.013315  0  0  0.121742  0  1.009853  0  0.123458  0  0.124636  0.115653  0  1.015851  0
H  H14  1  0.46617447  0.08128840  0.57783461  1  0  0.110598  0  0.948006  0  0  0.118215  0  1.013331  0  0  0.121736  0  1.009869  0  0.123471  0  0.124633  0.115646  0  1.015868  0
H  H15  1  0.03382729  0.91871180  0.07783570  1  0  0.11059  0  0.948011  0  0  0.118209  0  1.013332  0  0  0.12173  0  1.009869  0  0.12347  0  0.124609  0.115639  0  1.01587  0
H  H16  1  0.25348872  0.13048809  0.48706108  1  0  0.066163  0  0.95088  0  0  0.072802  0  1.022289  0  0  0.073733  0  1.019683  0  0.132471  0  0.117219  0.071966  0  1.024362  0
H  H17  1  0.24651055  0.86951289  0.98706163  1  0  0.066157  0  0.950857  0  0  0.07281  0  1.022247  0  0  0.073742  0  1.01964  0  0.132461  0  0.11722  0.071973  0  1.02432  0
H  H18  1  0.75348923  0.36951318  0.51293892  1  0  0.066163  0  0.950841  0  0  0.072799  0  1.02226  0  0  0.073731  0  1.019653  0  0.132461  0  0.11722  0.071961  0  1.024334  0
H  H19  1  0.74651356  0.63048780  0.01293837  1  0  0.066161  0  0.950853  0  0  0.072792  0  1.02228  0  0  0.073721  0  1.019678  0  0.132449  0  0.117237  0.071955  0  1.024352  0
H  H20  1  0.41477192  0.22906872  0.49439854  1  0  0.061785  0  0.947406  0  0  0.066777  0  1.018308  0  0  0.067918  0  1.015383  0  0.130914  0  0.117435  0.065851  0  1.020476  0
H  H21  1  0.08522735  0.77093226  0.99439909  1  0  0.061814  0  0.947354  0  0  0.066778  0  1.018297  0  0  0.067918  0  1.015373  0  0.130917  0  0.117425  0.06585  0  1.020466  0
H  H22  1  0.91477119  0.27093099  0.50560146  1  0  0.061803  0  0.94739  0  0  0.066793  0  1.018299  0  0  0.067934  0  1.015375  0  0.130905  0  0.117442  0.065865  0  1.020468  0
H  H23  1  0.58523036  0.72907000  0.00560146  1  0  0.061782  0  0.947449  0  0  0.066787  0  1.018331  0  0  0.067928  0  1.015406  0  0.130807  0  0.117435  0.06586  0  1.020498  0
H  H24  1  0.29211210  0.21889423  0.25729211  1  0  0.11508  0  0.911402  0  0  0.123734  0  0.971111  0  0  0.12749  0  0.967238  0  0.151545  0  0.126485  0.120933  0  0.974037  0
H  H25  1  0.20788716  0.78110596  0.75729211  1  0  0.115077  0  0.911407  0  0  0.123736  0  0.971109  0  0  0.12749  0  0.967239  0  0.151546  0  0.126486  0.120936  0  0.974036  0
H  H26  1  0.79211386  0.28110626  0.74270789  1  0  0.11509  0  0.911389  0  0  0.123749  0  0.971091  0  0  0.127503  0  0.967223  0  0.151548  0  0.126486  0.12095  0  0.974019  0
H  H27  1  0.70788643  0.71889316  0.24270734  1  0  0.115103  0  0.911394  0  0  0.123761  0  0.971096  0  0  0.127515  0  0.967227  0  0.151562  0  0.126496  0.120961  0  0.974024  0
H  H28  1  0.00683087  0.95151918  0.21951794  1  0  0.083967  0  0.949017  0  0  0.087989  0  1.021124  0  0  0.090935  0  1.018185  0  0.119791  0  0.113454  0.085771  0  1.023318  0
H  H29  1  0.49316964  0.04848023  0.71951739  1  0  0.083964  0  0.949018  0  0  0.087985  0  1.021124  0  0  0.090931  0  1.018184  0  0.119828  0  0.113442  0.085767  0  1.023318  0
H  H30  1  0.50683014  0.54848072  0.78048261  1  0  0.083965  0  0.949008  0  0  0.087987  0  1.021114  0  0  0.090933  0  1.018176  0  0.119783  0  0.113446  0.085769  0  1.023309  0
H  H31  1  0.99316891  0.45151869  0.28048261  1  0  0.083953  0  0.949032  0  0  0.087972  0  1.02114  0  0  0.090918  0  1.018201  0  0.119778  0  0.113443  0.085754  0  1.023334  0
H  H32  1  0.25564459  0.98403156  0.42694611  1  0  0.132805  0  0.944158  0  0  0.142521  0  1.006241  0  0  0.145902  0  1.003658  0  0.145002  0  0.118574  0.140005  0  1.008231  0
H  H33  1  0.24435468  0.01596785  0.92694611  1  0  0.132825  0  0.944156  0  0  0.142542  0  1.006238  0  0  0.145919  0  1.003665  0  0.145106  0  0.118576  0.140026  0  1.008227  0
H  H34  1  0.75564510  0.51596834  0.57305389  1  0  0.132821  0  0.944142  0  0  0.142534  0  1.006229  0  0  0.145913  0  1.00365  0  0.145008  0  0.118582  0.140019  0  1.008217  0
H  H35  1  0.74435519  0.48403107  0.07305389  1  0  0.132813  0  0.944179  0  0  0.142542  0  1.006231  0  0  0.145913  0  1.003675  0  0.145014  0  0.118568  0.140028  0  1.008218  0
H  H36  1  0.01571275  0.23748652  0.95851447  1  0  0.430661  0  0.859616  0  0  0.400229  0  0.921754  0  0  0.411107  0  0.905823  0  0.648248  0  0.28912  0.392471  0  0.933106  0
H  H37  1  0.48428652  0.76251367  0.45851393  1  0  0.430689  0  0.859601  0  0  0.400254  0  0.921742  0  0  0.411133  0  0.90581  0  0.648246  0  0.289137  0.392496  0  0.933095  0
H  H38  1  0.51571202  0.26251397  0.04148553  1  0  0.430681  0  0.859608  0  0  0.400248  0  0.921746  0  0  0.411124  0  0.905818  0  0.648281  0  0.289119  0.392492  0  0.933096  0
H  H39  1  0.98428703  0.73748701  0.54148553  1  0  0.430644  0  0.859642  0  0  0.400208  0  0.921785  0  0  0.411087  0  0.905853  0  0.648245  0  0.289107  0.39245  0  0.933138  0
H  H40  1  0.19549248  0.18525833  0.95300373  1  0  0.424138  0  0.880526  0  0  0.391415  0  0.947439  0  0  0.402812  0  0.930787  0  0.639276  0  0.283799  0.383294  0  0.95928  0
H  H41  1  0.30450679  0.81474186  0.45300427  1  0  0.42414  0  0.880526  0  0  0.391418  0  0.947436  0  0  0.402815  0  0.930784  0  0.639284  0  0.283798  0.383297  0  0.959279  0
H  H42  1  0.69549050  0.31474216  0.04699573  1  0  0.424091  0  0.880601  0  0  0.391403  0  0.947448  0  0  0.4028  0  0.93079  0  0.639294  0  0.283767  0.383285  0  0.959292  0
H  H43  1  0.80450730  0.68525804  0.54699573  1  0  0.424142  0  0.88052  0  0  0.391421  0  0.947429  0  0  0.402818  0  0.930778  0  0.639277  0  0.283802  0.383299  0  0.959271  0
C  C44  1  0.28063868  0.58160900  0.40199338  1  0  0.105467  0  3.68396  0  0  0.059598  0  3.9346  0  0  0.068119  0  3.950917  0  0.491422  0  0.045337  0.054141  0  3.923504  0
C  C45  1  0.21936058  0.41839041  0.90199392  1  0  0.105437  0  3.683883  0  0  0.059539  0  3.934542  0  0  0.06806  0  3.950857  0  0.49143  0  0.045301  0.054083  0  3.923446  0
C  C46  1  0.78064045  0.91839169  0.59800608  1  0  0.10547  0  3.683858  0  0  0.059623  0  3.934513  0  0  0.068144  0  3.950827  0  0.491434  0  0.045325  0.054166  0  3.923419  0
C  C47  1  0.71935985  0.08160851  0.09800717  1  0  0.105484  0  3.683862  0  0  0.059593  0  3.934506  0  0  0.068115  0  3.950822  0  0.491427  0  0.045341  0.054137  0  3.923409  0
C  C48  1  0.41758816  0.51768188  0.41704042  1  0  -0.073526  0  3.757272  0  0  -0.044523  0  3.989711  0  0  -0.055118  0  4.012887  0  0.007797  0  -0.008484  -0.037987  0  3.974385  0
C  C49  1  0.08240986  0.48231832  0.91704097  1  0  -0.073521  0  3.757173  0  0  -0.044473  0  3.989555  0  0  -0.055068  0  4.012734  0  0.007773  0  -0.008464  -0.037938  0  3.974231  0
C  C50  1  0.91758992  0.98231959  0.58295903  1  0  -0.073536  0  3.757161  0  0  -0.044608  0  3.989674  0  0  -0.055203  0  4.012851  0  0.007729  0  -0.008467  -0.038071  0  3.974347  0
C  C51  1  0.58241162  0.01767982  0.08296067  1  0  -0.073584  0  3.75717  0  0  -0.044546  0  3.989582  0  0  -0.05514  0  4.012757  0  0.00774  0  -0.008492  -0.038011  0  3.974257  0
C  C52  1  0.59159934  0.56167507  0.41589620  1  0  0.641124  0  3.933188  0  0  0.590636  0  4.224202  0  0  0.624863  0  4.219678  0  1.570324  0  0.199144  0.567577  0  4.226267  0
C  C53  1  0.90839970  0.43832591  0.91589784  1  0  0.641052  0  3.933211  0  0  0.590558  0  4.224226  0  0  0.624784  0  4.219704  0  1.570571  0  0.19908  0.5675  0  4.226288  0
C  C54  1  0.09160258  0.93832718  0.58410271  1  0  0.641058  0  3.933132  0  0  0.590607  0  4.224126  0  0  0.624833  0  4.2196  0  1.570836  0  0.199067  0.567547  0  4.226191  0
C  C55  1  0.40839794  0.06167223  0.08410325  1  0  0.641089  0  3.933027  0  0  0.590593  0  4.224044  0  0  0.624818  0  4.219519  0  1.570681  0  0.199085  0.567534  0  4.226109  0
C  C56  1  0.39104113  0.41178108  0.43276669  1  0  -0.136627  0  3.678193  0  0  -0.175186  0  3.925276  0  0  -0.17347  0  3.941404  0  -0.029359  0  -0.074485  -0.175884  0  3.914566  0
C  C57  1  0.10895813  0.58821990  0.93276778  1  0  -0.136609  0  3.678104  0  0  -0.175171  0  3.925158  0  0  -0.173457  0  3.941293  0  -0.029364  0  -0.074424  -0.175865  0  3.914451  0
C  C58  1  0.89104290  0.08822020  0.56723222  1  0  -0.136581  0  3.678128  0  0  -0.175112  0  3.925207  0  0  -0.173397  0  3.941341  0  -0.029298  0  -0.074434  -0.175807  0  3.914499  0
C  C59  1  0.60895740  0.91177921  0.06723331  1  0  -0.136561  0  3.678108  0  0  -0.175124  0  3.925186  0  0  -0.173411  0  3.94132  0  -0.029295  0  -0.074434  -0.175821  0  3.914476  0
C  C60  1  0.22719511  0.37476911  0.43577533  1  0  0.234226  0  3.798733  0  0  0.230394  0  4.06296  0  0  0.236075  0  4.080503  0  0.492102  0  0.090934  0.22584  0  4.051407  0
C  C61  1  0.27280416  0.62523108  0.93577642  1  0  0.234237  0  3.798726  0  0  0.230397  0  4.062971  0  0  0.236076  0  4.080515  0  0.492081  0  0.090914  0.225834  0  4.05143  0
C  C62  1  0.72719562  0.12523138  0.56422412  1  0  0.234213  0  3.798684  0  0  0.230391  0  4.062898  0  0  0.23607  0  4.080442  0  0.492101  0  0.090903  0.225828  0  4.051357  0
C  C63  1  0.77280592  0.87476803  0.06422522  1  0  0.234251  0  3.798696  0  0  0.230367  0  4.062995  0  0  0.236047  0  4.08054  0  0.491681  0  0.09091  0.225814  0  4.051441  0
C  C64  1  0.09604539  0.44427149  0.42101407  1  0  0.027521  0  3.656043  0  0  -0.014954  0  3.912133  0  0  -0.009017  0  3.926992  0  0.530077  0  0.043829  -0.018694  0  3.902197  0
C  C65  1  0.40395263  0.55572871  0.92101516  1  0  0.027558  0  3.655827  0  0  -0.014929  0  3.91194  0  0  -0.008991  0  3.926799  0  0.530087  0  0.043841  -0.018665  0  3.902006  0
C  C66  1  0.59604715  0.05572822  0.57898539  1  0  0.02753  0  3.655924  0  0  -0.014967  0  3.912032  0  0  -0.00903  0  3.92689  0  0.530086  0  0.043811  -0.018703  0  3.902098  0
C  C67  1  0.90395439  0.94427119  0.07898648  1  0  0.02748  0  3.655978  0  0  -0.01499  0  3.912072  0  0  -0.009054  0  3.926932  0  0.530054  0  0.043819  -0.018729  0  3.902135  0
C  C68  1  0.31247863  0.19849427  0.46082478  1  0  0.24711  0  3.620193  0  0  0.170331  0  3.906326  0  0  0.185717  0  3.904299  0  0.827633  0  0.024512  0.15974  0  3.907702  0
C  C69  1  0.18752188  0.80150593  0.96082478  1  0  0.247073  0  3.620178  0  0  0.170299  0  3.906318  0  0  0.185685  0  3.904289  0  0.827634  0  0.024533  0.159715  0  3.907693  0
C  C70  1  0.81247790  0.30150622  0.53917522  1  0  0.247131  0  3.620102  0  0  0.17032  0  3.906264  0  0  0.185705  0  3.904235  0  0.827654  0  0.024525  0.159729  0  3.90764  0
C  C71  1  0.68752364  0.69849397  0.03917467  1  0  0.247092  0  3.620197  0  0  0.170294  0  3.906357  0  0  0.18568  0  3.904326  0  0.827761  0  0.024505  0.159713  0  3.907732  0
C  C72  1  0.28392429  0.11016109  0.34831536  1  0  0.220922  0  3.799511  0  0  0.219732  0  4.064578  0  0  0.223441  0  4.08273  0  0.433951  0  0.08467  0.21653  0  4.052571  0
C  C73  1  0.21607622  0.88983832  0.84831536  1  0  0.221032  0  3.799449  0  0  0.219796  0  4.064583  0  0  0.2235  0  4.082742  0  0.433953  0  0.084716  0.216607  0  4.052563  0
C  C74  1  0.78392481  0.38983862  0.65168464  1  0  0.22097  0  3.7995  0  0  0.219768  0  4.064546  0  0  0.223471  0  4.082706  0  0.433969  0  0.084709  0.216571  0  4.052529  0
C  C75  1  0.71607673  0.61016079  0.15168410  1  0  0.220991  0  3.799488  0  0  0.219794  0  4.064558  0  0  0.223501  0  4.082714  0  0.433943  0  0.084712  0.216606  0  4.052544  0
C  C76  1  0.24621344  0.14379699  0.27759090  1  0  0.044661  0  3.658989  0  0  -0.000845  0  3.919179  0  0  0.006047  0  3.933514  0  0.523093  0  0.045659  -0.00523  0  3.909476  0
C  C77  1  0.25378582  0.85620321  0.77759090  1  0  0.044649  0  3.659035  0  0  -0.00085  0  3.919249  0  0  0.006045  0  3.933584  0  0.523087  0  0.04565  -0.005237  0  3.909543  0
C  C78  1  0.74621396  0.35620350  0.72240910  1  0  0.044611  0  3.659008  0  0  -0.000908  0  3.919213  0  0  0.005986  0  3.933548  0  0.523093  0  0.04562  -0.005297  0  3.909511  0
C  C79  1  0.75378509  0.64379591  0.22240855  1  0  0.044589  0  3.658984  0  0  -0.000924  0  3.919186  0  0  0.005969  0  3.933522  0  0.523094  0  0.045622  -0.00531  0  3.90948  0
C  C80  1  0.08758170  0.99518050  0.25652547  1  0  0.113853  0  3.681061  0  0  0.070429  0  3.936212  0  0  0.078503  0  3.954192  0  0.515036  0  0.048704  0.065292  0  3.923991  0
C  C81  1  0.41241757  0.00481970  0.75652547  1  0  0.113898  0  3.681076  0  0  0.070475  0  3.936214  0  0  0.078549  0  3.954193  0  0.515014  0  0.048724  0.065336  0  3.923992  0
C  C82  1  0.58758221  0.50482019  0.74347453  1  0  0.113851  0  3.681053  0  0  0.070428  0  3.936194  0  0  0.0785  0  3.954176  0  0.515056  0  0.048693  0.065288  0  3.923971  0
C  C83  1  0.91241808  0.49517922  0.24347453  1  0  0.113863  0  3.68113  0  0  0.070445  0  3.936267  0  0  0.078519  0  3.954247  0  0.515258  0  0.048703  0.065306  0  3.924045  0
C  C84  1  0.12198946  0.95540209  0.32627291  1  0  -0.075768  0  3.748598  0  0  -0.04766  0  3.981529  0  0  -0.059015  0  4.004932  0  0.010247  0  -0.009002  -0.040686  0  3.966138  0
C  C85  1  0.37801105  0.04459811  0.82627346  1  0  -0.075828  0  3.748739  0  0  -0.047701  0  3.98164  0  0  -0.059053  0  4.00504  0  0.010294  0  -0.009014  -0.040722  0  3.966241  0
C  C86  1  0.62198873  0.54459782  0.67372600  1  0  -0.075872  0  3.748689  0  0  -0.047754  0  3.98161  0  0  -0.059108  0  4.005011  0  0.010271  0  -0.009015  -0.040771  0  3.966205  0
C  C87  1  0.87801031  0.45540081  0.17372654  1  0  -0.075801  0  3.74872  0  0  -0.047687  0  3.981624  0  0  -0.05904  0  4.005023  0  0.010286  0  -0.008999  -0.040707  0  3.966222  0
C  C88  1  0.05012676  0.85279497  0.35152290  1  0  0.638262  0  3.942009  0  0  0.590456  0  4.226988  0  0  0.625314  0  4.221698  0  1.575749  0  0.197971  0.566918  0  4.229652  0
C  C89  1  0.44987501  0.14720444  0.85152399  1  0  0.638273  0  3.942047  0  0  0.590463  0  4.227026  0  0  0.625321  0  4.221734  0  1.575768  0  0.197961  0.566923  0  4.22969  0
C  C90  1  0.55012602  0.64720493  0.64847601  1  0  0.638337  0  3.942052  0  0  0.590523  0  4.227034  0  0  0.625381  0  4.221741  0  1.575761  0  0.197994  0.566981  0  4.229699  0
C  C91  1  0.94987302  0.35279370  0.14847655  1  0  0.638215  0  3.942133  0  0  0.590425  0  4.227096  0  0  0.625282  0  4.221806  0  1.575746  0  0.197935  0.566887  0  4.22976  0
C  C92  1  0.22445128  0.01369805  0.37276046  1  0  -0.12906  0  3.677748  0  0  -0.167315  0  3.920846  0  0  -0.165203  0  3.938274  0  -0.047511  0  -0.0706  -0.168279  0  3.909242  0
C  C93  1  0.27555048  0.98630136  0.87276046  1  0  -0.129127  0  3.677844  0  0  -0.167384  0  3.920967  0  0  -0.165271  0  3.938394  0  -0.047651  0  -0.070613  -0.168351  0  3.909361  0
C  C94  1  0.72445179  0.48630165  0.62724009  1  0  -0.129031  0  3.677764  0  0  -0.167292  0  3.920861  0  0  -0.165177  0  3.938287  0  -0.047568  0  -0.070599  -0.16826  0  3.909254  0
C  C95  1  0.77555100  0.51369776  0.12723954  1  0  -0.129125  0  3.677834  0  0  -0.167389  0  3.92095  0  0  -0.165276  0  3.938372  0  -0.047575  0  -0.070627  -0.168354  0  3.90934  0
N  N96  1  0.12365848  0.54513447  0.40427035  1  0  -0.301883  0  3.299963  0  0  -0.220711  0  3.568518  0  0  -0.240918  0  3.588592  0  -1.250387  0  -0.323227  -0.206875  0  3.554457  0
N  N97  1  0.37634078  0.45486494  0.90427144  1  0  -0.301893  0  3.299735  0  0  -0.220715  0  3.568306  0  0  -0.240922  0  3.58838  0  -1.250367  0  -0.323207  -0.206879  0  3.554244  0
N  N98  1  0.62366025  0.95486543  0.59572910  1  0  -0.301872  0  3.299835  0  0  -0.220689  0  3.568383  0  0  -0.240895  0  3.588455  0  -1.250377  0  -0.323193  -0.206854  0  3.554321  0
N  N99  1  0.87634005  0.04513398  0.09572965  1  0  -0.301853  0  3.299889  0  0  -0.220673  0  3.568436  0  0  -0.24088  0  3.588511  0  -1.250372  0  -0.323177  -0.206837  0  3.554375  0
N  N100  1  0.15049637  0.08641644  0.23235959  1  0  -0.314362  0  3.242985  0  0  -0.244149  0  3.5155  0  0  -0.263584  0  3.535702  0  -1.21954  0  -0.314876  -0.230854  0  3.501294  0
N  N101  1  0.34950290  0.91358376  0.73235959  1  0  -0.314369  0  3.243017  0  0  -0.244155  0  3.51553  0  0  -0.263588  0  3.535729  0  -1.219523  0  -0.314865  -0.230859  0  3.501324  0
N  N102  1  0.65049688  0.41358405  0.76764041  1  0  -0.314337  0  3.243014  0  0  -0.244121  0  3.515524  0  0  -0.263555  0  3.535725  0  -1.219528  0  -0.314862  -0.230826  0  3.501319  0
N  N103  1  0.84950341  0.58641536  0.26763986  1  0  -0.314291  0  3.242997  0  0  -0.244076  0  3.515499  0  0  -0.263512  0  3.535702  0  -1.219696  0  -0.31484  -0.230782  0  3.501294  0
O  O104  1  0.71325176  0.49970392  0.42443745  1  0  -0.632322  0  1.933894  0  0  -0.582121  0  2.1682  0  0  -0.609051  0  2.159608  0  -1.172374  0  -0.32677  -0.563167  0  2.173415  0
O  O105  1  0.78674853  0.50029706  0.92443909  1  0  -0.63229  0  1.933829  0  0  -0.58213  0  2.168207  0  0  -0.609053  0  2.159601  0  -1.172621  0  -0.326773  -0.563177  0  2.17342  0
O  O106  1  0.21325374  0.00029736  0.57556091  1  0  -0.632296  0  1.933793  0  0  -0.582127  0  2.168141  0  0  -0.609058  0  2.159549  0  -1.172668  0  -0.326767  -0.563175  0  2.173357  0
O  O107  1  0.28674552  0.99970205  0.07556255  1  0  -0.632303  0  1.933732  0  0  -0.58211  0  2.168053  0  0  -0.609039  0  2.159461  0  -1.172513  0  -0.326765  -0.563157  0  2.173268  0
O  O108  1  0.60769159  0.66095869  0.40552058  1  0  -0.649096  0  1.972389  0  0  -0.576299  0  2.199252  0  0  -0.606526  0  2.188448  0  -1.151862  0  -0.323587  -0.555085  0  2.205904  0
O  O109  1  0.89230621  0.33904229  0.90552113  1  0  -0.649071  0  1.972419  0  0  -0.576263  0  2.199265  0  0  -0.606491  0  2.188463  0  -1.15194  0  -0.323558  -0.555047  0  2.205913  0
O  O110  1  0.10769357  0.83904357  0.59447887  1  0  -0.649037  0  1.972452  0  0  -0.576235  0  2.199289  0  0  -0.606463  0  2.188486  0  -1.152107  0  -0.323521  -0.55502  0  2.20594  0
O  O111  1  0.39230694  0.16095663  0.09447887  1  0  -0.649049  0  1.972376  0  0  -0.576246  0  2.199227  0  0  -0.606473  0  2.188424  0  -1.152088  0  -0.323535  -0.555031  0  2.205876  0
O  O112  1  0.18164224  0.27401048  0.45326164  1  0  -0.308165  0  2.310087  0  0  -0.245863  0  2.547998  0  0  -0.264082  0  2.548631  0  -1.07219  0  -0.182571  -0.232816  0  2.547198  0
O  O113  1  0.31835703  0.72598815  0.95326328  1  0  -0.308199  0  2.310087  0  0  -0.245889  0  2.548002  0  0  -0.26411  0  2.548635  0  -1.072196  0  -0.182604  -0.232841  0  2.547204  0
O  O114  1  0.68164151  0.22598923  0.54673836  1  0  -0.308184  0  2.310066  0  0  -0.245883  0  2.547986  0  0  -0.264103  0  2.548618  0  -1.072203  0  -0.182587  -0.232835  0  2.54719  0
O  O115  1  0.81836004  0.77401018  0.04673836  1  0  -0.308183  0  2.31009  0  0  -0.245855  0  2.548017  0  0  -0.264075  0  2.548649  0  -1.071803  0  -0.182592  -0.232808  0  2.547214  0
O  O116  1  0.38303683  0.17367630  0.39189207  1  0  -0.310033  0  2.260975  0  0  -0.250591  0  2.491454  0  0  -0.266558  0  2.490881  0  -1.068442  0  -0.194764  -0.239105  0  2.491544  0
O  O117  1  0.11696493  0.82632154  0.89189262  1  0  -0.310045  0  2.260985  0  0  -0.250585  0  2.491477  0  0  -0.266549  0  2.490904  0  -1.068433  0  -0.194797  -0.239113  0  2.491572  0
O  O118  1  0.88303610  0.32632340  0.60810793  1  0  -0.310091  0  2.26098  0  0  -0.250592  0  2.491428  0  0  -0.266556  0  2.490855  0  -1.06844  0  -0.194783  -0.239104  0  2.491512  0
O  O119  1  0.61696544  0.67367601  0.10810684  1  0  -0.310008  0  2.260968  0  0  -0.250554  0  2.49145  0  0  -0.266519  0  2.490875  0  -1.068408  0  -0.194758  -0.239091  0  2.491552  0
O  O120  1  0.92256577  0.81651973  0.31893599  1  0  -0.624051  0  1.934458  0  0  -0.566573  0  2.160711  0  0  -0.595023  0  2.150412  0  -1.150249  0  -0.327598  -0.546651  0  2.167042  0
O  O121  1  0.57743577  0.18348047  0.81893654  1  0  -0.624068  0  1.934461  0  0  -0.566594  0  2.160716  0  0  -0.595045  0  2.150416  0  -1.15026  0  -0.327619  -0.546673  0  2.167049  0
O  O122  1  0.42256525  0.68348017  0.68106292  1  0  -0.624049  0  1.934485  0  0  -0.56657  0  2.160738  0  0  -0.595021  0  2.150439  0  -1.150246  0  -0.327593  -0.546648  0  2.167071  0
O  O123  1  0.07743401  0.31651846  0.18106401  1  0  -0.62403  0  1.934443  0  0  -0.566561  0  2.160693  0  0  -0.595012  0  2.150394  0  -1.150279  0  -0.327594  -0.546639  0  2.167025  0
O  O124  1  0.11904215  0.80604553  0.40543862  1  0  -0.650507  0  1.998412  0  0  -0.581339  0  2.220503  0  0  -0.611381  0  2.211454  0  -1.18755  0  -0.318905  -0.560244  0  2.225924  0
O  O125  1  0.38095961  0.19395466  0.90543971  1  0  -0.650505  0  1.99836  0  0  -0.581343  0  2.220464  0  0  -0.611383  0  2.211414  0  -1.187581  0  -0.318898  -0.560248  0  2.225885  0
O  O126  1  0.61904142  0.69395437  0.59456083  1  0  -0.650513  0  1.998414  0  0  -0.581341  0  2.220506  0  0  -0.611381  0  2.211456  0  -1.187578  0  -0.318908  -0.560246  0  2.225928  0
O  O127  1  0.88095763  0.30604347  0.09456138  1  0  -0.650496  0  1.99846  0  0  -0.581359  0  2.220537  0  0  -0.611397  0  2.211486  0  -1.187555  0  -0.318912  -0.560268  0  2.225958  0
O  O128  1  0.08779267  0.18272099  0.98001158  1  0  -0.846837  0  1.84846  0  0  -0.788056  0  2.033611  0  0  -0.809894  0  1.998345  0  -1.264712  0  -0.597313  -0.772485  0  2.058158  0
O  O129  1  0.41220660  0.81727842  0.48001158  1  0  -0.846864  0  1.848438  0  0  -0.788082  0  2.033596  0  0  -0.809918  0  1.998323  0  -1.264722  0  -0.597327  -0.77251  0  2.058144  0
O  O130  1  0.58779068  0.31728029  0.01998896  1  0  -0.846805  0  1.848547  0  0  -0.788037  0  2.033683  0  0  -0.809871  0  1.998428  0  -1.264759  0  -0.597271  -0.772474  0  2.058217  0
O  O131  1  0.91220711  0.68272148  0.51998842  1  0  -0.846841  0  1.848474  0  0  -0.788061  0  2.033627  0  0  -0.809901  0  1.99836  0  -1.264707  0  -0.597318  -0.77249  0  2.058174  0
