# generated using pymatgen
data_NiH36C40(N2O5)2
_symmetry_space_group_name_H-M   'P 1'
_cell_length_a   7.44520932
_cell_length_b   7.89721579
_cell_length_c   15.95634681
_cell_angle_alpha   89.33894065
_cell_angle_beta   78.47370032
_cell_angle_gamma   69.82677179
_symmetry_Int_Tables_number   1
_chemical_formula_structural   NiH36C40(N2O5)2
_chemical_formula_sum   'Ni1 H36 C40 N4 O10'
_cell_volume   861.18318159
_cell_formula_units_Z   1
loop_
 _symmetry_equiv_pos_site_id
 _symmetry_equiv_pos_as_xyz
  1  'x, y, z'
loop_
 _atom_site_type_symbol
 _atom_site_label
 _atom_site_symmetry_multiplicity
 _atom_site_fract_x
 _atom_site_fract_y
 _atom_site_fract_z
 _atom_site_occupancy
 _atom_site_hle17_bader_spin_density
 _atom_site_hle17_ddec_charge
 _atom_site_hle17_ddec_spin_density
 _atom_site_hle17_ddec_sum_bond_order
 _atom_site_hle17_magmom
 _atom_site_hse06_10hf_bader_spin_density
 _atom_site_hse06_10hf_ddec_charge
 _atom_site_hse06_10hf_ddec_spin_density
 _atom_site_hse06_10hf_ddec_sum_bond_order
 _atom_site_hse06_10hf_magmom
 _atom_site_hse06_bader_spin_density
 _atom_site_hse06_ddec_charge
 _atom_site_hse06_ddec_spin_density
 _atom_site_hse06_ddec_sum_bond_order
 _atom_site_hse06_magmom
 _atom_site_pbe_bader_spin_density
 _atom_site_pbe_cm5_charge
 _atom_site_pbe_ddec_charge
 _atom_site_pbe_ddec_spin_density
 _atom_site_pbe_ddec_sum_bond_order
 _atom_site_pbe_magmom
Ni  Ni0  1  0.00000068  0.99999392  0.99999902  1  0  0.618023  0  2.26573  0  0  0.590427  0  2.713246  0  0  0.665287  0  2.636035  0  0  0.623337  0.551665  0  2.760227  0
H  H1  1  0.06195594  0.28868093  0.02573852  1  0  0.385364  0  0.920313  0  0  0.350072  0  1.005765  0  0  0.361426  0  0.988064  0  0  0.271944  0.34155  0  1.01899  0
H  H2  1  0.93804907  0.71131974  0.97426131  1  0  0.385377  0  0.920311  0  0  0.350086  0  1.005748  0  0  0.36144  0  0.988047  0  0  0.271971  0.341566  0  1.01897  0
H  H3  1  0.06060824  0.41735463  0.09692534  1  0  0.407434  0  0.897129  0  0  0.382731  0  0.951978  0  0  0.393431  0  0.936455  0  0  0.276991  0.375502  0  0.962418  0
H  H4  1  0.93939506  0.58264333  0.90307591  1  0  0.407461  0  0.897113  0  0  0.38274  0  0.951987  0  0  0.393446  0  0.936453  0  0  0.27699  0.375512  0  0.962428  0
H  H5  1  0.88362869  0.57906873  0.46435041  1  0  0.397413  0  0.904377  0  0  0.364465  0  0.984873  0  0  0.377756  0  0.966578  0  0  0.30256  0.355195  0  0.994519  0
H  H6  1  0.11637045  0.42092925  0.53564749  1  0  0.397419  0  0.904323  0  0  0.364476  0  0.984802  0  0  0.377764  0  0.966549  0  0  0.302585  0.355209  0  0.994442  0
H  H7  1  0.00273281  0.64669403  0.25489589  1  0  0.112452  0  0.932936  0  0  0.121673  0  0.99578  0  0  0.125215  0  0.992302  0  0  0.114565  0.119111  0  0.998235  0
H  H8  1  0.99726484  0.35331881  0.74510270  1  0  0.112445  0  0.933025  0  0  0.121688  0  0.995847  0  0  0.125233  0  0.992365  0  0  0.114587  0.119128  0  0.998308  0
H  H9  1  0.72951955  0.46340228  0.33689318  1  0  0.12622  0  0.947497  0  0  0.144346  0  1.010069  0  0  0.146984  0  1.007788  0  0  0.094876  0.142423  0  1.011701  0
H  H10  1  0.27048075  0.53659977  0.66310145  1  0  0.126165  0  0.947519  0  0  0.144334  0  1.010057  0  0  0.146976  0  1.007763  0  0  0.09486  0.142411  0  1.011696  0
H  H11  1  0.57974771  0.33660444  0.38518563  1  0  0.109348  0  0.970843  0  0  0.126215  0  1.041549  0  0  0.128127  0  1.039745  0  0  0.089886  0.124917  0  1.042763  0
H  H12  1  0.42025450  0.66339625  0.61481008  1  0  0.109334  0  0.970827  0  0  0.126175  0  1.041594  0  0  0.128086  0  1.039793  0  0  0.089874  0.124877  0  1.042807  0
H  H13  1  0.51984799  0.56065740  0.42194417  1  0  0.125991  0  0.95201  0  0  0.146045  0  1.013601  0  0  0.147669  0  1.013273  0  0  0.095639  0.144868  0  1.013868  0
H  H14  1  0.48016251  0.43934326  0.57805576  1  0  0.125956  0  0.95204  0  0  0.146016  0  1.013623  0  0  0.14764  0  1.013293  0  0  0.095639  0.144861  0  1.013865  0
H  H15  1  0.67988178  0.69096436  0.07792953  1  0  0.134525  0  0.96132  0  0  0.153524  0  1.023835  0  0  0.154974  0  1.023917  0  0  0.099274  0.152456  0  1.023845  0
H  H16  1  0.32012278  0.30903764  0.92207535  1  0  0.134548  0  0.961313  0  0  0.153525  0  1.023852  0  0  0.154976  0  1.023933  0  0  0.099267  0.152458  0  1.023862  0
H  H17  1  0.52080100  0.64426095  0.01879545  1  0  0.11554  0  0.973005  0  0  0.132988  0  1.037911  0  0  0.13473  0  1.037713  0  0  0.089224  0.131717  0  1.038047  0
H  H18  1  0.47921087  0.35575053  0.98120241  1  0  0.115544  0  0.973003  0  0  0.133013  0  1.037885  0  0  0.134755  0  1.03769  0  0  0.089214  0.131743  0  1.038015  0
H  H19  1  0.70882073  0.46654288  0.05511913  1  0  0.13344  0  0.949219  0  0  0.152643  0  1.011003  0  0  0.154148  0  1.010679  0  0  0.100395  0.151338  0  1.011554  0
H  H20  1  0.29118632  0.53346320  0.94487859  1  0  0.133459  0  0.949196  0  0  0.152693  0  1.010948  0  0  0.154202  0  1.010624  0  0  0.100387  0.151385  0  1.011505  0
H  H21  1  0.58869886  0.06307362  0.02489820  1  0  0.092574  0  0.954609  0  0  0.102697  0  1.015495  0  0  0.104754  0  1.013026  0  0  0.126656  0.100961  0  1.0177  0
H  H22  1  0.41130678  0.93691084  0.97510103  1  0  0.092615  0  0.954666  0  0  0.102756  0  1.01553  0  0  0.104805  0  1.013078  0  0  0.126682  0.101031  0  1.01771  0
H  H23  1  0.32352007  0.07104812  0.14679398  1  0  0.130418  0  0.960163  0  0  0.137896  0  1.023801  0  0  0.141341  0  1.022118  0  0  0.111413  0.135361  0  1.02514  0
H  H24  1  0.67648197  0.92893499  0.85320560  1  0  0.130381  0  0.960243  0  0  0.137882  0  1.023855  0  0  0.141327  0  1.022177  0  0  0.111365  0.135352  0  1.025179  0
H  H25  1  0.72618464  0.04671898  0.31281991  1  0  0.09559  0  0.973453  0  0  0.105584  0  1.0369  0  0  0.107908  0  1.037036  0  0  0.10461  0.103907  0  1.036998  0
H  H26  1  0.27380973  0.95328440  0.68717967  1  0  0.095562  0  0.973404  0  0  0.105563  0  1.03685  0  0  0.107885  0  1.036985  0  0  0.104611  0.103889  0  1.036946  0
H  H27  1  0.96744955  0.05736107  0.18299438  1  0  0.089284  0  0.955946  0  0  0.096063  0  1.02297  0  0  0.098182  0  1.020494  0  0  0.121578  0.094308  0  1.025119  0
H  H28  1  0.03254926  0.94263420  0.81700544  1  0  0.089298  0  0.955889  0  0  0.096039  0  1.022954  0  0  0.098156  0  1.020483  0  0  0.121565  0.094285  0  1.025109  0
H  H29  1  0.10259803  0.20030721  0.26894534  1  0  0.104212  0  0.942001  0  0  0.119022  0  0.996336  0  0  0.121474  0  0.995491  0  0  0.109761  0.117161  0  0.997122  0
H  H30  1  0.89739449  0.79968669  0.73105948  1  0  0.104181  0  0.941989  0  0  0.119042  0  0.996275  0  0  0.121495  0  0.995428  0  0  0.109778  0.117185  0  0.997066  0
H  H31  1  0.86378083  0.17411807  0.39215262  1  0  0.076506  0  1.009415  0  0  0.089116  0  1.07314  0  0  0.091344  0  1.072307  0  0  0.096531  0.087499  0  1.073809  0
H  H32  1  0.13621755  0.82587852  0.60785288  1  0  0.07646  0  1.009477  0  0  0.089111  0  1.073158  0  0  0.091342  0  1.07232  0  0  0.096519  0.087464  0  1.073858  0
H  H33  1  0.33126683  0.85402660  0.51178261  1  0  0.085336  0  0.973772  0  0  0.097982  0  1.035037  0  0  0.100799  0  1.033392  0  0  0.099991  0.095926  0  1.036342  0
H  H34  1  0.66874046  0.14597540  0.48822137  1  0  0.085451  0  0.97375  0  0  0.098075  0  1.035038  0  0  0.100891  0  1.033391  0  0  0.100037  0.096017  0  1.036347  0
H  H35  1  0.56892130  0.87845193  0.38858735  1  0  0.098529  0  0.945441  0  0  0.112604  0  1.00071  0  0  0.115558  0  0.999361  0  0  0.105798  0.110479  0  1.001756  0
H  H36  1  0.43107895  0.12155414  0.61141479  1  0  0.098547  0  0.945436  0  0  0.112634  0  1.000679  0  0  0.115581  0  0.999347  0  0  0.105793  0.110508  0  1.001728  0
C  C37  1  0.46669818  0.59956590  0.15456641  1  0  0.340151  0  3.687025  0  0  0.336439  0  3.941454  0  0  0.349861  0  3.956787  0  0  0.13747  0.327571  0  3.930843  0
C  C38  1  0.53329995  0.40043479  0.84543219  1  0  0.340331  0  3.686958  0  0  0.336621  0  3.941367  0  0  0.350045  0  3.956694  0  0  0.137544  0.327749  0  3.930762  0
C  C39  1  0.26251310  0.64346718  0.16577272  1  0  -0.171134  0  3.711667  0  0  -0.150587  0  3.948757  0  0  -0.165482  0  3.970731  0  0  -0.015761  -0.141143  0  3.934104  0
C  C40  1  0.73749116  0.35652810  0.83422408  1  0  -0.171246  0  3.711682  0  0  -0.150698  0  3.948774  0  0  -0.165597  0  3.97074  0  0  -0.015802  -0.14125  0  3.934126  0
C  C41  1  0.15952790  0.61943330  0.24522312  1  0  -0.004728  0  3.702857  0  0  -0.047042  0  3.956592  0  0  -0.039079  0  3.973574  0  0  -0.059958  -0.051746  0  3.944824  0
C  C42  1  0.84047368  0.38057278  0.75477637  1  0  -0.004745  0  3.702749  0  0  -0.047077  0  3.956484  0  0  -0.039114  0  3.973463  0  0  -0.059981  -0.051786  0  3.944727  0
C  C43  1  0.25631917  0.56124319  0.31247101  1  0  -0.204869  0  3.757305  0  0  -0.188403  0  4.00285  0  0  -0.205336  0  4.028305  0  0  -0.026461  -0.177484  0  3.985658  0
C  C44  1  0.74367761  0.43876830  0.68752766  1  0  -0.204738  0  3.757244  0  0  -0.188288  0  4.002806  0  0  -0.205223  0  4.028266  0  0  -0.0264  -0.177368  0  3.985612  0
C  C45  1  0.46023314  0.52683189  0.29714233  1  0  0.327324  0  3.71996  0  0  0.325407  0  3.974372  0  0  0.337556  0  3.992844  0  0  0.137281  0.317563  0  3.961445  0
C  C46  1  0.53976383  0.47317554  0.70285823  1  0  0.327262  0  3.719935  0  0  0.325353  0  3.974356  0  0  0.3375  0  3.992828  0  0  0.137263  0.317511  0  3.961428  0
C  C47  1  0.14415316  0.53834468  0.39616120  1  0  0.676918  0  3.807518  0  0  0.621258  0  4.109349  0  0  0.655874  0  4.101635  0  0  0.238067  0.59779  0  4.114091  0
C  C48  1  0.85584584  0.46165735  0.60383856  1  0  0.676841  0  3.807669  0  0  0.621177  0  4.109523  0  0  0.655793  0  4.101811  0  0  0.238  0.597715  0  4.114255  0
C  C49  1  0.14562972  0.71828697  0.09902648  1  0  0.638216  0  3.889922  0  0  0.588895  0  4.190289  0  0  0.627059  0  4.183472  0  0  0.21874  0.562859  0  4.194549  0
C  C50  1  0.85436249  0.28170023  0.90096900  1  0  0.638383  0  3.889833  0  0  0.589031  0  4.190164  0  0  0.627208  0  4.183326  0  0  0.218827  0.562989  0  4.194432  0
C  C51  1  0.58028931  0.46925522  0.36408467  1  0  -0.376509  0  3.708276  0  0  -0.463498  0  3.955054  0  0  -0.46603  0  3.959689  0  0  -0.245817  -0.461456  0  3.951589  0
C  C52  1  0.41971102  0.53074683  0.63591247  1  0  -0.376319  0  3.708092  0  0  -0.463358  0  3.954911  0  0  -0.465887  0  3.959551  0  0  -0.24575  -0.461337  0  3.951432  0
C  C53  1  0.59789961  0.60207447  0.07111546  1  0  -0.385681  0  3.686964  0  0  -0.467702  0  3.925223  0  0  -0.471015  0  3.930997  0  0  -0.245908  -0.465075  0  3.92115  0
C  C54  1  0.40210747  0.39793161  0.92888414  1  0  -0.385766  0  3.686991  0  0  -0.467827  0  3.925232  0  0  -0.471149  0  3.93101  0  0  -0.245904  -0.465201  0  3.921161  0
C  C55  1  0.61136713  0.06051625  0.09017254  1  0  0.132077  0  3.647079  0  0  0.101288  0  3.897169  0  0  0.112311  0  3.913  0  0  0.055344  0.093797  0  3.887655  0
C  C56  1  0.38862961  0.93947362  0.90982813  1  0  0.131871  0  3.647285  0  0  0.101048  0  3.897378  0  0  0.112071  0  3.913209  0  0  0.055251  0.093556  0  3.887872  0
C  C57  1  0.46424783  0.06353320  0.15971824  1  0  -0.147264  0  3.657432  0  0  -0.163094  0  3.899903  0  0  -0.171837  0  3.919347  0  0  -0.075689  -0.157591  0  3.887336  0
C  C58  1  0.53575150  0.93646071  0.84028280  1  0  -0.147208  0  3.657312  0  0  -0.163004  0  3.899759  0  0  -0.171749  0  3.919202  0  0  -0.075623  -0.157502  0  3.887204  0
C  C59  1  0.50188544  0.05187853  0.24282676  1  0  0.109713  0  3.745963  0  0  0.118153  0  3.977041  0  0  0.125697  0  3.997417  0  0  0.015085  0.112961  0  3.96338  0
C  C60  1  0.49810774  0.94812080  0.75717421  1  0  0.109742  0  3.74573  0  0  0.118091  0  3.976963  0  0  0.125633  0  3.997333  0  0  0.015074  0.112903  0  3.963298  0
C  C61  1  0.68734284  0.05026034  0.25042686  1  0  -0.153378  0  3.699003  0  0  -0.168795  0  3.943128  0  0  -0.17795  0  3.964069  0  0  -0.079343  -0.162883  0  3.929259  0
C  C62  1  0.31264882  0.94974303  0.74957548  1  0  -0.153292  0  3.699  0  0  -0.168676  0  3.943146  0  0  -0.177827  0  3.964085  0  0  -0.07933  -0.162761  0  3.929267  0
C  C63  1  0.82498382  0.05413486  0.17852661  1  0  0.130971  0  3.673076  0  0  0.098921  0  3.924795  0  0  0.109512  0  3.942016  0  0  0.048504  0.091768  0  3.91407  0
C  C64  1  0.17501721  0.94586177  0.82147237  1  0  0.13094  0  3.673093  0  0  0.0989  0  3.924839  0  0  0.109492  0  3.942058  0  0  0.048508  0.091747  0  3.914125  0
C  C65  1  0.35583880  0.04027754  0.31811902  1  0  0.044408  0  3.77089  0  0  0.059766  0  4.004156  0  0  0.05808  0  4.027297  0  0  -0.00606  0.060861  0  3.988551  0
C  C66  1  0.64415847  0.95972179  0.68188092  1  0  0.044472  0  3.770799  0  0  0.059806  0  4.004158  0  0  0.058131  0  4.027289  0  0  -0.006066  0.060899  0  3.988555  0
C  C67  1  0.15387132  0.12106199  0.32149993  1  0  -0.103  0  3.727473  0  0  -0.122809  0  3.974926  0  0  -0.12457  0  3.99611  0  0  -0.086698  -0.121571  0  3.960658  0
C  C68  1  0.84612462  0.87893732  0.67850265  1  0  -0.103066  0  3.727342  0  0  -0.122903  0  3.974837  0  0  -0.124667  0  3.99602  0  0  -0.086718  -0.12167  0  3.96057  0
C  C69  1  0.01783077  0.10590411  0.39212076  1  0  -0.102937  0  3.736965  0  0  -0.1242  0  3.984644  0  0  -0.127141  0  4.006208  0  0  -0.090752  -0.122158  0  3.970056  0
C  C70  1  0.98216384  0.89409520  0.60788445  1  0  -0.102769  0  3.736942  0  0  -0.1241  0  3.984596  0  0  -0.127037  0  4.006149  0  0  -0.090708  -0.122035  0  3.970024  0
C  C71  1  0.07380319  0.00894509  0.46293547  1  0  0.05258  0  3.754978  0  0  0.06621  0  3.987861  0  0  0.067139  0  4.01106  0  0  -0.007576  0.065552  0  3.972126  0
C  C72  1  0.92619724  0.99105691  0.53706855  1  0  0.052484  0  3.755034  0  0  0.066247  0  3.98782  0  0  0.067179  0  4.011018  0  0  -0.007562  0.06559  0  3.972076  0
C  C73  1  0.27661964  0.93094165  0.45941306  1  0  -0.101987  0  3.727901  0  0  -0.122689  0  3.977485  0  0  -0.125612  0  3.998418  0  0  -0.088439  -0.12066  0  3.96328  0
C  C74  1  0.72338316  0.06905766  0.54058949  1  0  -0.102097  0  3.727946  0  0  -0.12283  0  3.977503  0  0  -0.12575  0  3.998431  0  0  -0.088485  -0.120803  0  3.963305  0
C  C75  1  0.41368792  0.94618005  0.38916103  1  0  -0.095531  0  3.723853  0  0  -0.115139  0  3.970383  0  0  -0.116682  0  3.990937  0  0  -0.084707  -0.114025  0  3.956405  0
C  C76  1  0.58631249  0.05382197  0.61084111  1  0  -0.09563  0  3.723964  0  0  -0.115217  0  3.9705  0  0  -0.116766  0  3.99105  0  0  -0.084748  -0.114103  0  3.956524  0
N  N77  1  0.79143208  0.05129398  0.09847799  1  0  -0.244491  0  3.363242  0  0  -0.188433  0  3.645465  0  0  -0.217067  0  3.662275  0  0  -0.338558  -0.172317  0  3.635788  0
N  N78  1  0.20856674  0.94870129  0.90152246  1  0  -0.244374  0  3.363435  0  0  -0.188295  0  3.645632  0  0  -0.216929  0  3.662441  0  0  -0.338496  -0.172186  0  3.635966  0
N  N79  1  0.55904242  0.54396683  0.21967714  1  0  -0.395241  0  2.9711  0  0  -0.36787  0  3.235147  0  0  -0.38347  0  3.247684  0  0  -0.318136  -0.35736  0  3.226395  0
N  N80  1  0.44095677  0.45604196  0.78032195  1  0  -0.395351  0  2.971206  0  0  -0.367967  0  3.235243  0  0  -0.383567  0  3.247776  0  0  -0.318191  -0.357458  0  3.226493  0
O  O81  1  0.09158963  0.28746793  0.08315274  1  0  -0.831307  0  1.772022  0  0  -0.79622  0  1.945292  0  0  -0.811867  0  1.912405  0  0  -0.615974  -0.784793  0  1.968383  0
O  O82  1  0.90841415  0.71252869  0.91684597  1  0  -0.831353  0  1.772027  0  0  -0.796258  0  1.94531  0  0  -0.811907  0  1.912416  0  0  -0.616004  -0.784833  0  1.968403  0
O  O83  1  0.17607122  0.85753589  0.06336529  1  0  -0.544755  0  2.175212  0  0  -0.510589  0  2.470112  0  0  -0.554515  0  2.462156  0  0  -0.295557  -0.481623  0  2.47462  0
O  O84  1  0.82392735  0.14245265  0.93663083  1  0  -0.54488  0  2.175383  0  0  -0.510632  0  2.470233  0  0  -0.554559  0  2.462269  0  0  -0.295592  -0.481665  0  2.474745  0
O  O85  1  0.02068244  0.65508753  0.08530689  1  0  -0.59996  0  2.025418  0  0  -0.540512  0  2.241879  0  0  -0.567439  0  2.233361  0  0  -0.283323  -0.521953  0  2.247359  0
O  O86  1  0.97932336  0.34490369  0.91469041  1  0  -0.600065  0  2.025075  0  0  -0.540603  0  2.241527  0  0  -0.567556  0  2.233036  0  0  -0.283381  -0.522041  0  2.247013  0
O  O87  1  0.95216429  0.60817995  0.40501302  1  0  -0.552165  0  2.100148  0  0  -0.502539  0  2.324679  0  0  -0.525441  0  2.307858  0  0  -0.326333  -0.486667  0  2.333582  0
O  O88  1  0.04783794  0.39182073  0.59498520  1  0  -0.552153  0  2.100065  0  0  -0.502539  0  2.324622  0  0  -0.525438  0  2.307826  0  0  -0.32636  -0.486673  0  2.333522  0
O  O89  1  0.22626684  0.45776910  0.45389029  1  0  -0.56654  0  2.013613  0  0  -0.507071  0  2.228724  0  0  -0.530986  0  2.220618  0  0  -0.28279  -0.490706  0  2.233243  0
O  O90  1  0.77373317  0.54223023  0.54610814  1  0  -0.566557  0  2.013689  0  0  -0.50709  0  2.228812  0  0  -0.531006  0  2.220698  0  0  -0.28277  -0.49072  0  2.233316  0
