# generated using pymatgen
data_ZnH13C13(NO)5
_symmetry_space_group_name_H-M   'P 1'
_cell_length_a   12.47716337
_cell_length_b   12.47712184
_cell_length_c   14.19434236
_cell_angle_alpha   71.13818804
_cell_angle_beta   71.13795922
_cell_angle_gamma   79.62590933
_symmetry_Int_Tables_number   1
_chemical_formula_structural   ZnH13C13(NO)5
_chemical_formula_sum   'Zn4 H52 C52 N20 O20'
_cell_volume   1971.75101098
_cell_formula_units_Z   4
loop_
 _symmetry_equiv_pos_site_id
 _symmetry_equiv_pos_as_xyz
  1  'x, y, z'
loop_
 _atom_site_type_symbol
 _atom_site_label
 _atom_site_symmetry_multiplicity
 _atom_site_fract_x
 _atom_site_fract_y
 _atom_site_fract_z
 _atom_site_occupancy
 _atom_site_hle17_bader_spin_density
 _atom_site_hle17_ddec_charge
 _atom_site_hle17_ddec_spin_density
 _atom_site_hle17_ddec_sum_bond_order
 _atom_site_hle17_magmom
 _atom_site_hse06_10hf_bader_spin_density
 _atom_site_hse06_10hf_ddec_charge
 _atom_site_hse06_10hf_ddec_spin_density
 _atom_site_hse06_10hf_ddec_sum_bond_order
 _atom_site_hse06_10hf_magmom
 _atom_site_hse06_bader_spin_density
 _atom_site_hse06_ddec_charge
 _atom_site_hse06_ddec_spin_density
 _atom_site_hse06_ddec_sum_bond_order
 _atom_site_hse06_magmom
 _atom_site_pbe_bader_spin_density
 _atom_site_pbe_cm5_charge
 _atom_site_pbe_ddec_charge
 _atom_site_pbe_ddec_spin_density
 _atom_site_pbe_ddec_sum_bond_order
 _atom_site_pbe_magmom
Zn  Zn0  1  0.73487808  0.13525292  0.11874905  1  0  1.052412  0  1.823719  0  0  0.87828  0  2.276583  0  0  0.924241  0  2.223087  0  0  0.67196  0.846154  0  2.313217  0
Zn  Zn1  1  0.86474998  0.26512735  0.38124904  1  0  1.052389  0  1.823721  0  0  0.878263  0  2.276572  0  0  0.924227  0  2.223072  0  0  0.671966  0.846137  0  2.313207  0
Zn  Zn2  1  0.26512878  0.86474958  0.88124825  1  0  1.052393  0  1.823756  0  0  0.878268  0  2.276608  0  0  0.924228  0  2.22311  0  0  0.671976  0.846144  0  2.313237  0
Zn  Zn3  1  0.13525096  0.73487516  0.61875134  1  0  1.052382  0  1.823755  0  0  0.878258  0  2.276619  0  0  0.924222  0  2.223118  0  0  0.671963  0.846134  0  2.31325  0
H  H4  1  0.84368116  0.12407453  0.91650029  1  0  0.389621  0  0.933518  0  0  0.345217  0  1.020864  0  0  0.356962  0  1.004223  0  0  0.276043  0.337011  0  1.032453  0
H  H5  1  0.87592642  0.15631855  0.58349759  1  0  0.389652  0  0.933465  0  0  0.345249  0  1.020809  0  0  0.356995  0  1.004167  0  0  0.276059  0.337044  0  1.032397  0
H  H6  1  0.15631900  0.87592713  0.08349844  1  0  0.389714  0  0.9334  0  0  0.345293  0  1.020759  0  0  0.357038  0  1.004118  0  0  0.276075  0.337088  0  1.032347  0
H  H7  1  0.12407466  0.84368226  0.41650253  1  0  0.389653  0  0.93347  0  0  0.345253  0  1.020809  0  0  0.356998  0  1.004168  0  0  0.276065  0.337048  0  1.032398  0
H  H8  1  0.79576179  0.25174320  0.92412028  1  0  0.418656  0  0.826883  0  0  0.404275  0  0.87725  0  0  0.412284  0  0.867958  0  0  0.316164  0.398531  0  0.883985  0
H  H9  1  0.74825740  0.20424055  0.57588014  1  0  0.418705  0  0.82681  0  0  0.404326  0  0.877174  0  0  0.412333  0  0.867883  0  0  0.316192  0.398581  0  0.883909  0
H  H10  1  0.20424006  0.74825846  0.07587938  1  0  0.418709  0  0.826821  0  0  0.404326  0  0.877194  0  0  0.412334  0  0.867902  0  0  0.316186  0.398581  0  0.88393  0
H  H11  1  0.25174198  0.79576026  0.42412117  1  0  0.418693  0  0.826833  0  0  0.404309  0  0.877206  0  0  0.412318  0  0.867914  0  0  0.316178  0.398564  0  0.883942  0
H  H12  1  0.75014085  0.33593070  0.13242478  1  0  0.423013  0  0.857297  0  0  0.397401  0  0.91548  0  0  0.407548  0  0.900538  0  0  0.293998  0.390129  0  0.926202  0
H  H13  1  0.66407301  0.24985726  0.36757414  1  0  0.423021  0  0.85729  0  0  0.397414  0  0.915461  0  0  0.407559  0  0.900521  0  0  0.294007  0.390143  0  0.92618  0
H  H14  1  0.24985853  0.66407011  0.86757512  1  0  0.422987  0  0.857327  0  0  0.397374  0  0.915515  0  0  0.407521  0  0.900572  0  0  0.293994  0.390103  0  0.926235  0
H  H15  1  0.33592983  0.75014271  0.63242290  1  0  0.422974  0  0.857328  0  0  0.397357  0  0.915538  0  0  0.407502  0  0.900597  0  0  0.293977  0.390084  0  0.926261  0
H  H16  1  0.63914312  0.32735914  0.09683203  1  0  0.42375  0  0.881211  0  0  0.390843  0  0.946065  0  0  0.40358  0  0.927833  0  0  0.281753  0.381836  0  0.958934  0
H  H17  1  0.67264992  0.36084970  0.40316710  1  0  0.423768  0  0.881218  0  0  0.390849  0  0.946099  0  0  0.403581  0  0.927871  0  0  0.2817  0.38184  0  0.95897  0
H  H18  1  0.36085329  0.67264677  0.90316938  1  0  0.423724  0  0.881268  0  0  0.390824  0  0.946121  0  0  0.403559  0  0.927886  0  0  0.281697  0.381815  0  0.958992  0
H  H19  1  0.32735144  0.63914772  0.59683250  1  0  0.423709  0  0.881288  0  0  0.390807  0  0.946144  0  0  0.403542  0  0.927913  0  0  0.281693  0.381799  0  0.959014  0
H  H20  1  0.73048409  0.07871114  0.33206846  1  0  0.384792  0  0.937217  0  0  0.338798  0  1.026891  0  0  0.350798  0  1.009897  0  0  0.280363  0.330415  0  1.038729  0
H  H21  1  0.92128844  0.26951656  0.16793042  1  0  0.38479  0  0.937223  0  0  0.338787  0  1.026911  0  0  0.350788  0  1.009917  0  0  0.280368  0.330405  0  1.038749  0
H  H22  1  0.26951685  0.92129137  0.66793052  1  0  0.384783  0  0.93721  0  0  0.338797  0  1.026891  0  0  0.350797  0  1.009897  0  0  0.28037  0.330414  0  1.038729  0
H  H23  1  0.07871208  0.73048085  0.83206942  1  0  0.38482  0  0.93718  0  0  0.338824  0  1.026857  0  0  0.350823  0  1.009864  0  0  0.280381  0.330441  0  1.038695  0
H  H24  1  0.60339476  0.09625984  0.31959490  1  0  0.420131  0  0.822203  0  0  0.403909  0  0.874266  0  0  0.412246  0  0.86473  0  0  0.31965  0.397937  0  0.881151  0
H  H25  1  0.90374041  0.39660693  0.18040591  1  0  0.42008  0  0.822173  0  0  0.403862  0  0.874238  0  0  0.412201  0  0.864701  0  0  0.319636  0.397891  0  0.881123  0
H  H26  1  0.39660540  0.90374182  0.68040454  1  0  0.420082  0  0.82215  0  0  0.403862  0  0.874219  0  0  0.4122  0  0.864682  0  0  0.319627  0.397891  0  0.881103  0
H  H27  1  0.09625728  0.60339389  0.81959377  1  0  0.420145  0  0.822297  0  0  0.403925  0  0.874349  0  0  0.412263  0  0.864812  0  0  0.31967  0.397953  0  0.881234  0
H  H28  1  0.31174687  0.34478536  0.09509278  1  0  0.107791  0  0.934503  0  0  0.116987  0  0.992552  0  0  0.120927  0  0.989798  0  0  0.10704  0.114142  0  0.99459  0
H  H29  1  0.65521007  0.68825783  0.40490617  1  0  0.107705  0  0.934434  0  0  0.116928  0  0.992472  0  0  0.120868  0  0.989721  0  0  0.10703  0.114084  0  0.994507  0
H  H30  1  0.68825794  0.65521120  0.90490608  1  0  0.107727  0  0.9345  0  0  0.116935  0  0.992539  0  0  0.120873  0  0.989788  0  0  0.107041  0.114093  0  0.994572  0
H  H31  1  0.34478649  0.31174639  0.59509145  1  0  0.107733  0  0.934425  0  0  0.11694  0  0.99248  0  0  0.12088  0  0.989725  0  0  0.107035  0.114094  0  0.994517  0
H  H32  1  0.12705372  0.29198981  0.09622646  1  0  0.092872  0  0.947997  0  0  0.10509  0  1.005823  0  0  0.10846  0  1.003783  0  0  0.102827  0.102686  0  1.007363  0
H  H33  1  0.70800954  0.87295162  0.40376936  1  0  0.092863  0  0.9479  0  0  0.105093  0  1.005723  0  0  0.108461  0  1.003687  0  0  0.102833  0.102689  0  1.007259  0
H  H34  1  0.87295167  0.70801016  0.90376775  1  0  0.092945  0  0.947919  0  0  0.105155  0  1.005753  0  0  0.108524  0  1.003714  0  0  0.10284  0.10275  0  1.007292  0
H  H35  1  0.29198695  0.12705345  0.59622452  1  0  0.092905  0  0.947964  0  0  0.105111  0  1.005793  0  0  0.108481  0  1.003755  0  0  0.102821  0.102706  0  1.007333  0
H  H36  1  0.26203537  0.94165547  0.14394889  1  0  0.108216  0  0.956209  0  0  0.120321  0  1.013048  0  0  0.124072  0  1.010297  0  0  0.104485  0.117535  0  1.015232  0
H  H37  1  0.05834554  0.73795946  0.35605053  1  0  0.108252  0  0.956184  0  0  0.120349  0  1.013034  0  0  0.124097  0  1.010286  0  0  0.104491  0.117562  0  1.015217  0
H  H38  1  0.73796049  0.05834705  0.85604871  1  0  0.108218  0  0.956151  0  0  0.120311  0  1.013018  0  0  0.124058  0  1.010273  0  0  0.104475  0.117523  0  1.0152  0
H  H39  1  0.94165370  0.26204306  0.64394682  1  0  0.108179  0  0.956218  0  0  0.120273  0  1.013082  0  0  0.124019  0  1.010335  0  0  0.104448  0.117485  0  1.015266  0
H  H40  1  0.44450057  0.99612609  0.14260625  1  0  0.093121  0  0.962588  0  0  0.103377  0  1.023624  0  0  0.106836  0  1.020922  0  0  0.100678  0.100853  0  1.02567  0
H  H41  1  0.00387069  0.55549444  0.35739334  1  0  0.09319  0  0.962587  0  0  0.103433  0  1.023625  0  0  0.106892  0  1.020923  0  0  0.100689  0.100908  0  1.025671  0
H  H42  1  0.55549423  0.00386879  0.85739311  1  0  0.09312  0  0.962574  0  0  0.103372  0  1.02361  0  0  0.106832  0  1.020908  0  0  0.100675  0.100847  0  1.025656  0
H  H43  1  0.99612636  0.44450383  0.64260865  1  0  0.09326  0  0.96264  0  0  0.103488  0  1.023692  0  0  0.106949  0  1.020988  0  0  0.10072  0.100963  0  1.025738  0
H  H44  1  0.00141225  0.76025607  0.12570384  1  0  0.083309  0  0.93051  0  0  0.092227  0  0.991707  0  0  0.095418  0  0.989257  0  0  0.117506  0.089845  0  0.993695  0
H  H45  1  0.23974762  0.99859069  0.37429550  1  0  0.083259  0  0.930564  0  0  0.092236  0  0.991701  0  0  0.09543  0  0.989251  0  0  0.117517  0.089853  0  0.993688  0
H  H46  1  0.99858783  0.23974645  0.87429608  1  0  0.083269  0  0.930513  0  0  0.092218  0  0.991689  0  0  0.095409  0  0.989234  0  0  0.1175  0.089835  0  0.993676  0
H  H47  1  0.76025381  0.00140587  0.62570573  1  0  0.083288  0  0.930594  0  0  0.092278  0  0.991711  0  0  0.095471  0  0.989259  0  0  0.117534  0.089895  0  0.993697  0
H  H48  1  0.67808261  0.70023239  0.14343145  1  0  0.093103  0  0.907037  0  0  0.104047  0  0.958065  0  0  0.106933  0  0.956918  0  0  0.125205  0.101896  0  0.959073  0
H  H49  1  0.29976685  0.32192362  0.35656666  1  0  0.093198  0  0.907042  0  0  0.104094  0  0.958097  0  0  0.106981  0  0.95695  0  0  0.125219  0.101941  0  0.959104  0
H  H50  1  0.32191776  0.29976672  0.85657076  1  0  0.093064  0  0.907068  0  0  0.10402  0  0.958089  0  0  0.106906  0  0.956942  0  0  0.125201  0.101868  0  0.959096  0
H  H51  1  0.70024038  0.67807464  0.64342611  1  0  0.093095  0  0.907093  0  0  0.104018  0  0.958133  0  0  0.106908  0  0.956989  0  0  0.12518  0.101864  0  0.95914  0
H  H52  1  0.60981859  0.90646783  0.13850699  1  0  0.093567  0  0.936524  0  0  0.101488  0  0.997982  0  0  0.104618  0  0.995582  0  0  0.123417  0.099138  0  0.999923  0
H  H53  1  0.09352992  0.39018638  0.36149670  1  0  0.093524  0  0.936563  0  0  0.101425  0  0.998045  0  0  0.104555  0  0.995647  0  0  0.12339  0.099078  0  0.999982  0
H  H54  1  0.39018094  0.09353129  0.86149264  1  0  0.093579  0  0.936538  0  0  0.101502  0  0.99799  0  0  0.104631  0  0.99559  0  0  0.123431  0.099151  0  0.999931  0
H  H55  1  0.90647546  0.60981357  0.63850808  1  0  0.09349  0  0.936606  0  0  0.101437  0  0.998041  0  0  0.104567  0  0.995641  0  0  0.123395  0.099088  0  0.999979  0
C  C56  1  0.49838779  0.20413999  0.12256667  1  0  0.654662  0  3.89525  0  0  0.602827  0  4.192119  0  0  0.637475  0  4.184951  0  0  0.20755  0.57934  0  4.19614  0
C  C57  1  0.79586865  0.50161013  0.37743258  1  0  0.65474  0  3.895099  0  0  0.603  0  4.19182  0  0  0.637656  0  4.184642  0  0  0.207602  0.579514  0  4.195842  0
C  C58  1  0.50160933  0.79586762  0.87743336  1  0  0.654606  0  3.895339  0  0  0.602875  0  4.192098  0  0  0.637526  0  4.184928  0  0  0.207532  0.579387  0  4.196121  0
C  C59  1  0.20412988  0.49839068  0.62256968  1  0  0.654785  0  3.895107  0  0  0.602965  0  4.191942  0  0  0.637623  0  4.184761  0  0  0.20758  0.579479  0  4.195963  0
C  C60  1  0.38870531  0.17335736  0.12002165  1  0  -0.060249  0  3.756687  0  0  -0.038244  0  3.989014  0  0  -0.046264  0  4.013624  0  0  -0.019185  -0.03295  0  3.972293  0
C  C61  1  0.82664243  0.61129199  0.37997621  1  0  -0.060356  0  3.756908  0  0  -0.038329  0  3.989172  0  0  -0.046359  0  4.013785  0  0  -0.019209  -0.033041  0  3.972458  0
C  C62  1  0.61129641  0.82663581  0.87997129  1  0  -0.06035  0  3.756847  0  0  -0.038451  0  3.989296  0  0  -0.046477  0  4.013908  0  0  -0.019246  -0.03316  0  3.972582  0
C  C63  1  0.17335611  0.38870882  0.62002393  1  0  -0.060292  0  3.756839  0  0  -0.038213  0  3.989066  0  0  -0.046249  0  4.01368  0  0  -0.019182  -0.032925  0  3.97235  0
C  C64  1  0.29893770  0.25677380  0.10648311  1  0  -0.07713  0  3.753183  0  0  -0.100366  0  4.003508  0  0  -0.101359  0  4.025719  0  0  -0.085387  -0.099478  0  3.988262  0
C  C65  1  0.74322804  0.70105877  0.39351759  1  0  -0.076865  0  3.752862  0  0  -0.100148  0  4.003207  0  0  -0.101137  0  4.025418  0  0  -0.0853  -0.099261  0  3.987963  0
C  C66  1  0.70106203  0.74322276  0.89351930  1  0  -0.077008  0  3.752989  0  0  -0.100237  0  4.003343  0  0  -0.101224  0  4.025548  0  0  -0.085425  -0.099349  0  3.988097  0
C  C67  1  0.25676971  0.29894120  0.60648371  1  0  -0.076947  0  3.75294  0  0  -0.100216  0  4.003248  0  0  -0.101201  0  4.025457  0  0  -0.085335  -0.099327  0  3.988  0
C  C68  1  0.19626292  0.22687909  0.10786859  1  0  -0.10084  0  3.747675  0  0  -0.125132  0  4.004192  0  0  -0.128465  0  4.026084  0  0  -0.090309  -0.122763  0  3.989171  0
C  C69  1  0.77312039  0.80374048  0.39212675  1  0  -0.10095  0  3.747343  0  0  -0.125245  0  4.003924  0  0  -0.128576  0  4.025815  0  0  -0.090376  -0.122872  0  3.988903  0
C  C70  1  0.80373809  0.77311238  0.89212997  1  0  -0.100931  0  3.747424  0  0  -0.125203  0  4.003948  0  0  -0.128534  0  4.025839  0  0  -0.090236  -0.122814  0  3.988942  0
C  C71  1  0.22687532  0.19626374  0.60787111  1  0  -0.100952  0  3.747594  0  0  -0.125248  0  4.004088  0  0  -0.128582  0  4.025977  0  0  -0.090319  -0.122867  0  3.989071  0
C  C72  1  0.18129441  0.11291693  0.12210714  1  0  0.001667  0  3.806989  0  0  0.017274  0  4.048175  0  0  0.017123  0  4.070641  0  0  -0.009079  0.017376  0  4.032872  0
C  C73  1  0.88708261  0.81870579  0.37789240  1  0  0.001681  0  3.806842  0  0  0.017258  0  4.048048  0  0  0.017101  0  4.070516  0  0  -0.009078  0.017354  0  4.032746  0
C  C74  1  0.81870738  0.88707538  0.87789378  1  0  0.001583  0  3.80698  0  0  0.01718  0  4.048159  0  0  0.01702  0  4.070633  0  0  -0.009167  0.017228  0  4.032922  0
C  C75  1  0.11291494  0.18129673  0.62210542  1  0  0.0017  0  3.806919  0  0  0.017349  0  4.048015  0  0  0.017199  0  4.070471  0  0  -0.009068  0.01742  0  4.032747  0
C  C76  1  0.27191202  0.02982567  0.13409387  1  0  -0.099988  0  3.732315  0  0  -0.122883  0  3.982314  0  0  -0.126139  0  4.002837  0  0  -0.091267  -0.120523  0  3.968239  0
C  C77  1  0.97017468  0.72808555  0.36590582  1  0  -0.099963  0  3.732186  0  0  -0.122837  0  3.98219  0  0  -0.12609  0  4.002714  0  0  -0.09124  -0.120474  0  3.968113  0
C  C78  1  0.72809040  0.97016919  0.86590545  1  0  -0.09985  0  3.732106  0  0  -0.122729  0  3.982103  0  0  -0.125979  0  4.002631  0  0  -0.091215  -0.120349  0  3.968037  0
C  C79  1  0.02982371  0.27191697  0.63409388  1  0  -0.099827  0  3.732121  0  0  -0.122714  0  3.982092  0  0  -0.125965  0  4.002616  0  0  -0.091167  -0.120343  0  3.968022  0
C  C80  1  0.37417367  0.06024418  0.13280243  1  0  -0.071972  0  3.76092  0  0  -0.094199  0  4.007997  0  0  -0.094825  0  4.029398  0  0  -0.087209  -0.093554  0  3.993273  0
C  C81  1  0.93975369  0.62582347  0.36719934  1  0  -0.072082  0  3.761018  0  0  -0.094308  0  4.008077  0  0  -0.094929  0  4.029477  0  0  -0.08724  -0.093661  0  3.993354  0
C  C82  1  0.62582473  0.93974813  0.86719875  1  0  -0.07197  0  3.760802  0  0  -0.094168  0  4.007901  0  0  -0.094792  0  4.029303  0  0  -0.087145  -0.093521  0  3.993171  0
C  C83  1  0.06024315  0.37417735  0.63280128  1  0  -0.072254  0  3.761112  0  0  -0.094495  0  4.008186  0  0  -0.095115  0  4.029584  0  0  -0.087322  -0.093847  0  3.993461  0
C  C84  1  0.07386992  0.08144885  0.12315685  1  0  0.29862  0  3.771086  0  0  0.268015  0  4.048306  0  0  0.278977  0  4.065285  0  0  0.207992  0.260839  0  4.03659  0
C  C85  1  0.91855345  0.92612969  0.37684365  1  0  0.298524  0  3.771219  0  0  0.267963  0  4.048419  0  0  0.278929  0  4.065391  0  0  0.207924  0.260788  0  4.036701  0
C  C86  1  0.92612975  0.91854856  0.87684182  1  0  0.298597  0  3.771257  0  0  0.268031  0  4.048451  0  0  0.278996  0  4.065426  0  0  0.207972  0.26087  0  4.036742  0
C  C87  1  0.08144572  0.07387367  0.62315488  1  0  0.298493  0  3.771339  0  0  0.26793  0  4.048485  0  0  0.278888  0  4.065465  0  0  0.207905  0.260761  0  4.036772  0
C  C88  1  0.94585607  0.98935427  0.12424813  1  0  0.261018  0  3.846374  0  0  0.226267  0  4.124512  0  0  0.237583  0  4.141883  0  0  0.205349  0.219046  0  4.11245  0
C  C89  1  0.01064857  0.05414222  0.37575478  1  0  0.261153  0  3.846174  0  0  0.226286  0  4.12447  0  0  0.237605  0  4.141844  0  0  0.205351  0.219061  0  4.11241  0
C  C90  1  0.05413986  0.01064739  0.87575251  1  0  0.261118  0  3.846184  0  0  0.226226  0  4.124514  0  0  0.237544  0  4.141888  0  0  0.205354  0.218996  0  4.112449  0
C  C91  1  0.98935095  0.94585689  0.62424908  1  0  0.261205  0  3.846217  0  0  0.226332  0  4.124504  0  0  0.237651  0  4.141877  0  0  0.205377  0.219114  0  4.112444  0
C  C92  1  0.87599395  0.90541946  0.12822433  1  0  0.116994  0  3.772222  0  0  0.117586  0  4.019025  0  0  0.120741  0  4.038323  0  0  0.126784  0.115009  0  4.00632  0
C  C93  1  0.09457970  0.12400828  0.37178130  1  0  0.11687  0  3.772455  0  0  0.117502  0  4.01931  0  0  0.120644  0  4.038629  0  0  0.126829  0.114932  0  4.006596  0
C  C94  1  0.12400550  0.09458051  0.87177509  1  0  0.116842  0  3.772256  0  0  0.117492  0  4.019085  0  0  0.120638  0  4.038398  0  0  0.12677  0.114941  0  4.006346  0
C  C95  1  0.90541890  0.87599168  0.62822541  1  0  0.116866  0  3.772321  0  0  0.117512  0  4.019149  0  0  0.120657  0  4.038463  0  0  0.126824  0.114924  0  4.006456  0
C  C96  1  0.91342392  0.79224041  0.12901685  1  0  0.069706  0  3.6745  0  0  0.036809  0  3.940973  0  0  0.038589  0  3.956739  0  0  0.059138  0.035601  0  3.930501  0
C  C97  1  0.20776083  0.08657894  0.37098487  1  0  0.069832  0  3.674434  0  0  0.036868  0  3.94096  0  0  0.038646  0  3.956737  0  0  0.059108  0.035655  0  3.930493  0
C  C98  1  0.08657461  0.20776040  0.87098329  1  0  0.069841  0  3.674411  0  0  0.036902  0  3.940909  0  0  0.038686  0  3.956675  0  0  0.059156  0.035683  0  3.930438  0
C  C99  1  0.79224039  0.91342017  0.62901711  1  0  0.069794  0  3.674486  0  0  0.036825  0  3.940989  0  0  0.038605  0  3.956762  0  0  0.059106  0.035615  0  3.930535  0
C  C100  1  0.73551075  0.75931863  0.13887575  1  0  0.06942  0  3.706403  0  0  0.043849  0  3.974136  0  0  0.045515  0  3.991172  0  0  0.055195  0.042667  0  3.962624  0
C  C101  1  0.24068188  0.26449368  0.36112462  1  0  0.069278  0  3.706665  0  0  0.043754  0  3.974355  0  0  0.04542  0  3.991393  0  0  0.055121  0.042576  0  3.96284  0
C  C102  1  0.26448792  0.24068048  0.86112624  1  0  0.069475  0  3.706406  0  0  0.043888  0  3.974154  0  0  0.045553  0  3.991191  0  0  0.055193  0.042707  0  3.96264  0
C  C103  1  0.75932449  0.73550457  0.63887402  1  0  0.069297  0  3.7065  0  0  0.043744  0  3.974235  0  0  0.045401  0  3.99128  0  0  0.05515  0.042566  0  3.962719  0
C  C104  1  0.69701091  0.87226833  0.13685217  1  0  0.095717  0  3.683231  0  0  0.067229  0  3.937808  0  0  0.069805  0  3.955939  0  0  0.062323  0.065426  0  3.925625  0
C  C105  1  0.12773307  0.30299370  0.36315034  1  0  0.095744  0  3.683311  0  0  0.067269  0  3.93786  0  0  0.069845  0  3.955991  0  0  0.062343  0.065464  0  3.925679  0
C  C106  1  0.30298769  0.12773163  0.86315030  1  0  0.095698  0  3.683071  0  0  0.067207  0  3.937653  0  0  0.069784  0  3.955783  0  0  0.062282  0.065404  0  3.925472  0
C  C107  1  0.87227393  0.69700710  0.63685163  1  0  0.095793  0  3.683255  0  0  0.067278  0  3.937833  0  0  0.069857  0  3.955963  0  0  0.062285  0.065475  0  3.925651  0
N  N108  1  0.97923225  0.15414234  0.12491848  1  0  -0.275259  0  3.026228  0  0  -0.234496  0  3.288355  0  0  -0.247138  0  3.306759  0  0  -0.215541  -0.225848  0  3.275789  0
N  N109  1  0.84586214  0.02076857  0.37508211  1  0  -0.27517  0  3.026337  0  0  -0.234445  0  3.288461  0  0  -0.247087  0  3.306862  0  0  -0.215483  -0.225797  0  3.275895  0
N  N110  1  0.02076875  0.84585932  0.87508072  1  0  -0.27526  0  3.026297  0  0  -0.234533  0  3.288443  0  0  -0.247172  0  3.306843  0  0  -0.215533  -0.225884  0  3.275874  0
N  N111  1  0.15414034  0.97923564  0.62491665  1  0  -0.275142  0  3.026276  0  0  -0.234426  0  3.288412  0  0  -0.247064  0  3.306817  0  0  -0.215473  -0.225777  0  3.275843  0
N  N112  1  0.89849262  0.09491211  0.12539911  1  0  -0.317797  0  3.266455  0  0  -0.254272  0  3.559843  0  0  -0.272471  0  3.577637  0  0  -0.250225  -0.24194  0  3.547563  0
N  N113  1  0.90509214  0.10150772  0.37460102  1  0  -0.317879  0  3.266484  0  0  -0.254305  0  3.559893  0  0  -0.272503  0  3.577686  0  0  -0.250233  -0.241973  0  3.547619  0
N  N114  1  0.10150662  0.90509040  0.87460105  1  0  -0.317794  0  3.266369  0  0  -0.254229  0  3.559801  0  0  -0.272428  0  3.577593  0  0  -0.250226  -0.241898  0  3.547525  0
N  N115  1  0.09490879  0.89849479  0.62540007  1  0  -0.317873  0  3.266494  0  0  -0.254316  0  3.559948  0  0  -0.272516  0  3.577743  0  0  -0.250248  -0.241984  0  3.547672  0
N  N116  1  0.05607886  0.97698793  0.12235142  1  0  -0.464641  0  3.02264  0  0  -0.411761  0  3.281753  0  0  -0.430072  0  3.295073  0  0  -0.321808  -0.399336  0  3.272481  0
N  N117  1  0.02301384  0.94391670  0.37765161  1  0  -0.464566  0  3.022497  0  0  -0.411683  0  3.281664  0  0  -0.429995  0  3.294982  0  0  -0.321782  -0.399257  0  3.27239  0
N  N118  1  0.94391636  0.02301204  0.87764990  1  0  -0.464611  0  3.022579  0  0  -0.411707  0  3.281739  0  0  -0.43002  0  3.295058  0  0  -0.321794  -0.399281  0  3.272463  0
N  N119  1  0.97698661  0.05608157  0.62234942  1  0  -0.464668  0  3.022661  0  0  -0.411779  0  3.281812  0  0  -0.430091  0  3.295132  0  0  -0.321813  -0.399353  0  3.272535  0
N  N120  1  0.76696988  0.94457348  0.13156201  1  0  -0.303893  0  3.191868  0  0  -0.245672  0  3.453987  0  0  -0.258249  0  3.469645  0  0  -0.294947  -0.236893  0  3.443483  0
N  N121  1  0.05542717  0.23303306  0.36844331  1  0  -0.303855  0  3.191982  0  0  -0.245593  0  3.454015  0  0  -0.258167  0  3.469676  0  0  -0.294948  -0.236817  0  3.443511  0
N  N122  1  0.23302781  0.05542734  0.86843767  1  0  -0.303827  0  3.191784  0  0  -0.2456  0  3.453884  0  0  -0.258174  0  3.469543  0  0  -0.294904  -0.236831  0  3.443374  0
N  N123  1  0.94457630  0.76696944  0.63156341  1  0  -0.303851  0  3.191848  0  0  -0.245622  0  3.453962  0  0  -0.258197  0  3.46962  0  0  -0.294933  -0.236841  0  3.443465  0
N  N124  1  0.84378643  0.71942343  0.13425880  1  0  -0.251892  0  3.041082  0  0  -0.227009  0  3.3164  0  0  -0.232171  0  3.328921  0  0  -0.30353  -0.223321  0  3.307899  0
N  N125  1  0.28057948  0.15621943  0.36574088  1  0  -0.251933  0  3.041076  0  0  -0.227044  0  3.316419  0  0  -0.232208  0  3.328942  0  0  -0.303521  -0.223357  0  3.307917  0
N  N126  1  0.15621210  0.28057738  0.86574345  1  0  -0.251981  0  3.041026  0  0  -0.227095  0  3.316377  0  0  -0.232256  0  3.328895  0  0  -0.303559  -0.223408  0  3.307876  0
N  N127  1  0.71942597  0.84377968  0.63425708  1  0  -0.251834  0  3.040911  0  0  -0.226948  0  3.316276  0  0  -0.232111  0  3.3288  0  0  -0.303474  -0.22326  0  3.307771  0
O  O128  1  0.51130017  0.30691330  0.10722952  1  0  -0.605536  0  1.9109  0  0  -0.554134  0  2.107731  0  0  -0.577883  0  2.096795  0  0  -0.321213  -0.537653  0  2.114874  0
O  O129  1  0.69309263  0.48869128  0.39277110  1  0  -0.605676  0  1.910682  0  0  -0.554306  0  2.107487  0  0  -0.578055  0  2.096547  0  0  -0.321255  -0.537823  0  2.114628  0
O  O130  1  0.48869533  0.69308326  0.89277620  1  0  -0.605582  0  1.910689  0  0  -0.554217  0  2.107478  0  0  -0.57797  0  2.096536  0  0  -0.321211  -0.537732  0  2.114619  0
O  O131  1  0.30690703  0.51130613  0.60723250  1  0  -0.60567  0  1.910665  0  0  -0.554284  0  2.107498  0  0  -0.578035  0  2.096556  0  0  -0.321243  -0.537801  0  2.114639  0
O  O132  1  0.57217366  0.11891416  0.14127790  1  0  -0.66969  0  2.080614  0  0  -0.599478  0  2.347856  0  0  -0.629482  0  2.334422  0  0  -0.338763  -0.578342  0  2.356124  0
O  O133  1  0.88109463  0.42782698  0.35871878  1  0  -0.669626  0  2.080626  0  0  -0.599469  0  2.347849  0  0  -0.629476  0  2.334411  0  0  -0.338775  -0.578332  0  2.356118  0
O  O134  1  0.42782403  0.88108665  0.85871966  1  0  -0.669582  0  2.08087  0  0  -0.599383  0  2.348077  0  0  -0.629385  0  2.334641  0  0  -0.338729  -0.578246  0  2.356342  0
O  O135  1  0.11890454  0.57217638  0.64128046  1  0  -0.66965  0  2.080635  0  0  -0.59946  0  2.34789  0  0  -0.629474  0  2.334466  0  0  -0.338753  -0.578322  0  2.356156  0
O  O136  1  0.77692092  0.17316584  0.94918679  1  0  -0.806293  0  1.911032  0  0  -0.751364  0  2.111603  0  0  -0.771367  0  2.081772  0  0  -0.572536  -0.737183  0  2.132227  0
O  O137  1  0.82683516  0.22308056  0.55081223  1  0  -0.806348  0  1.910927  0  0  -0.751436  0  2.111512  0  0  -0.771438  0  2.081684  0  0  -0.572573  -0.737256  0  2.132137  0
O  O138  1  0.22307917  0.82683668  0.05081172  1  0  -0.806406  0  1.910886  0  0  -0.751461  0  2.111495  0  0  -0.771464  0  2.081665  0  0  -0.572576  -0.737281  0  2.132121  0
O  O139  1  0.17316422  0.77692025  0.44918908  1  0  -0.806331  0  1.910939  0  0  -0.751413  0  2.111523  0  0  -0.771414  0  2.081696  0  0  -0.572554  -0.737233  0  2.132148  0
O  O140  1  0.72553196  0.31577507  0.08159885  1  0  -0.835867  0  1.872683  0  0  -0.771253  0  2.051545  0  0  -0.792817  0  2.015087  0  0  -0.585092  -0.756078  0  2.077071  0
O  O141  1  0.68422636  0.27446457  0.41840117  1  0  -0.835871  0  1.872694  0  0  -0.771256  0  2.051565  0  0  -0.792816  0  2.015115  0  0  -0.585062  -0.756079  0  2.077094  0
O  O142  1  0.27446657  0.68422574  0.91840199  1  0  -0.835815  0  1.872759  0  0  -0.77121  0  2.051606  0  0  -0.792771  0  2.015158  0  0  -0.585052  -0.756032  0  2.077134  0
O  O143  1  0.31577500  0.72553284  0.58159772  1  0  -0.835782  0  1.872768  0  0  -0.771167  0  2.051628  0  0  -0.792729  0  2.015174  0  0  -0.585035  -0.755991  0  2.077153  0
O  O144  1  0.67488908  0.13124808  0.29496226  1  0  -0.811136  0  1.898934  0  0  -0.751867  0  2.094119  0  0  -0.772043  0  2.063181  0  0  -0.559327  -0.737563  0  2.115546  0
O  O145  1  0.86875008  0.32511205  0.20503711  1  0  -0.811083  0  1.898901  0  0  -0.751816  0  2.094098  0  0  -0.771995  0  2.063161  0  0  -0.559323  -0.737509  0  2.115519  0
O  O146  1  0.32511037  0.86875188  0.70503786  1  0  -0.811078  0  1.898881  0  0  -0.751809  0  2.09406  0  0  -0.771987  0  2.063122  0  0  -0.559307  -0.737504  0  2.115488  0
O  O147  1  0.13124867  0.67488622  0.79496369  1  0  -0.811186  0  1.899017  0  0  -0.751907  0  2.094187  0  0  -0.772084  0  2.06325  0  0  -0.559375  -0.737604  0  2.115619  0
