# generated using pymatgen
data_Co3H46C66(N10O7)2
_symmetry_space_group_name_H-M   'P 1'
_cell_length_a   10.00755106
_cell_length_b   17.78079691
_cell_length_c   17.94657723
_cell_angle_alpha   67.13951624
_cell_angle_beta   75.13650738
_cell_angle_gamma   81.38917386
_symmetry_Int_Tables_number   1
_chemical_formula_structural   Co3H46C66(N10O7)2
_chemical_formula_sum   'Co3 H46 C66 N20 O14'
_cell_volume   2839.66085218
_cell_formula_units_Z   1
loop_
 _symmetry_equiv_pos_site_id
 _symmetry_equiv_pos_as_xyz
  1  'x, y, z'
loop_
 _atom_site_type_symbol
 _atom_site_label
 _atom_site_symmetry_multiplicity
 _atom_site_fract_x
 _atom_site_fract_y
 _atom_site_fract_z
 _atom_site_occupancy
 _atom_site_pbe_bader_charge
 _atom_site_pbe_bader_spin_density
 _atom_site_pbe_cm5_charge
 _atom_site_pbe_ddec_charge
 _atom_site_pbe_ddec_spin_density
 _atom_site_pbe_ddec_sum_bond_order
 _atom_site_pbe_magmom
Co  Co0  1  0.70157907  0.43296598  0.48495427  1  1.285031  2.579187  0.667781  0.894026  2.803829  2.548017  2.56
Co  Co1  1  0.29842734  0.56705007  0.51504233  1  1.285085  2.579234  0.667819  0.894147  2.803924  2.548373  2.56
Co  Co2  1  0.50000972  0.99999558  0.50000243  1  1.291229  2.61719  0.652459  0.931682  2.837766  2.453505  2.601
H  H3  1  0.06616027  0.23095013  0.45704251  1  0.091047  0.000355  0.105444  0.111403  0.000157  1.007061  0.0
H  H4  1  0.46525683  0.24864214  0.49573774  1  0.104016  0.0006  0.104981  0.112334  0.000268  1.01499  0.0
H  H5  1  0.13364484  0.42519938  0.52837010  1  0.128639  -7.7e-05  0.107086  0.117653  -0.000301  1.043719  0.0
H  H6  1  0.76941721  0.55813823  0.28090957  1  0.150102  0.000288  0.150643  0.122381  -0.000218  0.963024  0.0
H  H7  1  0.67871186  0.31117609  0.39485795  1  0.157841  0.000385  0.143157  0.114014  3.1e-05  0.970645  0.0
H  H8  1  0.80942606  0.39881179  0.12293775  1  0.090757  4e-05  0.106021  0.113645  2.1e-05  1.041479  0.0
H  H9  1  0.85198482  0.46912576  0.96962518  1  0.063449  -1e-06  0.107419  0.11735  -3e-06  0.997465  0.0
H  H10  1  0.74718411  0.70147007  0.99906556  1  0.055931  -1e-06  0.11344  0.126496  2e-06  0.977585  0.0
H  H11  1  0.70363843  0.63132411  0.15132046  1  0.077958  1.4e-05  0.111077  0.1183  6e-06  0.998587  0.0
H  H12  1  0.82508780  0.73730617  0.73372314  1  0.10042  -2.4e-05  0.111537  0.126553  -2.9e-05  0.99467  0.0
H  H13  1  0.97571993  0.85135420  0.65375144  1  0.091497  8.2e-05  0.111993  0.123231  3.4e-05  0.996579  0.0
H  H14  1  0.15857875  0.79831423  0.86297289  1  0.103443  3.2e-05  0.114269  0.124175  1.5e-05  0.981901  0.0
H  H15  1  0.00714757  0.68213942  0.94442785  1  0.081561  1.2e-05  0.104864  0.113317  2e-06  1.009414  0.0
H  H16  1  0.25292769  0.86338009  0.59343033  1  0.143865  0.000117  0.147832  0.113941  -0.000365  0.979582  0.0
H  H17  1  0.35979997  0.03423555  0.67363093  1  0.122551  0.000214  0.145467  0.1169  -6.8e-05  0.952698  0.0
H  H18  1  0.99957949  0.59507078  0.75929416  1  0.089579  -5.1e-05  0.105527  0.11364  -6.8e-05  1.02332  0.0
H  H19  1  0.94150180  0.52167733  0.68101640  1  0.115689  3e-05  0.107665  0.12011  -0.000106  1.031642  0.0
H  H20  1  0.52718763  0.49539652  0.83364549  1  0.128396  4.2e-05  0.105161  0.11204  2.3e-05  1.041218  0.0
H  H21  1  0.58697182  0.57027893  0.91160474  1  0.066119  -4e-06  0.109456  0.119868  -4e-06  0.982693  0.0
H  H22  1  0.86299976  0.48441948  0.59904139  1  0.205401  0.000855  0.142694  0.120917  0.000241  1.029411  0.0
H  H23  1  0.48104347  0.37876815  0.66639870  1  0.136398  0.000341  0.13723  0.10581  -7.5e-05  0.990531  0.0
H  H24  1  0.31719992  0.04982315  0.41631529  1  0.652503  0.000165  0.276232  0.370137  0.000211  0.984829  0.0
H  H25  1  0.31247651  0.95223688  0.44238172  1  0.564944  0.000731  0.314704  0.388331  0.000222  0.897351  0.0
H  H26  1  0.93385489  0.76903780  0.54295805  1  0.090868  0.000355  0.105483  0.111505  0.000157  1.006937  0.0
H  H27  1  0.53475037  0.75134273  0.50427517  1  0.104092  0.000601  0.105023  0.112313  0.000268  1.015055  0.0
H  H28  1  0.86637091  0.57479343  0.47163073  1  0.128613  -7.7e-05  0.107066  0.117612  -0.000302  1.043759  0.0
H  H29  1  0.23058308  0.44186560  0.71909371  1  0.15005  0.000288  0.15073  0.122459  -0.000218  0.963144  0.0
H  H30  1  0.32126727  0.68881006  0.60514682  1  0.157882  0.000386  0.143212  0.113921  3.1e-05  0.970803  0.0
H  H31  1  0.19057866  0.60118838  0.87705627  1  0.091112  4e-05  0.105944  0.11348  2.1e-05  1.041506  0.0
H  H32  1  0.14802149  0.53087990  0.03037208  1  0.06369  -1e-06  0.107423  0.117454  -3e-06  0.99737  0.0
H  H33  1  0.25281862  0.29852948  0.00093400  1  0.055906  -1e-06  0.113452  0.126516  2e-06  0.977636  0.0
H  H34  1  0.29636119  0.36867546  0.84867731  1  0.077927  1.4e-05  0.111117  0.118373  6e-06  0.998547  0.0
H  H35  1  0.17491595  0.26269339  0.26627404  1  0.100633  -2.4e-05  0.111515  0.126504  -2.9e-05  0.994697  0.0
H  H36  1  0.02428394  0.14864414  0.34624619  1  0.091451  8.2e-05  0.111979  0.1232  3.4e-05  0.996615  0.0
H  H37  1  0.84142385  0.20168656  0.13702343  1  0.103378  3.2e-05  0.114301  0.124201  1.5e-05  0.981939  0.0
H  H38  1  0.99285183  0.31786259  0.05557069  1  0.081786  1.2e-05  0.104864  0.113454  2e-06  1.00938  0.0
H  H39  1  0.74708435  0.13661945  0.40656845  1  0.143829  0.000117  0.147828  0.113944  -0.000365  0.979606  0.0
H  H40  1  0.64019742  0.96576584  0.32636814  1  0.122559  0.000214  0.145461  0.116853  -6.8e-05  0.952738  0.0
H  H41  1  0.00041819  0.40492756  0.24070827  1  0.089938  -5.1e-05  0.105543  0.113656  -6.8e-05  1.023284  0.0
H  H42  1  0.05850414  0.47832100  0.31898427  1  0.115582  3e-05  0.107632  0.120015  -0.000106  1.031784  0.0
H  H43  1  0.47281190  0.50460426  0.16635573  1  0.128396  4.2e-05  0.105168  0.112041  2.3e-05  1.041217  0.0
H  H44  1  0.41302988  0.42972063  0.08839553  1  0.066028  -4e-06  0.109453  0.119855  -4e-06  0.982703  0.0
H  H45  1  0.13701988  0.51557579  0.40095180  1  0.205417  0.000854  0.14276  0.120934  0.000241  1.029645  0.0
H  H46  1  0.51893429  0.62123268  0.33359561  1  0.136526  0.000341  0.137237  0.105845  -7.5e-05  0.990708  0.0
H  H47  1  0.68280277  0.95017701  0.58368794  1  0.652632  0.000164  0.276232  0.370131  0.00021  0.984801  0.0
H  H48  1  0.68753135  0.04776328  0.55762133  1  0.564614  0.000731  0.314713  0.388274  0.000223  0.897294  0.0
C  C49  1  0.94222335  0.36779559  0.48664315  1  1.517258  -0.00496  0.191238  0.548417  -0.006771  4.217021  -0.006
C  C50  1  0.08524357  0.33208877  0.49155280  1  0.009765  0.003712  -0.020448  -0.026655  0.001926  4.004936  0.003
C  C51  1  0.13402307  0.26211689  0.47303377  1  -0.05244  -0.001313  -0.071768  -0.09553  -0.001948  3.915361  -0.001
C  C52  1  0.27100582  0.23175518  0.47479320  1  -0.001522  0.005816  -0.021308  -0.040274  0.002973  3.984594  0.005
C  C53  1  0.35869275  0.27214945  0.49456269  1  -0.065444  -0.000597  -0.075014  -0.097096  -0.001214  3.921317  -0.001
C  C54  1  0.31026906  0.34234190  0.51309504  1  0.038646  0.009189  -0.025521  -0.046791  0.004507  4.006872  0.008
C  C55  1  0.17260008  0.37136790  0.51272966  1  -0.114882  -0.002199  -0.080301  -0.120542  -0.002938  3.941858  -0.001
C  C56  1  0.32218424  0.15551003  0.45657063  1  1.567554  0.000592  0.208533  0.582051  -0.000585  4.194931  0.0
C  C57  1  0.40566395  0.38927683  0.52832510  1  1.557139  0.00224  0.214003  0.584366  0.000421  4.168203  0.004
C  C58  1  0.74625691  0.49663917  0.29200331  1  0.977534  -0.009197  0.164743  0.09227  -0.010896  3.897779  -0.006
C  C59  1  0.70171011  0.37091066  0.34760867  1  0.978067  -0.002663  0.153056  0.152105  -0.003138  3.981241  -0.002
C  C60  1  0.75880023  0.51072028  0.14591299  1  0.220614  0.00041  0.088689  0.123417  9.7e-05  4.04674  0.0
C  C61  1  0.79643710  0.46499847  0.09483008  1  0.080244  -0.000407  -0.0883  -0.141703  -0.000482  3.993283  0.0
C  C62  1  0.81969332  0.50457702  0.00953974  1  -0.092381  6.8e-05  -0.093654  -0.159407  -5.2e-05  3.998744  0.0
C  C63  1  0.80469998  0.59023589  0.97366596  1  0.390105  -0.001001  0.093589  0.173965  -0.001143  4.037877  -0.001
C  C64  1  0.76322011  0.63526427  0.02590295  1  0.021001  0.00027  -0.091803  -0.159344  9.1e-05  3.991625  0.0
C  C65  1  0.74051649  0.59593175  0.11154846  1  0.013704  -0.000815  -0.089828  -0.158858  -0.000863  4.023097  0.0
C  C66  1  0.90876641  0.69890869  0.84414555  1  0.335432  -0.00034  0.097657  0.181122  -0.000397  4.026445  0.0
C  C67  1  0.89939238  0.74887694  0.76242902  1  0.021642  0.000117  -0.091476  -0.156689  4.2e-05  3.973422  0.0
C  C68  1  0.98554175  0.81327425  0.71679518  1  -0.050058  -0.000148  -0.084437  -0.145857  -0.000176  4.001796  0.0
C  C69  1  0.08078144  0.82948909  0.75284753  1  0.302947  0.000574  0.086036  0.118488  0.000292  4.048095  0.001
C  C70  1  0.08537904  0.78387240  0.83549932  1  -0.034223  -8.8e-05  -0.083157  -0.133483  -0.000153  4.002606  0.0
C  C71  1  0.00017459  0.71897928  0.88076697  1  0.008596  0.000164  -0.099423  -0.176053  6.2e-05  4.010796  0.0
C  C72  1  0.25556921  0.90142398  0.62771250  1  0.981185  -0.00726  0.16206  0.082807  -0.008979  3.911974  -0.004
C  C73  1  0.30834983  0.98580558  0.67159678  1  1.006641  -0.002311  0.15126  0.15758  -0.002784  3.97277  -0.001
C  C74  1  0.79736898  0.58725570  0.84075126  1  0.376943  -0.001271  0.089334  0.164602  -0.001437  4.042744  -0.001
C  C75  1  0.89637997  0.57281256  0.77588245  1  -0.055887  0.000182  -0.09218  -0.152689  -1.2e-05  3.988885  0.0
C  C76  1  0.86342629  0.53141799  0.73189107  1  0.005478  -0.001085  -0.091379  -0.158668  -0.001201  3.988892  -0.001
C  C77  1  0.73012826  0.50341095  0.75338617  1  0.270325  0.000422  0.095076  0.138417  9.4e-05  4.016804  0.0
C  C78  1  0.63071017  0.51662706  0.81852393  1  -0.007946  -0.000432  -0.087865  -0.140816  -0.000514  3.985408  0.0
C  C79  1  0.66452576  0.55870151  0.86159058  1  -0.035954  8.8e-05  -0.090061  -0.151723  -4.6e-05  3.989795  0.0
C  C80  1  0.76150869  0.46113802  0.63217295  1  0.9621  -0.006642  0.165572  0.10103  -0.008048  3.842389  -0.004
C  C81  1  0.56705874  0.40766732  0.66858554  1  1.002031  -0.001601  0.15109  0.157311  -0.002245  3.996075  -0.001
C  C82  1  0.05778792  0.63221251  0.51335469  1  1.515377  -0.004968  0.19106  0.547757  -0.006782  4.217094  -0.006
C  C83  1  0.91475229  0.66791813  0.50844660  1  0.00992  0.003716  -0.020464  -0.026723  0.001928  4.0047  0.003
C  C84  1  0.86595713  0.73789187  0.52696885  1  -0.052849  -0.001334  -0.071651  -0.095351  -0.001968  3.915147  -0.001
C  C85  1  0.72897790  0.76824929  0.52521614  1  -0.000975  0.005818  -0.021463  -0.040632  0.002974  3.985116  0.005
C  C86  1  0.64131339  0.72784703  0.50544536  1  -0.065481  -0.000611  -0.075077  -0.096984  -0.001228  3.921628  -0.001
C  C87  1  0.68973115  0.65766255  0.48690244  1  0.038389  0.009193  -0.025497  -0.046684  0.004508  4.006775  0.008
C  C88  1  0.82740567  0.62863227  0.48726365  1  -0.114593  -0.002222  -0.080294  -0.120489  -0.002961  3.941673  -0.001
C  C89  1  0.67780633  0.84448709  0.54343719  1  1.56768  0.000588  0.208549  0.582282  -0.000588  4.195  0.0
C  C90  1  0.59431483  0.61072519  0.47168923  1  1.557007  0.002193  0.213576  0.583494  0.000385  4.168011  0.004
C  C91  1  0.25374193  0.50335735  0.70799129  1  0.976956  -0.009199  0.164731  0.092255  -0.010893  3.8982  -0.006
C  C92  1  0.29827345  0.62908343  0.65238906  1  0.978187  -0.002664  0.153075  0.15211  -0.00314  3.981823  -0.002
C  C93  1  0.24119927  0.48928051  0.85408266  1  0.22075  0.000411  0.088705  0.123431  9.8e-05  4.046696  0.0
C  C94  1  0.20356563  0.53500109  0.90516948  1  0.080085  -0.000407  -0.088205  -0.141389  -0.000482  3.993066  0.0
C  C95  1  0.18031655  0.49542374  0.99046055  1  -0.092686  6.7e-05  -0.093717  -0.159701  -5.2e-05  3.998779  0.0
C  C96  1  0.19530275  0.40976367  0.02633304  1  0.390146  -0.001001  0.093615  0.174105  -0.001143  4.0378  -0.001
C  C97  1  0.23678268  0.36473468  0.97409739  1  0.021058  0.00027  -0.091852  -0.15946  9.1e-05  3.991703  0.0
C  C98  1  0.25948417  0.40406781  0.88845140  1  0.01353  -0.000815  -0.089848  -0.158919  -0.000863  4.023066  0.0
C  C99  1  0.09122896  0.30109211  0.15585404  1  0.335428  -0.000341  0.09772  0.181161  -0.000397  4.026481  0.0
C  C100  1  0.10060725  0.25112263  0.23757098  1  0.021427  0.000118  -0.091429  -0.15654  4.2e-05  3.973401  0.0
C  C101  1  0.01445776  0.18672654  0.28320382  1  -0.050041  -0.000148  -0.084472  -0.1459  -0.000176  4.001949  0.0
C  C102  1  0.91921899  0.17051291  0.24715086  1  0.302984  0.000575  0.086092  0.118554  0.000292  4.048106  0.001
C  C103  1  0.91462162  0.21612717  0.16449886  1  -0.034217  -8.8e-05  -0.083251  -0.133536  -0.000153  4.002762  0.0
C  C104  1  0.99982394  0.28102089  0.11923240  1  0.008357  0.000164  -0.099437  -0.176298  6.2e-05  4.011033  0.0
C  C105  1  0.74443667  0.09857496  0.37228516  1  0.981301  -0.007259  0.162035  0.082676  -0.008978  3.912112  -0.004
C  C106  1  0.69165278  0.01419520  0.32840176  1  1.006421  -0.002312  0.151305  0.157676  -0.002785  3.972763  -0.001
C  C107  1  0.20262720  0.41274753  0.15924560  1  0.376551  -0.001271  0.089275  0.164488  -0.001438  4.042606  -0.001
C  C108  1  0.10361655  0.42718701  0.22411633  1  -0.056327  0.000182  -0.09221  -0.152677  -1.2e-05  3.988845  0.0
C  C109  1  0.13657252  0.46857913  0.26810887  1  0.005842  -0.001086  -0.091359  -0.158538  -0.001201  3.988813  -0.001
C  C110  1  0.26987035  0.49658861  0.24661677  1  0.270214  0.000422  0.095066  0.138329  9.5e-05  4.016469  0.0
C  C111  1  0.36929060  0.48337128  0.18147694  1  -0.007863  -0.000432  -0.087884  -0.140776  -0.000514  3.985165  0.0
C  C112  1  0.33547260  0.44130051  0.13840644  1  -0.035538  8.8e-05  -0.090025  -0.151649  -4.6e-05  3.989654  0.0
C  C113  1  0.23848740  0.53886643  0.36782959  1  0.96231  -0.006643  0.165583  0.101174  -0.00805  3.842744  -0.004
C  C114  1  0.43293103  0.59233836  0.33141521  1  1.001876  -0.001602  0.151081  0.157233  -0.002246  3.996612  -0.001
N  N115  1  0.72209570  0.43589604  0.36541529  1  -1.174914  0.043544  -0.339254  -0.315959  0.022951  3.576733  0.04
N  N116  1  0.73946336  0.46899843  0.23260770  1  -0.859345  0.000202  -0.12177  0.123291  -0.00037  3.79238  0.001
N  N117  1  0.71146374  0.38799250  0.26772644  1  -0.684898  0.004479  -0.225661  -0.269782  0.002306  3.091569  0.004
N  N118  1  0.83063426  0.62902354  0.88653417  1  -1.214688  -0.000108  -0.252427  -0.152263  -6.9e-05  3.671674  0.0
N  N119  1  0.17747990  0.89034326  0.70444304  1  -0.863188  6.7e-05  -0.117767  0.137151  -0.000512  3.783138  0.0
N  N120  1  0.21112668  0.94372696  0.73375851  1  -0.668084  0.004717  -0.231858  -0.280085  0.002395  3.060298  0.004
N  N121  1  0.33907539  0.96180547  0.60503845  1  -1.193513  0.046538  -0.340497  -0.325973  0.024811  3.571887  0.04
N  N122  1  0.68263160  0.42659311  0.60602568  1  -1.202546  0.040874  -0.339448  -0.325843  0.02069  3.560099  0.039
N  N123  1  0.69335701  0.46408157  0.70695425  1  -0.858796  0.00075  -0.117174  0.138837  -3.3e-05  3.747568  0.001
N  N124  1  0.56836302  0.42957248  0.73097591  1  -0.703397  0.003169  -0.230019  -0.283856  0.001626  3.119656  0.002
N  N125  1  0.27789174  0.56410109  0.63458796  1  -1.174672  0.043572  -0.339363  -0.315981  0.022964  3.577376  0.04
N  N126  1  0.26053678  0.53099503  0.76738566  1  -0.859616  0.000203  -0.121881  0.123028  -0.00037  3.792495  0.001
N  N127  1  0.28852785  0.61200403  0.73226530  1  -0.684522  0.004479  -0.225662  -0.269573  0.002306  3.091454  0.004
N  N128  1  0.16936318  0.37097725  0.11346345  1  -1.214609  -0.000108  -0.252392  -0.152273  -6.8e-05  3.671622  0.0
N  N129  1  0.82252162  0.10965813  0.29555487  1  -0.863282  6.7e-05  -0.117686  0.13725  -0.000512  3.783044  0.0
N  N130  1  0.78887490  0.05627383  0.26623963  1  -0.667907  0.004717  -0.23189  -0.280116  0.002394  3.060232  0.004
N  N131  1  0.66093262  0.03819286  0.39496137  1  -1.193467  0.046536  -0.34052  -0.325902  0.024809  3.571919  0.04
N  N132  1  0.31737181  0.57341012  0.39396903  1  -1.202574  0.040892  -0.339442  -0.325884  0.020701  3.560291  0.039
N  N133  1  0.30663317  0.53591983  0.29305198  1  -0.858901  0.000751  -0.117128  0.138768  -3.3e-05  3.747548  0.001
N  N134  1  0.43162579  0.57043259  0.26902855  1  -0.703565  0.003169  -0.230151  -0.283905  0.001626  3.119799  0.002
O  O135  1  0.84174296  0.32283591  0.50654160  1  -1.140156  0.081248  -0.320829  -0.536661  0.041596  2.149532  0.069
O  O136  1  0.92264218  0.44618961  0.46175019  1  -1.148921  0.078481  -0.319741  -0.564264  0.040429  2.22925  0.068
O  O137  1  0.25019630  0.13043957  0.42274800  1  -1.173485  0.005882  -0.325729  -0.551195  0.00237  2.142404  0.005
O  O138  1  0.43564603  0.12059404  0.47764449  1  -1.165648  0.074281  -0.329249  -0.584505  0.038185  2.334869  0.063
O  O139  1  0.35460388  0.44846820  0.55279833  1  -1.176464  0.089569  -0.324536  -0.589743  0.045572  2.445352  0.073
O  O140  1  0.53389549  0.36750925  0.51619790  1  -1.154065  0.092588  -0.304021  -0.533522  0.048549  2.376261  0.077
O  O141  1  0.37631140  0.99582683  0.41952505  1  -1.204816  0.062224  -0.571889  -0.763845  0.032282  2.096816  0.049
O  O142  1  0.15828213  0.67716790  0.49345422  1  -1.138426  0.081277  -0.320666  -0.536308  0.041611  2.149514  0.069
O  O143  1  0.07739271  0.55381970  0.53823318  1  -1.148837  0.078477  -0.319754  -0.564065  0.040428  2.229423  0.068
O  O144  1  0.74981319  0.86955387  0.57725238  1  -1.173535  0.005883  -0.325771  -0.551369  0.00237  2.14227  0.005
O  O145  1  0.56435452  0.87940674  0.52235492  1  -1.165809  0.074297  -0.329224  -0.58449  0.038195  2.335056  0.063
O  O146  1  0.64537114  0.55154115  0.44721540  1  -1.176559  0.089572  -0.324435  -0.58941  0.045567  2.445699  0.073
O  O147  1  0.46605135  0.63247998  0.48382204  1  -1.153955  0.092668  -0.303697  -0.532988  0.04859  2.375796  0.077
O  O148  1  0.62369761  0.00417210  0.58047830  1  -1.204643  0.062224  -0.571909  -0.763749  0.032279  2.096731  0.049
