# generated using pymatgen
data_ZnH18C22(NO)4
_symmetry_space_group_name_H-M   'P 1'
_cell_length_a   10.46096483
_cell_length_b   10.42997782
_cell_length_c   10.74053860
_cell_angle_alpha   60.95175223
_cell_angle_beta   84.43449004
_cell_angle_gamma   78.47828944
_symmetry_Int_Tables_number   1
_chemical_formula_structural   ZnH18C22(NO)4
_chemical_formula_sum   'Zn2 H36 C44 N8 O8'
_cell_volume   1003.82202531
_cell_formula_units_Z   2
loop_
 _symmetry_equiv_pos_site_id
 _symmetry_equiv_pos_as_xyz
  1  'x, y, z'
loop_
 _atom_site_type_symbol
 _atom_site_label
 _atom_site_symmetry_multiplicity
 _atom_site_fract_x
 _atom_site_fract_y
 _atom_site_fract_z
 _atom_site_occupancy
 _atom_site_hle17_bader_spin_density
 _atom_site_hle17_ddec_charge
 _atom_site_hle17_ddec_spin_density
 _atom_site_hle17_ddec_sum_bond_order
 _atom_site_hle17_magmom
 _atom_site_hse06_10hf_bader_spin_density
 _atom_site_hse06_10hf_ddec_charge
 _atom_site_hse06_10hf_ddec_spin_density
 _atom_site_hse06_10hf_ddec_sum_bond_order
 _atom_site_hse06_10hf_magmom
 _atom_site_hse06_bader_spin_density
 _atom_site_hse06_ddec_charge
 _atom_site_hse06_ddec_spin_density
 _atom_site_hse06_ddec_sum_bond_order
 _atom_site_hse06_magmom
 _atom_site_pbe_bader_spin_density
 _atom_site_pbe_cm5_charge
 _atom_site_pbe_ddec_charge
 _atom_site_pbe_ddec_spin_density
 _atom_site_pbe_ddec_sum_bond_order
 _atom_site_pbe_magmom
Zn  Zn0  1  0.69916315  0.86295318  0.60413336  1  0  0.99836  0  1.888209  0  0  0.810752  0  2.363735  0  0  0.857032  0  2.309584  0  0  0.693588  0.778312  0  2.401552  0
Zn  Zn1  1  0.19916447  0.46708687  0.39586533  1  0  0.998342  0  1.888269  0  0  0.810733  0  2.363787  0  0  0.857  0  2.309637  0  0  0.693566  0.778286  0  2.401609  0
H  H2  1  0.34864076  0.40300330  0.79801767  1  0  0.082254  0  0.971803  0  0  0.0918  0  1.038035  0  0  0.094949  0  1.036465  0  0  0.096072  0.089578  0  1.039242  0
H  H3  1  0.84864414  0.20101925  0.20198522  1  0  0.082245  0  0.971773  0  0  0.091795  0  1.038003  0  0  0.094942  0  1.036435  0  0  0.096072  0.089571  0  1.039209  0
H  H4  1  0.37515592  0.42615907  0.01474022  1  0  0.093226  0  0.945944  0  0  0.105507  0  1.001976  0  0  0.10828  0  1.000971  0  0  0.101871  0.103452  0  1.002889  0
H  H5  1  0.87515815  0.44089831  0.98525731  1  0  0.093158  0  0.945964  0  0  0.105468  0  1.001968  0  0  0.108233  0  1.000973  0  0  0.101862  0.103412  0  1.002879  0
H  H6  1  0.20096442  0.57846039  0.08299840  1  0  0.09891  0  0.99055  0  0  0.105743  0  1.05755  0  0  0.109505  0  1.055096  0  0  0.096786  0.102851  0  1.059719  0
H  H7  1  0.70096362  0.66145465  0.91699755  1  0  0.098923  0  0.990605  0  0  0.105789  0  1.05756  0  0  0.109553  0  1.055106  0  0  0.09683  0.102899  0  1.059727  0
H  H8  1  0.99951676  0.71327677  0.93132199  1  0  0.092193  0  0.969458  0  0  0.100552  0  1.035317  0  0  0.103766  0  1.033664  0  0  0.098468  0.098491  0  1.036138  0
H  H9  1  0.49951766  0.64459663  0.06867433  1  0  0.092093  0  0.96953  0  0  0.100481  0  1.035377  0  0  0.103683  0  1.03372  0  0  0.098457  0.098418  0  1.036196  0
H  H10  1  0.55952843  0.34785437  0.82553505  1  0  0.088734  0  0.965002  0  0  0.101174  0  1.024682  0  0  0.103698  0  1.023947  0  0  0.098435  0.099287  0  1.025386  0
H  H11  1  0.05952644  0.17339008  0.17446467  1  0  0.08877  0  0.964906  0  0  0.101198  0  1.024603  0  0  0.103723  0  1.023866  0  0  0.098459  0.099311  0  1.025306  0
H  H12  1  0.58751011  0.16314911  0.08131841  1  0  0.103002  0  0.954053  0  0  0.113731  0  1.013046  0  0  0.116685  0  1.012018  0  0  0.102096  0.111468  0  1.01393  0
H  H13  1  0.08750844  0.24446813  0.91868242  1  0  0.103008  0  0.954033  0  0  0.113734  0  1.013023  0  0  0.116695  0  1.011995  0  0  0.102091  0.111471  0  1.013904  0
H  H14  1  0.91651696  0.90972054  0.97745255  1  0  0.08954  0  0.968319  0  0  0.099659  0  1.03034  0  0  0.102439  0  1.029106  0  0  0.099351  0.097692  0  1.031215  0
H  H15  1  0.41651433  0.88717149  0.02254983  1  0  0.089542  0  0.968338  0  0  0.099691  0  1.030315  0  0  0.102472  0  1.029079  0  0  0.09936  0.097726  0  1.03119  0
H  H16  1  0.88289983  0.08723822  0.72296251  1  0  0.091149  0  0.967221  0  0  0.103629  0  1.02732  0  0  0.10576  0  1.027359  0  0  0.099684  0.101943  0  1.027723  0
H  H17  1  0.38289806  0.81019860  0.27703991  1  0  0.091124  0  0.967242  0  0  0.103597  0  1.02736  0  0  0.105729  0  1.027399  0  0  0.099675  0.10191  0  1.027763  0
H  H18  1  0.78904118  0.32781899  0.53836161  1  0  0.085413  0  0.935808  0  0  0.100812  0  0.998623  0  0  0.101361  0  0.998517  0  0  0.112592  0.100187  0  0.998811  0
H  H19  1  0.28903938  0.86618009  0.46163859  1  0  0.085399  0  0.935855  0  0  0.100798  0  0.998636  0  0  0.101356  0  0.998534  0  0  0.112587  0.100173  0  0.998824  0
H  H20  1  0.62292460  0.31520376  0.55269300  1  0  0.108229  0  0.960683  0  0  0.122088  0  1.02315  0  0  0.123979  0  1.021611  0  0  0.116876  0.120745  0  1.023976  0
H  H21  1  0.12292398  0.86789580  0.44731027  1  0  0.108307  0  0.960651  0  0  0.122144  0  1.023104  0  0  0.124043  0  1.021574  0  0  0.116899  0.1208  0  1.023929  0
H  H22  1  0.81996764  0.96620124  0.25744513  1  0  0.094231  0  0.914174  0  0  0.110934  0  0.975011  0  0  0.111424  0  0.974602  0  0  0.120213  0.110441  0  0.97535  0
H  H23  1  0.31996867  0.22364653  0.74255707  1  0  0.094206  0  0.914201  0  0  0.110919  0  0.975021  0  0  0.111406  0  0.974615  0  0  0.120216  0.110426  0  0.975363  0
H  H24  1  0.67955970  0.89768458  0.25839243  1  0  0.096853  0  0.92745  0  0  0.110947  0  0.990103  0  0  0.111712  0  0.990068  0  0  0.116024  0.110638  0  0.989672  0
H  H25  1  0.17955964  0.15607960  0.74160657  1  0  0.096868  0  0.927438  0  0  0.110964  0  0.990085  0  0  0.111727  0  0.99005  0  0  0.116034  0.110655  0  0.989655  0
H  H26  1  0.83515841  0.52963362  0.63236395  1  0  0.120288  0  0.948393  0  0  0.127149  0  1.013654  0  0  0.130388  0  1.009954  0  0  0.137667  0.124386  0  1.016686  0
H  H27  1  0.33515817  0.16199749  0.36763607  1  0  0.120295  0  0.948434  0  0  0.127171  0  1.013686  0  0  0.130408  0  1.009986  0  0  0.13768  0.12441  0  1.01672  0
H  H28  1  0.48120412  0.82256631  0.45908120  1  0  0.104071  0  0.985269  0  0  0.111472  0  1.050186  0  0  0.114512  0  1.047918  0  0  0.11637  0.109286  0  1.051902  0
H  H29  1  0.98120264  0.28165014  0.54091560  1  0  0.104029  0  0.985306  0  0  0.111435  0  1.050218  0  0  0.114473  0  1.047951  0  0  0.116357  0.109248  0  1.051933  0
H  H30  1  0.46719793  0.54309216  0.48619912  1  0  0.136044  0  0.970308  0  0  0.142355  0  1.034746  0  0  0.145766  0  1.032584  0  0  0.124616  0.139507  0  1.03711  0
H  H31  1  0.96719802  0.02929554  0.51379578  1  0  0.136068  0  0.970328  0  0  0.142372  0  1.034773  0  0  0.145785  0  1.032611  0  0  0.124634  0.139524  0  1.037136  0
H  H32  1  0.02838800  0.79013779  0.32037941  1  0  0.10641  0  0.949427  0  0  0.115487  0  1.0134  0  0  0.117678  0  1.010845  0  0  0.139939  0.113828  0  1.01525  0
H  H33  1  0.52838742  0.11052018  0.67961611  1  0  0.1064  0  0.949467  0  0  0.115532  0  1.013365  0  0  0.117724  0  1.010811  0  0  0.139954  0.113877  0  1.015212  0
H  H34  1  0.94709529  0.45578232  0.24102049  1  0  0.100922  0  0.968761  0  0  0.110199  0  1.029609  0  0  0.111576  0  1.031038  0  0  0.115692  0.109197  0  1.028724  0
H  H35  1  0.44709393  0.69680335  0.75898084  1  0  0.100914  0  0.96878  0  0  0.110192  0  1.029628  0  0  0.11157  0  1.031058  0  0  0.115697  0.10919  0  1.028742  0
H  H36  1  0.73134589  0.68142272  0.16674721  1  0  0.115901  0  0.967633  0  0  0.127393  0  1.025454  0  0  0.129437  0  1.025584  0  0  0.121863  0.126  0  1.025343  0
H  H37  1  0.23134434  0.84817085  0.83325516  1  0  0.115898  0  0.967591  0  0  0.127383  0  1.025436  0  0  0.129418  0  1.025574  0  0  0.121834  0.125989  0  1.025324  0
C  C38  1  0.06353482  0.63607907  0.77980915  1  0  -0.083003  0  3.751681  0  0  -0.067861  0  3.982254  0  0  -0.074703  0  4.004269  0  0  -0.019019  -0.063535  0  3.967718  0
C  C39  1  0.56353491  0.41588943  0.22018999  1  0  -0.083039  0  3.751747  0  0  -0.067892  0  3.982319  0  0  -0.074736  0  4.004333  0  0  -0.019033  -0.063576  0  3.967797  0
C  C40  1  0.16069633  0.54507129  0.74378286  1  0  -0.050735  0  3.722739  0  0  -0.035181  0  3.952908  0  0  -0.038514  0  3.973096  0  0  -0.009301  -0.032908  0  3.939302  0
C  C41  1  0.66069520  0.28885303  0.25621765  1  0  -0.050788  0  3.722791  0  0  -0.035227  0  3.952943  0  0  -0.03856  0  3.973133  0  0  -0.009315  -0.032951  0  3.939338  0
C  C42  1  0.27320967  0.47194597  0.82777037  1  0  -0.100718  0  3.76412  0  0  -0.122957  0  4.015221  0  0  -0.125298  0  4.035846  0  0  -0.092492  -0.121373  0  4.001149  0
C  C43  1  0.77320970  0.29971587  0.17223050  1  0  -0.100722  0  3.76411  0  0  -0.122967  0  4.015224  0  0  -0.125308  0  4.035847  0  0  -0.092496  -0.121381  0  4.001144  0
C  C44  1  0.28747468  0.48379715  0.94941016  1  0  -0.053588  0  3.756065  0  0  -0.067056  0  4.005454  0  0  -0.067015  0  4.024704  0  0  -0.087321  -0.066957  0  3.992398  0
C  C45  1  0.78747645  0.43320493  0.05059005  1  0  -0.053495  0  3.756032  0  0  -0.066979  0  4.005434  0  0  -0.066932  0  4.024687  0  0  -0.087305  -0.066878  0  3.992372  0
C  C46  1  0.18860671  0.56936018  0.98836645  1  0  -0.081372  0  3.768237  0  0  -0.096  0  4.019232  0  0  -0.098188  0  4.038564  0  0  -0.097683  -0.094493  0  4.006376  0
C  C47  1  0.68860579  0.55772505  0.01162965  1  0  -0.081374  0  3.768218  0  0  -0.096038  0  4.019235  0  0  -0.098228  0  4.03856  0  0  -0.097684  -0.09453  0  4.006373  0
C  C48  1  0.07755201  0.64505222  0.90355918  1  0  -0.086704  0  3.765153  0  0  -0.108078  0  4.013335  0  0  -0.107878  0  4.032543  0  0  -0.091104  -0.10804  0  4.000001  0
C  C49  1  0.57755283  0.54861020  0.09644162  1  0  -0.086612  0  3.765146  0  0  -0.108017  0  4.013365  0  0  -0.107798  0  4.032558  0  0  -0.091128  -0.107975  0  4.000032  0
C  C50  1  0.94923058  0.72922005  0.68376830  1  0  0.632622  0  3.929312  0  0  0.583646  0  4.222364  0  0  0.617291  0  4.215237  0  0  0.199122  0.560846  0  4.226429  0
C  C51  1  0.44923302  0.41298822  0.31623169  1  0  0.632727  0  3.929305  0  0  0.583739  0  4.222367  0  0  0.617382  0  4.215245  0  0  0.199137  0.560943  0  4.226439  0
C  C52  1  0.14100163  0.50766760  0.62909000  1  0  0.651574  0  3.931729  0  0  0.598112  0  4.236398  0  0  0.632491  0  4.227193  0  0  0.201465  0.574448  0  4.241973  0
C  C53  1  0.64100191  0.13675595  0.37091179  1  0  0.65163  0  3.931666  0  0  0.598181  0  4.23631  0  0  0.63256  0  4.227106  0  0  0.201513  0.574517  0  4.241884  0
C  C54  1  0.71919312  0.23094398  0.75532195  1  0  0.06321  0  3.761609  0  0  0.080646  0  4.00638  0  0  0.079702  0  4.031355  0  0  -0.016011  0.0813  0  3.989381  0
C  C55  1  0.21919145  0.98626550  0.24468066  1  0  0.063253  0  3.761497  0  0  0.080696  0  4.0062  0  0  0.079769  0  4.031181  0  0  -0.016035  0.08135  0  3.9892  0
C  C56  1  0.63681392  0.25037518  0.85817500  1  0  -0.120851  0  3.762266  0  0  -0.142691  0  4.013052  0  0  -0.145787  0  4.035872  0  0  -0.097103  -0.14045  0  3.997315  0
C  C57  1  0.13681141  0.10854836  0.14182614  1  0  -0.120833  0  3.762096  0  0  -0.142671  0  4.012875  0  0  -0.145767  0  4.035692  0  0  -0.097109  -0.140429  0  3.997133  0
C  C58  1  0.65317501  0.14759562  0.00241368  1  0  -0.111185  0  3.752289  0  0  -0.127886  0  3.99648  0  0  -0.130869  0  4.019748  0  0  -0.091126  -0.125672  0  3.980348  0
C  C59  1  0.15317363  0.15000880  0.99758851  1  0  -0.111208  0  3.752308  0  0  -0.127916  0  3.996462  0  0  -0.130911  0  4.019738  0  0  -0.091124  -0.125702  0  3.98033  0
C  C60  1  0.75483003  0.02432755  0.04753741  1  0  0.061475  0  3.751425  0  0  0.079944  0  3.991582  0  0  0.078664  0  4.016572  0  0  -0.015455  0.081194  0  3.974038  0
C  C61  1  0.25482934  0.07186492  0.95246330  1  0  0.061392  0  3.751478  0  0  0.079892  0  3.991591  0  0  0.078611  0  4.01658  0  0  -0.015463  0.081138  0  3.97405  0
C  C62  1  0.83703630  0.00485421  0.94516550  1  0  -0.116154  0  3.773481  0  0  -0.136426  0  4.020403  0  0  -0.138486  0  4.041809  0  0  -0.096181  -0.13522  0  4.005832  0
C  C63  1  0.33703427  0.95001763  0.05483597  1  0  -0.116158  0  3.773473  0  0  -0.136471  0  4.020389  0  0  -0.13853  0  4.041795  0  0  -0.09619  -0.135265  0  4.005823  0
C  C64  1  0.81862597  0.10615802  0.80073372  1  0  -0.106361  0  3.751698  0  0  -0.123122  0  3.99235  0  0  -0.125726  0  4.014316  0  0  -0.092352  -0.121468  0  3.977953  0
C  C65  1  0.31862260  0.90688975  0.19926735  1  0  -0.106334  0  3.751617  0  0  -0.123113  0  3.992274  0  0  -0.125716  0  4.014232  0  0  -0.092371  -0.121458  0  3.977879  0
C  C66  1  0.70003789  0.33828688  0.59805990  1  0  -0.050607  0  3.630879  0  0  -0.118782  0  3.880475  0  0  -0.114429  0  3.890025  0  0  -0.047811  -0.121354  0  3.873385  0
C  C67  1  0.20003639  0.93634626  0.40194277  1  0  -0.050762  0  3.631068  0  0  -0.118839  0  3.880513  0  0  -0.11454  0  3.890129  0  0  -0.047786  -0.121413  0  3.873424  0
C  C68  1  0.77408615  0.91837949  0.20544719  1  0  -0.039208  0  3.637821  0  0  -0.106767  0  3.888418  0  0  -0.101974  0  3.898924  0  0  -0.041233  -0.109793  0  3.880912  0
C  C69  1  0.27408629  0.12382625  0.79455448  1  0  -0.0392  0  3.637847  0  0  -0.106764  0  3.888439  0  0  -0.101963  0  3.898931  0  0  -0.041242  -0.109789  0  3.880937  0
C  C70  1  0.73602727  0.57318855  0.59061326  1  0  0.177335  0  3.589047  0  0  0.115319  0  3.850667  0  0  0.129534  0  3.862726  0  0  0.149231  0.106396  0  3.842314  0
C  C71  1  0.23602929  0.16380126  0.40938697  1  0  0.177318  0  3.589001  0  0  0.115271  0  3.850651  0  0  0.129485  0  3.862711  0  0  0.149211  0.106346  0  3.842305  0
C  C72  1  0.55031949  0.71905615  0.49983984  1  0  -0.026067  0  3.791013  0  0  -0.060299  0  4.062994  0  0  -0.058685  0  4.082231  0  0  -0.010788  -0.061417  0  4.050055  0
C  C73  1  0.05031978  0.21889542  0.50016000  1  0  -0.02603  0  3.791048  0  0  -0.06026  0  4.063028  0  0  -0.058642  0  4.082264  0  0  -0.010782  -0.061378  0  4.050086  0
C  C74  1  0.54406894  0.58424231  0.50964408  1  0  -0.067693  0  3.657073  0  0  -0.108448  0  3.914872  0  0  -0.107328  0  3.933713  0  0  0.001034  -0.109481  0  3.903197  0
C  C75  1  0.04406918  0.09388744  0.49035319  1  0  -0.067735  0  3.65712  0  0  -0.108491  0  3.914937  0  0  -0.107369  0  3.933771  0  0  0.001022  -0.109523  0  3.903257  0
C  C76  1  0.98048067  0.72987120  0.28605865  1  0  0.187583  0  3.620856  0  0  0.124153  0  3.884529  0  0  0.139274  0  3.896086  0  0  0.15314  0.114087  0  3.876669  0
C  C77  1  0.48047921  0.01593064  0.71393997  1  0  0.187553  0  3.620839  0  0  0.124089  0  3.884512  0  0  0.139208  0  3.896072  0  0  0.153154  0.114025  0  3.876653  0
C  C78  1  0.93288366  0.55872808  0.24622776  1  0  -0.00174  0  3.754805  0  0  -0.033719  0  4.020254  0  0  -0.032725  0  4.042371  0  0  -0.002028  -0.03467  0  4.006089  0
C  C79  1  0.43288166  0.80495707  0.75377079  1  0  -0.001704  0  3.754821  0  0  -0.033684  0  4.020269  0  0  -0.03269  0  4.042383  0  0  -0.002022  -0.034633  0  4.006099  0
C  C80  1  0.82494928  0.66903967  0.20986278  1  0  -0.060618  0  3.671566  0  0  -0.102114  0  3.929178  0  0  -0.101117  0  3.949346  0  0  0.0027  -0.103113  0  3.916359  0
C  C81  1  0.32494889  0.87890301  0.79013691  1  0  -0.060626  0  3.671528  0  0  -0.102121  0  3.92915  0  0  -0.101111  0  3.949323  0  0  0.00274  -0.103114  0  3.916325  0
N  N82  1  0.66954977  0.71058567  0.55114787  1  0  -0.38873  0  3.327909  0  0  -0.307649  0  3.629095  0  0  -0.327708  0  3.641324  0  0  -0.362423  -0.294216  0  3.620546  0
N  N83  1  0.16954937  0.26173242  0.44885280  1  0  -0.388694  0  3.327862  0  0  -0.30761  0  3.629064  0  0  -0.327665  0  3.641291  0  0  -0.362394  -0.294174  0  3.620517  0
N  N84  1  0.66235959  0.49388965  0.56674009  1  0  -0.053386  0  3.567146  0  0  0.041664  0  3.785304  0  0  0.026709  0  3.811771  0  0  -0.237988  0.051497  0  3.767091  0
N  N85  1  0.16236028  0.06062878  0.43325903  1  0  -0.053327  0  3.567178  0  0  0.041692  0  3.785343  0  0  0.026753  0  3.81182  0  0  -0.237999  0.051526  0  3.76713  0
N  N86  1  0.85664977  0.77622662  0.23603703  1  0  -0.054926  0  3.583162  0  0  0.037543  0  3.803764  0  0  0.022838  0  3.829339  0  0  -0.240805  0.047149  0  3.786873  0
N  N87  1  0.35664952  0.01226236  0.76396385  1  0  -0.054787  0  3.583089  0  0  0.037665  0  3.803693  0  0  0.022957  0  3.829264  0  0  -0.240778  0.04727  0  3.786802  0
N  N88  1  0.02943267  0.59792684  0.29388886  1  0  -0.386583  0  3.291088  0  0  -0.305574  0  3.584997  0  0  -0.325784  0  3.597423  0  0  -0.357039  -0.292004  0  3.577051  0
N  N89  1  0.52943187  0.89181572  0.70611073  1  0  -0.386678  0  3.291121  0  0  -0.305669  0  3.585043  0  0  -0.325883  0  3.597475  0  0  -0.357103  -0.292101  0  3.577101  0
O  O90  1  0.95882953  0.77177966  0.55241652  1  0  -0.623671  0  1.95548  0  0  -0.580123  0  2.193063  0  0  -0.602896  0  2.184255  0  0  -0.318155  -0.56385  0  2.198223  0
O  O91  1  0.45883267  0.32419541  0.44758320  1  0  -0.623699  0  1.95542  0  0  -0.580155  0  2.193014  0  0  -0.602924  0  2.184202  0  0  -0.318153  -0.563885  0  2.198182  0
O  O92  1  0.84466622  0.76408218  0.74412808  1  0  -0.643897  0  2.038857  0  0  -0.567601  0  2.303816  0  0  -0.595804  0  2.289468  0  0  -0.332542  -0.547294  0  2.312965  0
O  O93  1  0.34466763  0.50820660  0.25587362  1  0  -0.643939  0  2.038999  0  0  -0.567625  0  2.303959  0  0  -0.595825  0  2.289607  0  0  -0.332523  -0.547304  0  2.313086  0
O  O94  1  0.05016499  0.43980746  0.64202982  1  0  -0.623781  0  1.900749  0  0  -0.579084  0  2.127484  0  0  -0.602592  0  2.118959  0  0  -0.323726  -0.56175  0  2.132694  0
O  O95  1  0.55016776  0.08183437  0.35797025  1  0  -0.623774  0  1.900723  0  0  -0.579077  0  2.127436  0  0  -0.602584  0  2.118912  0  0  -0.323715  -0.561742  0  2.132652  0
O  O96  1  0.22847271  0.53809688  0.52930027  1  0  -0.647942  0  2.023292  0  0  -0.575002  0  2.296313  0  0  -0.60295  0  2.280301  0  0  -0.335224  -0.555167  0  2.307078  0
O  O97  1  0.72847471  0.06739834  0.47069915  1  0  -0.647948  0  2.023258  0  0  -0.575025  0  2.296276  0  0  -0.602975  0  2.280263  0  0  -0.335274  -0.555193  0  2.307038  0
