# generated using pymatgen
data_Nd2U3H30(C5O7)6
_symmetry_space_group_name_H-M   'P 1'
_cell_length_a   10.87822977
_cell_length_b   11.50026681
_cell_length_c   13.16931302
_cell_angle_alpha   69.15341956
_cell_angle_beta   80.25927914
_cell_angle_gamma   62.79244105
_symmetry_Int_Tables_number   1
_chemical_formula_structural   Nd2U3H30(C5O7)6
_chemical_formula_sum   'Nd2 U3 H30 C30 O42'
_cell_volume   1369.26678552
_cell_formula_units_Z   1
loop_
 _symmetry_equiv_pos_site_id
 _symmetry_equiv_pos_as_xyz
  1  'x, y, z'
loop_
 _atom_site_type_symbol
 _atom_site_label
 _atom_site_symmetry_multiplicity
 _atom_site_fract_x
 _atom_site_fract_y
 _atom_site_fract_z
 _atom_site_occupancy
 _atom_site_pbe_bader_charge
 _atom_site_pbe_bader_spin_density
 _atom_site_pbe_cm5_charge
 _atom_site_pbe_ddec_charge
 _atom_site_pbe_ddec_spin_density
 _atom_site_pbe_ddec_sum_bond_order
 _atom_site_pbe_magmom
Nd  Nd0  1  0.61261490  0.21191002  0.76138005  1  2.295161  0  1.481107  2.25156  0  1.895685  0
Nd  Nd1  1  0.38739249  0.78808964  0.23862712  1  2.295105  0  1.481158  2.251708  0  1.895535  0
U  U2  1  0.62681243  0.70012173  0.83629003  1  2.91791  0  2.189237  2.440333  0  4.787488  0
U  U3  1  0.37319098  0.29986774  0.16370713  1  2.917899  0  2.189081  2.440186  0  4.787247  0
U  U4  1  0.99998715  0.50000309  0.49999102  1  2.892372  0  2.147947  2.405297  0  4.737151  0
H  H5  1  0.70890015  0.00735603  0.63960559  1  0.637929  0  0.325991  0.432334  0  0.860358  0
H  H6  1  0.29109199  0.99267874  0.36038844  1  0.637884  0  0.326077  0.432565  0  0.860083  0
H  H7  1  0.67819174  0.15414141  0.54759929  1  0.647717  0  0.293178  0.380538  0  0.969864  0
H  H8  1  0.32179305  0.84589740  0.45240062  1  0.647758  0  0.293193  0.380634  0  0.969739  0
H  H9  1  0.72768842  0.38625383  0.58189158  1  0.658886  0  0.311606  0.409914  0  0.913637  0
H  H10  1  0.27230341  0.61376020  0.41811718  1  0.658668  0  0.311673  0.409964  0  0.913566  0
H  H11  1  0.61430698  0.38371109  0.52044904  1  0.652069  0  0.317577  0.417324  0  0.894768  0
H  H12  1  0.38566895  0.61632450  0.47956220  1  0.652477  0  0.317636  0.417422  0  0.894676  0
H  H13  1  0.31554849  0.43883068  0.67946409  1  0.630283  0  0.33977  0.433124  0  0.848647  0
H  H14  1  0.68449021  0.56117207  0.32054608  1  0.630168  0  0.339806  0.433162  0  0.848607  0
H  H15  1  0.34954277  0.36032954  0.59481478  1  0.666006  0  0.308298  0.411713  0  0.913272  0
H  H16  1  0.65046138  0.63966686  0.40520826  1  0.665759  0  0.308252  0.411664  0  0.913322  0
H  H17  1  0.48303893  0.42073189  0.88988528  1  0.644567  0  0.317475  0.423555  0  0.886656  0
H  H18  1  0.51693881  0.57927804  0.11012063  1  0.644669  0  0.317464  0.423582  0  0.88662  0
H  H19  1  0.49715429  0.51677996  0.77109298  1  0.672918  0  0.311037  0.415512  0  0.904451  0
H  H20  1  0.50283411  0.48322691  0.22891161  1  0.672841  0  0.311074  0.415572  0  0.904367  0
H  H21  1  0.68051177  0.14353139  0.03496011  1  0.659104  0  0.305531  0.400423  0  0.925263  0
H  H22  1  0.31948397  0.85647358  0.96503036  1  0.658988  0  0.305477  0.400259  0  0.925478  0
H  H23  1  0.78445959  0.19683396  0.95489597  1  0.610805  0  0.327361  0.410872  0  0.879975  0
H  H24  1  0.21554493  0.80316371  0.04510461  1  0.61052  0  0.327368  0.410867  0  0.880006  0
H  H25  1  0.81153483  0.99182040  0.91097963  1  0.623043  0  0.303847  0.397615  0  0.924292  0
H  H26  1  0.18848510  0.00815464  0.08902113  1  0.623145  0  0.303898  0.397634  0  0.924256  0
H  H27  1  0.76554793  0.89803201  0.87752353  1  0.642629  0  0.307636  0.401675  0  0.93073  0
H  H28  1  0.23445503  0.10195636  0.12248011  1  0.642746  0  0.307702  0.401778  0  0.930596  0
H  H29  1  0.09625696  0.37173401  0.96047854  1  0.166063  0  0.124269  0.140736  0  0.9927  0
H  H30  1  0.90374862  0.62824617  0.03952191  1  0.164258  0  0.124251  0.140681  0  0.992783  0
H  H31  1  0.16837741  0.08986909  0.72665571  1  0.115029  0  0.116721  0.127715  0  0.991877  0
H  H32  1  0.83163350  0.91012458  0.27333457  1  0.115215  0  0.116691  0.12773  0  0.991888  0
H  H33  1  0.72047950  0.99622863  0.41181662  1  0.092675  0  0.118256  0.127083  0  0.984109  0
H  H34  1  0.27951411  0.00377915  0.58819911  1  0.092535  0  0.118274  0.127127  0  0.984073  0
C  C35  1  0.00324375  0.33836744  0.84875463  1  -0.031808  0  -0.002799  -0.040301  0  3.957427  0
C  C36  1  0.99677045  0.66162938  0.15123042  1  -0.031676  0  -0.002837  -0.040144  0  3.957443  0
C  C37  1  0.11361515  0.31104699  0.90760877  1  -0.032271  0  -0.057607  -0.077391  0  3.886148  0
C  C38  1  0.88639238  0.68893942  0.09238571  1  -0.03115  0  -0.057554  -0.077334  0  3.886216  0
C  C39  1  0.24617852  0.21181736  0.89596461  1  0.02688  0  -0.004357  -0.080869  0  3.962704  0
C  C40  1  0.75382991  0.78816486  0.10403786  1  0.027025  0  -0.004337  -0.080929  0  3.962936  0
C  C41  1  0.26700025  0.13336448  0.82786370  1  -0.012685  0  0.01372  -0.011289  0  3.898543  0
C  C42  1  0.73300920  0.86662397  0.17213292  1  -0.012467  0  0.013733  -0.011202  0  3.898517  0
C  C43  1  0.15330081  0.15375184  0.77604535  1  -0.012287  0  -0.070158  -0.122572  0  3.92102  0
C  C44  1  0.84671383  0.84624184  0.22394440  1  -0.012879  0  -0.070121  -0.122628  0  3.921109  0
C  C45  1  0.02245944  0.25832981  0.78280020  1  -0.003473  0  0.017813  -0.022911  0  3.916436  0
C  C46  1  0.97755437  0.74167220  0.21718029  1  -0.003777  0  0.017811  -0.02294  0  3.916556  0
C  C47  1  0.62232002  0.99934300  0.44967385  1  -0.052358  0  -0.067823  -0.114124  0  3.929098  0
C  C48  1  0.37767035  0.00066581  0.55034203  1  -0.052162  0  -0.067914  -0.114275  0  3.928974  0
C  C49  1  0.61325116  0.87405119  0.50093191  1  0.050256  0  0.004495  -0.014149  0  3.921708  0
C  C50  1  0.38674196  0.12595558  0.49908192  1  0.048722  0  0.004614  -0.014043  0  3.921387  0
C  C51  1  0.48887329  0.87440524  0.55269132  1  -0.019259  0  0.005721  -0.064016  0  3.95772  0
C  C52  1  0.51111843  0.12560259  0.44732010  1  -0.01894  0  0.005736  -0.063866  0  3.957702  0
C  C53  1  0.86963257  0.45676497  0.85304231  1  1.525611  0  0.207302  0.56311  0  4.20674  0
C  C54  1  0.13038386  0.54322458  0.14694844  1  1.525383  0  0.207275  0.563084  0  4.206584  0
C  C55  1  0.35715725  0.19400176  0.96063224  1  1.5799  0  0.252331  0.64503  0  4.131444  0
C  C56  1  0.64284523  0.80598558  0.03937102  1  1.580506  0  0.252306  0.644957  0  4.13134  0
C  C57  1  0.40628197  0.02566244  0.80887101  1  1.588753  0  0.24345  0.640135  0  4.142336  0
C  C58  1  0.59372800  0.97432911  0.19112536  1  1.588792  0  0.243575  0.640227  0  4.142284  0
C  C59  1  0.90597017  0.28226228  0.71862097  1  1.629335  0  0.256143  0.666608  0  4.125925  0
C  C60  1  0.09404166  0.71773142  0.28136612  1  1.628969  0  0.256058  0.666469  0  4.12587  0
C  C61  1  0.46438695  0.74757717  0.61244596  1  1.582556  0  0.246495  0.635661  0  4.149445  0
C  C62  1  0.53559961  0.25243179  0.38755521  1  1.582443  0  0.246462  0.635577  0  4.149375  0
C  C63  1  0.73833596  0.74500739  0.49884761  1  1.551366  0  0.214761  0.567643  0  4.207999  0
C  C64  1  0.26165900  0.25500155  0.50115618  1  1.552178  0  0.214617  0.567453  0  4.207952  0
O  O65  1  0.55050721  0.61371860  0.95459875  1  -0.89207  0  -0.750853  -0.715862  0  1.849735  0
O  O66  1  0.44949261  0.38627700  0.04540236  1  -0.891926  0  -0.750848  -0.715827  0  1.84983  0
O  O67  1  0.70342816  0.79101530  0.72311453  1  -0.863164  0  -0.748978  -0.688975  0  1.844782  0
O  O68  1  0.29656942  0.20896182  0.27688266  1  -0.863242  0  -0.748815  -0.688951  0  1.844317  0
O  O69  1  0.05604951  0.50073409  0.62117303  1  -0.859447  0  -0.763786  -0.69515  0  1.84025  0
O  O70  1  0.94391443  0.49927105  0.37879755  1  -0.859457  0  -0.763861  -0.695485  0  1.839907  0
O  O71  1  0.85669889  0.53451958  0.90744518  1  -1.13502  0  -0.344106  -0.569054  0  2.178475  0
O  O72  1  0.14331862  0.46547823  0.09254366  1  -1.134892  0  -0.344088  -0.568993  0  2.178367  0
O  O73  1  0.76627488  0.48432995  0.79952258  1  -1.126684  0  -0.334783  -0.579318  0  2.26821  0
O  O74  1  0.23373035  0.51565535  0.20048016  1  -1.126574  0  -0.334736  -0.579274  0  2.268373  0
O  O75  1  0.83216328  0.22027516  0.76610102  1  -1.192414  0  -0.37017  -0.62743  0  2.272355  0
O  O76  1  0.16786643  0.77970100  0.23389271  1  -1.192136  0  -0.370222  -0.627429  0  2.272441  0
O  O77  1  0.89205714  0.35783542  0.61882091  1  -1.154401  0  -0.340211  -0.600018  0  2.335587  0
O  O78  1  0.10793434  0.64216647  0.38116806  1  -1.154147  0  -0.34011  -0.599986  0  2.33546  0
O  O79  1  0.41395485  0.90283267  0.83389640  1  -1.157622  0  -0.362557  -0.642104  0  2.279853  0
O  O80  1  0.58605186  0.09715993  0.16609706  1  -1.15766  0  -0.362591  -0.64212  0  2.279806  0
O  O81  1  0.50444757  0.05620689  0.76895906  1  -1.182223  0  -0.342166  -0.644595  0  2.346548  0
O  O82  1  0.49556106  0.94378561  0.23104479  1  -1.182022  0  -0.342272  -0.644721  0  2.346432  0
O  O83  1  0.47765615  0.16993537  0.92565999  1  -1.193088  0  -0.365053  -0.624103  0  2.338009  0
O  O84  1  0.52234271  0.83005814  0.07434417  1  -1.193068  0  -0.365111  -0.624107  0  2.337808  0
O  O85  1  0.31850776  0.20667210  0.05632120  1  -1.166156  0  -0.373398  -0.634297  0  2.39852  0
O  O86  1  0.68148825  0.79331937  0.94368095  1  -1.166129  0  -0.373389  -0.634276  0  2.398452  0
O  O87  1  0.50622328  0.68141073  0.71169025  1  -1.164711  0  -0.360466  -0.629301  0  2.313279  0
O  O88  1  0.49376308  0.31858794  0.28831029  1  -1.164917  0  -0.360453  -0.629299  0  2.31323  0
O  O89  1  0.39351110  0.71984881  0.56713438  1  -1.147041  0  -0.280428  -0.511234  0  2.156891  0
O  O90  1  0.60647413  0.28016534  0.43286160  1  -1.146812  0  -0.280454  -0.511233  0  2.156912  0
O  O91  1  0.72813243  0.63251486  0.51715876  1  -1.157315  0  -0.313498  -0.587709  0  2.239427  0
O  O92  1  0.27186437  0.36749200  0.48284769  1  -1.157293  0  -0.313544  -0.587738  0  2.239479  0
O  O93  1  0.85564223  0.74802878  0.47706411  1  -1.131462  0  -0.334968  -0.569145  0  2.22876  0
O  O94  1  0.14434937  0.25197928  0.52292524  1  -1.131611  0  -0.334854  -0.569027  0  2.228504  0
O  O95  1  0.71251074  0.09557026  0.62324810  1  -1.265572  0  -0.646156  -0.854419  0  2.024332  0
O  O96  1  0.28748511  0.90446242  0.37674832  1  -1.265625  0  -0.646321  -0.854811  0  2.024082  0
O  O97  1  0.63545243  0.38614118  0.58894783  1  -1.284851  0  -0.634639  -0.845939  0  2.018775  0
O  O98  1  0.36453119  0.61388101  0.41106642  1  -1.285017  0  -0.634801  -0.846174  0  2.01857  0
O  O99  1  0.38454951  0.35847686  0.66053824  1  -1.274537  0  -0.620471  -0.855697  0  2.022129  0
O  O100  1  0.61545715  0.64150303  0.33948873  1  -1.27413  0  -0.620507  -0.855764  0  2.022208  0
O  O101  1  0.49481143  0.42688665  0.81259804  1  -1.300491  0  -0.632099  -0.875176  0  1.989598  0
O  O102  1  0.50517649  0.57311918  0.18740693  1  -1.300485  0  -0.632115  -0.875239  0  1.989526  0
O  O103  1  0.73163766  0.14437736  0.96540659  1  -1.254749  0  -0.575091  -0.818785  0  2.067315  0
O  O104  1  0.26835726  0.85563380  0.03458211  1  -1.254409  0  -0.575059  -0.818636  0  2.067471  0
O  O105  1  0.79284154  0.97507853  0.84823146  1  -1.24625  0  -0.638339  -0.826659  0  1.998087  0
O  O106  1  0.20716185  0.02490885  0.15176938  1  -1.246462  0  -0.638462  -0.826771  0  1.998073  0
