# generated using pymatgen
data_HgH9C12I2N5
_symmetry_space_group_name_H-M   'P 1'
_cell_length_a   7.71789112
_cell_length_b   16.04618865
_cell_length_c   18.45800000
_cell_angle_alpha   68.66445634
_cell_angle_beta   88.42801440
_cell_angle_gamma   83.58086739
_symmetry_Int_Tables_number   1
_chemical_formula_structural   HgH9C12I2N5
_chemical_formula_sum   'Hg4 H36 C48 I8 N20'
_cell_volume   2115.66195802
_cell_formula_units_Z   4
loop_
 _symmetry_equiv_pos_site_id
 _symmetry_equiv_pos_as_xyz
  1  'x, y, z'
loop_
 _atom_site_type_symbol
 _atom_site_label
 _atom_site_symmetry_multiplicity
 _atom_site_fract_x
 _atom_site_fract_y
 _atom_site_fract_z
 _atom_site_occupancy
 _atom_site_hle17_bader_spin_density
 _atom_site_hle17_ddec_charge
 _atom_site_hle17_ddec_spin_density
 _atom_site_hle17_ddec_sum_bond_order
 _atom_site_hle17_magmom
 _atom_site_hse06_10hf_bader_spin_density
 _atom_site_hse06_10hf_ddec_charge
 _atom_site_hse06_10hf_ddec_spin_density
 _atom_site_hse06_10hf_ddec_sum_bond_order
 _atom_site_hse06_10hf_magmom
 _atom_site_hse06_bader_spin_density
 _atom_site_hse06_ddec_charge
 _atom_site_hse06_ddec_spin_density
 _atom_site_hse06_ddec_sum_bond_order
 _atom_site_hse06_magmom
 _atom_site_pbe_bader_charge
 _atom_site_pbe_bader_spin_density
 _atom_site_pbe_cm5_charge
 _atom_site_pbe_ddec_charge
 _atom_site_pbe_ddec_spin_density
 _atom_site_pbe_ddec_sum_bond_order
 _atom_site_pbe_magmom
Hg  Hg0  1  0.20842568  0.46300288  0.32663385  1  0  0.518992  0  2.219686  0  0  0.382223  0  2.719968  0  0  0.425664  0  2.692587  0  0.49993  0  0.372518  0.353166  0  2.738017  0
Hg  Hg1  1  0.79158522  0.53700515  0.67337080  1  0  0.519191  0  2.219687  0  0  0.382405  0  2.719979  0  0  0.425846  0  2.692588  0  0.499823  0  0.372615  0.353348  0  2.73803  0
Hg  Hg2  1  0.41656012  0.78005750  0.00730270  1  0  0.517457  0  2.230954  0  0  0.382766  0  2.731062  0  0  0.425151  0  2.704838  0  0.500155  0  0.375656  0.354394  0  2.748257  0
Hg  Hg3  1  0.58347072  0.21991149  0.99268969  1  0  0.517504  0  2.230869  0  0  0.382849  0  2.730976  0  0  0.425246  0  2.704724  0  0.499593  0  0.375649  0.354471  0  2.748189  0
H  H4  1  0.54459255  0.57215192  0.19479321  1  0  0.118109  0  0.96319  0  0  0.122207  0  1.033818  0  0  0.125956  0  1.032064  0  0.137755  0  0.101478  0.119493  0  1.035286  0
H  H5  1  0.45543315  0.42783524  0.80522762  1  0  0.118277  0  0.962974  0  0  0.122306  0  1.033658  0  0  0.126059  0  1.031898  0  0.137437  0  0.101489  0.119589  0  1.035132  0
H  H6  1  0.84154118  0.48497525  0.22604863  1  0  0.080193  0  0.927842  0  0  0.088304  0  0.988763  0  0  0.091201  0  0.986242  0  0.123693  0  0.112588  0.08624  0  0.99059  0
H  H7  1  0.15848682  0.51501326  0.77398150  1  0  0.080178  0  0.927591  0  0  0.088269  0  0.988577  0  0  0.091167  0  0.98605  0  0.123759  0  0.112525  0.086205  0  0.990404  0
H  H8  1  0.95474728  0.60839180  0.37787423  1  0  0.062986  0  0.98359  0  0  0.066524  0  1.060486  0  0  0.069412  0  1.057839  0  0.105375  0  0.092062  0.064473  0  1.062363  0
H  H9  1  0.04525530  0.39163104  0.62213233  1  0  0.062974  0  0.983643  0  0  0.066506  0  1.060553  0  0  0.069393  0  1.057906  0  0.104693  0  0.092089  0.064456  0  1.062428  0
H  H10  1  0.66594212  0.70095454  0.35417877  1  0  0.099249  0  0.938761  0  0  0.113672  0  0.991557  0  0  0.117176  0  0.990009  0  0.058996  0  0.105769  0.11121  0  0.992793  0
H  H11  1  0.33404719  0.29905752  0.64582377  1  0  0.099256  0  0.938888  0  0  0.113712  0  0.991638  0  0  0.117218  0  0.990088  0  0.058847  0  0.105803  0.111252  0  0.992871  0
H  H12  1  0.08589628  0.65322300  0.11544379  1  0  0.11548  0  0.958165  0  0  0.120553  0  1.027413  0  0  0.123932  0  1.026206  0  0.113  0  0.101072  0.118132  0  1.028456  0
H  H13  1  0.91415129  0.34675878  0.88456495  1  0  0.115491  0  0.957971  0  0  0.120594  0  1.027177  0  0  0.123971  0  1.025965  0  0.113522  0  0.101032  0.118173  0  1.028218  0
H  H14  1  0.80746329  0.67417227  0.04016660  1  0  0.078122  0  0.934735  0  0  0.085664  0  0.997723  0  0  0.088626  0  0.995042  0  0.104017  0  0.108744  0.083521  0  0.999705  0
H  H15  1  0.19257990  0.32578124  0.95983975  1  0  0.078063  0  0.934454  0  0  0.085599  0  0.997472  0  0  0.088561  0  0.994789  0  0.104214  0  0.108778  0.083455  0  0.999457  0
H  H16  1  0.59787470  0.88056339  0.11110109  1  0  0.067783  0  0.959511  0  0  0.070142  0  1.034895  0  0  0.073099  0  1.032218  0  0.09701  0  0.096861  0.068008  0  1.036842  0
H  H17  1  0.40209278  0.11941099  0.88890007  1  0  0.067692  0  0.959857  0  0  0.070039  0  1.035214  0  0  0.07299  0  1.032543  0  0.096563  0  0.09688  0.067908  0  1.037159  0
H  H18  1  0.86705665  0.86862344  0.18956214  1  0  0.113416  0  0.934064  0  0  0.124484  0  0.989561  0  0  0.128367  0  0.987566  0  0.084541  0  0.108977  0.121756  0  0.991049  0
H  H19  1  0.13292209  0.13136508  0.81044255  1  0  0.113492  0  0.93417  0  0  0.124575  0  0.989686  0  0  0.128462  0  0.987684  0  0.084259  0  0.109047  0.121848  0  0.991175  0
H  H20  1  0.89407321  0.14562652  0.39320432  1  0  0.116211  0  0.933054  0  0  0.126888  0  0.98884  0  0  0.130766  0  0.98726  0  0.100652  0  0.110897  0.124104  0  0.990081  0
H  H21  1  0.10591178  0.85438757  0.60678679  1  0  0.11628  0  0.932974  0  0  0.126946  0  0.988771  0  0  0.130823  0  0.987194  0  0.100295  0  0.110929  0.124166  0  0.990007  0
H  H22  1  0.04001486  0.28354481  0.31577545  1  0  0.069609  0  0.963823  0  0  0.073562  0  1.035729  0  0  0.07685  0  1.032728  0  0.095985  0  0.098814  0.071182  0  1.037916  0
H  H23  1  0.95997230  0.71647130  0.68422475  1  0  0.069654  0  0.963645  0  0  0.073544  0  1.035605  0  0  0.076764  0  1.032667  0  0.095926  0  0.098752  0.071156  0  1.0378  0
H  H24  1  0.06951241  0.35800276  0.50666145  1  0  0.066001  0  0.97794  0  0  0.069624  0  1.054507  0  0  0.072482  0  1.051643  0  0.094514  0  0.095214  0.067519  0  1.056622  0
H  H25  1  0.93043243  0.64202344  0.49333008  1  0  0.066057  0  0.977712  0  0  0.069628  0  1.054328  0  0  0.07247  0  1.051471  0  0.094641  0  0.095213  0.067523  0  1.056442  0
H  H26  1  0.93082466  0.22174028  0.59366868  1  0  0.118455  0  0.953406  0  0  0.121668  0  1.024022  0  0  0.1261  0  1.021113  0  0.124492  0  0.106202  0.118517  0  1.026165  0
H  H27  1  0.06912939  0.77828525  0.40631429  1  0  0.118404  0  0.953522  0  0  0.121595  0  1.024151  0  0  0.126034  0  1.021245  0  0.124154  0  0.106161  0.118442  0  1.026294  0
H  H28  1  0.62847876  0.82059169  0.70915773  1  0  0.09437  0  0.962048  0  0  0.101636  0  1.028748  0  0  0.105546  0  1.026654  0  0.062444  0  0.098904  0.098818  0  1.030402  0
H  H29  1  0.37151416  0.17942778  0.29083267  1  0  0.094392  0  0.961951  0  0  0.101632  0  1.028669  0  0  0.10554  0  1.02658  0  0.062565  0  0.098912  0.098815  0  1.030323  0
H  H30  1  0.54115665  0.74414879  0.84548059  1  0  0.072372  0  0.976644  0  0  0.075387  0  1.050441  0  0  0.078657  0  1.047261  0  0.135857  0  0.093165  0.072998  0  1.052775  0
H  H31  1  0.45884374  0.25585992  0.15450501  1  0  0.072393  0  0.976719  0  0  0.075454  0  1.05046  0  0  0.078728  0  1.047274  0  0.135766  0  0.093229  0.073067  0  1.052794  0
H  H32  1  0.65542820  0.95469019  0.90910180  1  0  0.074672  0  0.970269  0  0  0.077284  0  1.046864  0  0  0.080564  0  1.043625  0  0.129801  0  0.096938  0.074845  0  1.04932  0
H  H33  1  0.34456711  0.04529967  0.09089740  1  0  0.074782  0  0.970327  0  0  0.077401  0  1.046924  0  0  0.080681  0  1.043687  0  0.129714  0  0.096981  0.074963  0  1.049381  0
H  H34  1  0.75460103  0.04118440  0.77479659  1  0  0.11864  0  0.958781  0  0  0.120275  0  1.031761  0  0  0.1248  0  1.028776  0  0.12594  0  0.106789  0.117052  0  1.033964  0
H  H35  1  0.24539343  0.95880950  0.22520297  1  0  0.118762  0  0.958546  0  0  0.120315  0  1.03162  0  0  0.12484  0  1.028637  0  0.12587  0  0.106865  0.117094  0  1.03382  0
H  H36  1  0.38485819  0.77944566  0.32241777  1  0  0.3028  0  0.847497  0  0  0.290512  0  0.897042  0  0  0.2975  0  0.892105  0  0.489104  0  0.348677  0.285503  0  0.900802  0
H  H37  1  0.61514752  0.22055631  0.67758127  1  0  0.302821  0  0.847477  0  0  0.290515  0  0.897029  0  0  0.297503  0  0.89209  0  0.489137  0  0.348699  0.285506  0  0.900788  0
H  H38  1  0.69851986  0.90754759  0.58593885  1  0  0.301645  0  0.847953  0  0  0.293294  0  0.890845  0  0  0.29949  0  0.887242  0  0.481443  0  0.352756  0.288838  0  0.893619  0
H  H39  1  0.30146355  0.09246784  0.41405619  1  0  0.301457  0  0.848268  0  0  0.293224  0  0.891011  0  0  0.299422  0  0.887408  0  0.480867  0  0.352713  0.288767  0  0.893785  0
C  C40  1  0.40966275  0.69546145  0.25281998  1  0  0.310894  0  3.784402  0  0  0.275943  0  4.05831  0  0  0.289751  0  4.072112  0  1.019697  0  0.223508  0.267022  0  4.048526  0
C  C41  1  0.59034640  0.30453648  0.74718734  1  0  0.311072  0  3.783986  0  0  0.275892  0  4.058251  0  0  0.289616  0  4.072162  0  1.018776  0  0.223587  0.266997  0  4.048429  0
C  C42  1  0.15421320  0.74598027  0.20563352  1  0  0.281718  0  3.801657  0  0  0.261468  0  4.076636  0  0  0.27081  0  4.093251  0  0.95841  0  0.212262  0.25538  0  4.06513  0
C  C43  1  0.84579363  0.25401026  0.79436533  1  0  0.281858  0  3.801861  0  0  0.261806  0  4.076511  0  0  0.271154  0  4.093112  0  0.958804  0  0.212429  0.255711  0  4.065009  0
C  C44  1  0.58116174  0.64442099  0.27149521  1  0  0.041676  0  3.802716  0  0  0.057268  0  4.03796  0  0  0.058831  0  4.059464  0  -0.016331  0  0.01051  0.056254  0  4.023312  0
C  C45  1  0.41884152  0.35558031  0.72851816  1  0  0.041825  0  3.802377  0  0  0.057387  0  4.037898  0  0  0.05898  0  4.059414  0  -0.016547  0  0.010573  0.056366  0  4.023241  0
C  C46  1  0.63185195  0.58179126  0.23587079  1  0  -0.123435  0  3.674059  0  0  -0.141142  0  3.915371  0  0  -0.147832  0  3.936658  0  0.066907  0  -0.074707  -0.136893  0  3.901241  0
C  C47  1  0.36815793  0.41820937  0.76414433  1  0  -0.123728  0  3.673436  0  0  -0.141325  0  3.914825  0  0  -0.148016  0  3.936098  0  0.06682  0  -0.074754  -0.137077  0  3.900697  0
C  C48  1  0.79578564  0.53329979  0.25336987  1  0  0.12559  0  3.705532  0  0  0.098914  0  3.952282  0  0  0.105334  0  3.970644  0  0.412663  0  0.047562  0.094768  0  3.939692  0
C  C49  1  0.20420752  0.46669411  0.74664325  1  0  0.125537  0  3.705107  0  0  0.098849  0  3.951914  0  0  0.105275  0  3.970286  0  0.412393  0  0.047585  0.094699  0  3.939327  0
C  C50  1  0.85897677  0.60292092  0.33777597  1  0  0.124498  0  3.731546  0  0  0.095182  0  3.986821  0  0  0.101685  0  4.005048  0  0.516844  0  0.035925  0.090903  0  3.974354  0
C  C51  1  0.14104219  0.39708577  0.66223443  1  0  0.124493  0  3.731662  0  0  0.095159  0  3.986993  0  0  0.101661  0  4.005226  0  0.518168  0  0.035829  0.090878  0  3.974526  0
C  C52  1  0.69784991  0.65435244  0.32388571  1  0  -0.141695  0  3.725059  0  0  -0.167052  0  3.979188  0  0  -0.17259  0  3.998435  0  -0.05316  0  -0.085959  -0.163352  0  3.966115  0
C  C53  1  0.30216300  0.34565222  0.67612432  1  0  -0.141765  0  3.725213  0  0  -0.167095  0  3.979366  0  0  -0.172637  0  3.998613  0  -0.052773  0  -0.085966  -0.163399  0  3.966301  0
C  C54  1  0.99574403  0.75830321  0.15986505  1  0  0.052944  0  3.785612  0  0  0.070025  0  4.012131  0  0  0.072447  0  4.034321  0  0.015773  0  0.010156  0.068543  0  3.997013  0
C  C55  1  0.00428020  0.24167251  0.84013124  1  0  0.052845  0  3.786042  0  0  0.069932  0  4.012481  0  0  0.072353  0  4.03466  0  0.014731  0  0.010211  0.068454  0  3.997357  0
C  C56  1  0.98002920  0.70400297  0.11607893  1  0  -0.135704  0  3.688502  0  0  -0.154487  0  3.931907  0  0  -0.161836  0  3.953717  0  -0.034214  0  -0.08037  -0.149799  0  3.917292  0
C  C57  1  0.01998220  0.29596602  0.88392180  1  0  -0.135641  0  3.688408  0  0  -0.154362  0  3.93166  0  0  -0.161746  0  3.953558  0  -0.033703  0  -0.08024  -0.149665  0  3.917039  0
C  C58  1  0.82665338  0.71590456  0.07407444  1  0  0.124465  0  3.709731  0  0  0.097203  0  3.957191  0  0  0.10375  0  3.97596  0  0.52477  0  0.043804  0.093012  0  3.944334  0
C  C59  1  0.17336795  0.28406039  0.92592638  1  0  0.12471  0  3.709232  0  0  0.097451  0  3.956798  0  0  0.103994  0  3.975557  0  0.525091  0  0.043883  0.093262  0  3.943928  0
C  C60  1  0.70873545  0.83048545  0.11462676  1  0  0.113468  0  3.740201  0  0  0.084813  0  3.997004  0  0  0.091543  0  4.015282  0  0.470517  0  0.031299  0.080426  0  3.984499  0
C  C61  1  0.29127439  0.16949700  0.88537516  1  0  0.113417  0  3.740705  0  0  0.084863  0  3.997474  0  0  0.091596  0  4.015746  0  0.470102  0  0.031294  0.080474  0  3.984971  0
C  C62  1  0.85737288  0.82348261  0.15816847  1  0  -0.139501  0  3.713362  0  0  -0.162978  0  3.961905  0  0  -0.169014  0  3.981276  0  -0.023544  0  -0.085016  -0.158963  0  3.948718  0
C  C63  1  0.14264069  0.17648840  0.84184190  1  0  -0.139311  0  3.713408  0  0  -0.162908  0  3.96201  0  0  -0.16894  0  3.981369  0  -0.023682  0  -0.085082  -0.158894  0  3.948817  0
C  C64  1  0.82566101  0.09237832  0.54877758  1  0  0.276922  0  3.807117  0  0  0.261519  0  4.078625  0  0  0.270406  0  4.094683  0  0.978111  0  0.21033  0.255694  0  4.067511  0
C  C65  1  0.17431478  0.90764250  0.45122126  1  0  0.2769  0  3.807124  0  0  0.26166  0  4.078443  0  0  0.270548  0  4.0945  0  0.97623  0  0.210226  0.255836  0  4.067327  0
C  C66  1  0.73934039  0.99214566  0.65034712  1  0  0.319205  0  3.770503  0  0  0.288499  0  4.039083  0  0  0.302208  0  4.052736  0  0.9709  0  0.228982  0.279592  0  4.029378  0
C  C67  1  0.26065826  0.00785901  0.34964086  1  0  0.319459  0  3.769592  0  0  0.288743  0  4.038247  0  0  0.302452  0  4.051896  0  0.970098  0  0.229081  0.279833  0  4.028544  0
C  C68  1  0.90155035  0.17322256  0.49970281  1  0  0.05979  0  3.78205  0  0  0.074036  0  4.011078  0  0  0.077061  0  4.032655  0  -0.021818  0  0.012047  0.072129  0  3.996355  0
C  C69  1  0.09844069  0.82679355  0.50029355  1  0  0.060085  0  3.781824  0  0  0.074178  0  4.010972  0  0  0.077204  0  4.03255  0  -0.022203  0  0.012312  0.072267  0  3.996259  0
C  C70  1  0.93161191  0.19106081  0.42035967  1  0  -0.149769  0  3.715533  0  0  -0.172891  0  3.963714  0  0  -0.179408  0  3.98426  0  -0.014653  0  -0.085577  -0.168589  0  3.94975  0
C  C71  1  0.06835062  0.80895530  0.57963756  1  0  -0.150054  0  3.715699  0  0  -0.173151  0  3.963939  0  0  -0.179675  0  3.984481  0  -0.014433  0  -0.085778  -0.168851  0  3.949972  0
C  C72  1  0.01158928  0.26709447  0.37757340  1  0  0.10369  0  3.751178  0  0  0.079741  0  4.000569  0  0  0.085027  0  4.020334  0  0.459915  0  0.033483  0.076354  0  3.987065  0
C  C73  1  0.98838478  0.73292231  0.62242511  1  0  0.103925  0  3.750995  0  0  0.080015  0  4.000329  0  0  0.085362  0  4.020114  0  0.471706  0  0.033718  0.076638  0  3.986817  0
C  C74  1  0.02909243  0.30847474  0.48448331  1  0  0.120871  0  3.737474  0  0  0.095207  0  3.983927  0  0  0.10156  0  4.002796  0  0.475876  0  0.038481  0.09111  0  3.971067  0
C  C75  1  0.97086608  0.69154810  0.51551075  1  0  0.120919  0  3.73652  0  0  0.095256  0  3.983039  0  0  0.10163  0  4.001898  0  0.471682  0  0.038481  0.091161  0  3.970176  0
C  C76  1  0.95120391  0.23379600  0.53213618  1  0  -0.143619  0  3.687929  0  0  -0.161456  0  3.927961  0  0  -0.168364  0  3.947795  0  0.000751  0  -0.08296  -0.156941  0  3.914603  0
C  C77  1  0.04875878  0.76623155  0.46784984  1  0  -0.143732  0  3.687566  0  0  -0.161533  0  3.927724  0  0  -0.16845  0  3.94756  0  0.005672  0  -0.083047  -0.157019  0  3.914369  0
C  C78  1  0.69265634  0.94006460  0.72974180  1  0  0.03189  0  3.819378  0  0  0.047618  0  4.052249  0  0  0.048699  0  4.07484  0  -0.079671  0  0.005263  0.046917  0  4.036827  0
C  C79  1  0.30735355  0.05994208  0.27024432  1  0  0.031909  0  3.81889  0  0  0.047614  0  4.051835  0  0  0.048716  0  4.074392  0  -0.079213  0  0.005242  0.046912  0  4.036414  0
C  C80  1  0.63557592  0.85455786  0.75041521  1  0  -0.154937  0  3.730987  0  0  -0.175936  0  3.977025  0  0  -0.182737  0  3.998354  0  0.00489  0  -0.08945  -0.171396  0  3.962559  0
C  C81  1  0.36441181  0.14545555  0.24957338  1  0  -0.154956  0  3.730677  0  0  -0.175915  0  3.976729  0  0  -0.182722  0  3.998058  0  0.004552  0  -0.089478  -0.171377  0  3.962263  0
C  C82  1  0.58671793  0.81079889  0.82690087  1  0  0.130015  0  3.722747  0  0  0.107622  0  3.965955  0  0  0.113329  0  3.98485  0  0.488073  0  0.043554  0.103942  0  3.95299  0
C  C83  1  0.41327699  0.18921116  0.17308707  1  0  0.130027  0  3.722786  0  0  0.107614  0  3.965989  0  0  0.113321  0  3.984885  0  0.488325  0  0.043569  0.103932  0  3.953025  0
C  C84  1  0.65140944  0.92785810  0.86263081  1  0  0.130168  0  3.706222  0  0  0.104654  0  3.953654  0  0  0.110919  0  3.971469  0  0.49143  0  0.046433  0.100576  0  3.941522  0
C  C85  1  0.34859062  0.07213377  0.13736336  1  0  0.130134  0  3.706455  0  0  0.104609  0  3.953916  0  0  0.110875  0  3.97173  0  0.491194  0  0.046431  0.100531  0  3.941786  0
C  C86  1  0.70450309  0.97639669  0.78793730  1  0  -0.132556  0  3.673161  0  0  -0.149153  0  3.911249  0  0  -0.155499  0  3.931102  0  -0.005035  0  -0.078722  -0.144991  0  3.897891  0
C  C87  1  0.29548850  0.02360461  0.21205345  1  0  -0.132709  0  3.673099  0  0  -0.14924  0  3.911265  0  0  -0.155593  0  3.931112  0  -0.004401  0  -0.078832  -0.14508  0  3.897909  0
I  I88  1  0.29489835  0.51459527  0.44291251  1  0  -0.35143  0  1.202828  0  0  -0.310775  0  1.543871  0  0  -0.327663  0  1.524627  0  -0.324172  0  -0.192802  -0.299293  0  1.557021  0
I  I89  1  0.70514349  0.48540131  0.55709865  1  0  -0.351488  0  1.203011  0  0  -0.310823  0  1.544069  0  0  -0.327705  0  1.524817  0  -0.323892  0  -0.192804  -0.299342  0  1.557222  0
I  I90  1  0.27620440  0.41493007  0.20373982  1  0  -0.351533  0  1.117482  0  0  -0.313515  0  1.430717  0  0  -0.32953  0  1.408611  0  -0.305682  0  -0.191266  -0.302798  0  1.445928  0
I  I91  1  0.72377513  0.58509142  0.79625984  1  0  -0.351629  0  1.117573  0  0  -0.313591  0  1.430795  0  0  -0.329601  0  1.408669  0  -0.3057  0  -0.191298  -0.302871  0  1.446007  0
I  I92  1  0.43066374  0.61447182  0.00355824  1  0  -0.339507  0  1.174632  0  0  -0.296437  0  1.502257  0  0  -0.313209  0  1.480043  0  -0.305014  0  -0.205745  -0.285055  0  1.517571  0
I  I93  1  0.56945109  0.38551063  0.99641267  1  0  -0.339593  0  1.174407  0  0  -0.296565  0  1.502019  0  0  -0.313337  0  1.479799  0  -0.304665  0  -0.205792  -0.285185  0  1.51734  0
I  I94  1  0.23145764  0.93267474  0.00572562  1  0  -0.35577  0  1.162795  0  0  -0.312489  0  1.492966  0  0  -0.329903  0  1.474801  0  -0.326052  0  -0.194632  -0.300586  0  1.505472  0
I  I95  1  0.76855720  0.06729021  0.99428773  1  0  -0.355694  0  1.162794  0  0  -0.312465  0  1.493019  0  0  -0.329877  0  1.474849  0  -0.325903  0  -0.194597  -0.300559  0  1.505526  0
N  N96  1  0.17485515  0.79043454  0.25357222  1  0  -0.249071  0  2.837344  0  0  -0.244336  0  3.116657  0  0  -0.250579  0  3.128379  0  -0.622508  0  -0.216771  -0.240126  0  3.108776  0
N  N97  1  0.82513485  0.20956205  0.74642870  1  0  -0.249178  0  2.83782  0  0  -0.244531  0  3.117077  0  0  -0.250772  0  3.12879  0  -0.622835  0  -0.21686  -0.240325  0  3.109209  0
N  N98  1  0.33765557  0.75795051  0.28219858  1  0  -0.218212  0  3.46438  0  0  -0.164248  0  3.716252  0  0  -0.177203  0  3.730222  0  -0.820761  0  -0.263407  -0.155655  0  3.706797  0
N  N99  1  0.66234063  0.24205348  0.71779993  1  0  -0.218198  0  3.46453  0  0  -0.164107  0  3.716465  0  0  -0.177033  0  3.730458  0  -0.82059  0  -0.263405  -0.155523  0  3.706999  0
N  N100  1  0.29492261  0.68731100  0.20379930  1  0  -0.440448  0  2.957111  0  0  -0.409407  0  3.235338  0  0  -0.425228  0  3.247498  0  -1.16903  0  -0.321618  -0.398592  0  3.226798  0
N  N101  1  0.70509661  0.31268222  0.79621157  1  0  -0.440696  0  2.956757  0  0  -0.409681  0  3.235035  0  0  -0.425481  0  3.247238  0  -1.168158  0  -0.321808  -0.398878  0  3.226502  0
N  N102  1  0.90755099  0.54394068  0.30303637  1  0  -0.275249  0  3.232672  0  0  -0.203606  0  3.494414  0  0  -0.22172  0  3.515333  0  -1.19624  0  -0.313536  -0.191223  0  3.479848  0
N  N103  1  0.09244708  0.45606062  0.69697272  1  0  -0.275146  0  3.232551  0  0  -0.203473  0  3.494313  0  0  -0.221593  0  3.515222  0  -1.196469  0  -0.313549  -0.191089  0  3.479748  0
N  N104  1  0.69290887  0.77720831  0.07398187  1  0  -0.277329  0  3.240959  0  0  -0.20462  0  3.504662  0  0  -0.223494  0  3.526175  0  -1.206421  0  -0.314901  -0.191748  0  3.489667  0
N  N105  1  0.30710901  0.22276068  0.92602747  1  0  -0.277636  0  3.241401  0  0  -0.204993  0  3.505166  0  0  -0.223863  0  3.526669  0  -1.205619  0  -0.315156  -0.192115  0  3.490168  0
N  N106  1  0.73269682  0.96590118  0.58805888  1  0  -0.213877  0  3.468513  0  0  -0.159117  0  3.717411  0  0  -0.172212  0  3.73182  0  -0.788525  0  -0.261887  -0.150362  0  3.707573  0
N  N107  1  0.26729149  0.03411560  0.41192755  1  0  -0.214299  0  3.468641  0  0  -0.159688  0  3.717613  0  0  -0.172789  0  3.732025  0  -0.788351  0  -0.262144  -0.150929  0  3.707776  0
N  N108  1  0.78714432  0.02831692  0.52288365  1  0  -0.252533  0  2.82831  0  0  -0.25588  0  3.101954  0  0  -0.260794  0  3.113655  0  -0.637588  0  -0.227559  -0.252551  0  3.094097  0
N  N109  1  0.21283825  0.97170861  0.47710658  1  0  -0.252162  0  2.828409  0  0  -0.255514  0  3.102006  0  0  -0.260425  0  3.11371  0  -0.63641  0  -0.227398  -0.252188  0  3.094147  0
N  N110  1  0.79615609  0.07324639  0.62616627  1  0  -0.44348  0  2.908402  0  0  -0.416056  0  3.168127  0  0  -0.430348  0  3.178692  0  -1.153613  0  -0.326379  -0.406355  0  3.160717  0
N  N111  1  0.20382557  0.92675894  0.37383307  1  0  -0.443529  0  2.908384  0  0  -0.41611  0  3.168002  0  0  -0.430407  0  3.178572  0  -1.153073  0  -0.326311  -0.406408  0  3.16059  0
N  N112  1  0.06045589  0.32438929  0.40907912  1  0  -0.285597  0  3.237045  0  0  -0.217062  0  3.495125  0  0  -0.234898  0  3.516086  0  -1.21008  0  -0.315382  -0.204936  0  3.480586  0
N  N113  1  0.93951341  0.67562547  0.59091955  1  0  -0.285917  0  3.236765  0  0  -0.217252  0  3.494751  0  0  -0.235082  0  3.515669  0  -1.221181  0  -0.315452  -0.205127  0  3.480214  0
N  N114  1  0.59155026  0.84723262  0.88151644  1  0  -0.279097  0  3.200662  0  0  -0.213718  0  3.457584  0  0  -0.230616  0  3.477512  0  -1.206191  0  -0.30904  -0.202162  0  3.443671  0
N  N115  1  0.40843815  0.15276532  0.11847812  1  0  -0.279194  0  3.200578  0  0  -0.213835  0  3.457572  0  0  -0.230735  0  3.477501  0  -1.206119  0  -0.309053  -0.202277  0  3.443658  0
