# generated using pymatgen
data_CuMoH2C2NO4
_symmetry_space_group_name_H-M   'P 1'
_cell_length_a   5.19879047
_cell_length_b   8.19377576
_cell_length_c   11.99253961
_cell_angle_alpha   89.99976178
_cell_angle_beta   89.99926696
_cell_angle_gamma   103.01613324
_symmetry_Int_Tables_number   1
_chemical_formula_structural   CuMoH2C2NO4
_chemical_formula_sum   'Cu4 Mo4 H8 C8 N4 O16'
_cell_volume   497.72932842
_cell_formula_units_Z   4
loop_
 _symmetry_equiv_pos_site_id
 _symmetry_equiv_pos_as_xyz
  1  'x, y, z'
loop_
 _atom_site_type_symbol
 _atom_site_label
 _atom_site_symmetry_multiplicity
 _atom_site_fract_x
 _atom_site_fract_y
 _atom_site_fract_z
 _atom_site_occupancy
 _atom_site_hle17_ddec_charge
 _atom_site_hle17_ddec_spin_density
 _atom_site_hle17_ddec_sum_bond_order
 _atom_site_hle17_magmom
 _atom_site_hse06_10hf_ddec_charge
 _atom_site_hse06_10hf_ddec_spin_density
 _atom_site_hse06_10hf_ddec_sum_bond_order
 _atom_site_hse06_10hf_magmom
 _atom_site_hse06_ddec_charge
 _atom_site_hse06_ddec_spin_density
 _atom_site_hse06_ddec_sum_bond_order
 _atom_site_hse06_magmom
 _atom_site_pbe_cm5_charge
 _atom_site_pbe_ddec_charge
 _atom_site_pbe_ddec_spin_density
 _atom_site_pbe_ddec_sum_bond_order
 _atom_site_pbe_magmom
Cu  Cu0  1  0.50505688  0.67858361  0.07098842  1  1.084139  -0.660947  1.794272  -0.481  1.114654  -0.777313  2.176313  -0.629  1.191537  -0.873434  2.117203  -0.731  0.729273  1.054141  -0.641509  2.235847  -0.507
Cu  Cu1  1  0.00506560  0.17857969  0.42899310  1  1.084007  0.660915  1.794561  0.481  1.114525  0.777326  2.176597  0.629  1.191472  0.873461  2.117448  0.731  0.729192  1.054039  0.641447  2.236083  0.507
Cu  Cu2  1  0.49494644  0.32140765  0.92901073  1  1.084076  0.660957  1.794312  0.481  1.114555  0.77732  2.176357  0.629  1.191453  0.873429  2.117266  0.731  0.729221  1.054103  0.64152  2.235802  0.507
Cu  Cu3  1  0.99492282  0.82142403  0.57100689  1  1.083976  -0.660897  1.794669  -0.481  1.114518  -0.777317  2.176748  -0.629  1.191435  -0.873452  2.117603  -0.731  0.729194  1.054139  -0.641426  2.236059  -0.507
Mo  Mo4  1  0.90347582  0.41413234  0.14596765  1  2.145552  -0.003369  4.184451  -0.005  2.158042  -0.008935  4.769589  -0.012  2.273175  -0.007353  4.724188  -0.011  1.484759  2.075691  -0.00937  4.798761  -0.012
Mo  Mo5  1  0.40349201  0.91412827  0.35403100  1  2.14533  0.003344  4.184555  0.005  2.157791  0.008926  4.769746  0.012  2.272955  0.007394  4.724295  0.011  1.484707  2.075436  0.009356  4.798961  0.012
Mo  Mo6  1  0.09653074  0.58586269  0.85403484  1  2.145575  0.003354  4.184463  0.005  2.158049  0.00892  4.769587  0.012  2.273184  0.00737  4.724182  0.011  1.4847  2.075699  0.00936  4.798765  0.012
Mo  Mo7  1  0.59650368  0.08587423  0.64596816  1  2.145362  -0.003353  4.184581  -0.005  2.157814  -0.008933  4.769769  -0.012  2.272981  -0.007384  4.724318  -0.011  1.484713  2.075452  -0.009362  4.798981  -0.012
H  H8  1  0.92923089  0.90431759  0.19187208  1  0.109353  -0.000805  0.941441  -0.001  0.112204  -0.000545  1.007521  -0.001  0.113436  -0.000443  1.006211  -0.001  0.12861  0.111359  -0.00055  1.008623  -0.001
H  H9  1  0.42927116  0.40433884  0.30812812  1  0.109232  0.000806  0.941667  0.001  0.112121  0.000545  1.007723  0.001  0.113348  0.000442  1.006414  0.001  0.128556  0.111279  0.00055  1.008822  0.001
H  H10  1  0.07078207  0.09567370  0.80812374  1  0.109261  0.000806  0.94153  0.001  0.112145  0.000546  1.007589  0.001  0.113374  0.000443  1.006284  0.001  0.128574  0.1113  0.000551  1.008691  0.001
H  H11  1  0.57072652  0.59567493  0.69187437  1  0.109262  -0.000806  0.941687  -0.001  0.112131  -0.000545  1.007774  -0.001  0.113359  -0.000443  1.006462  -0.001  0.128596  0.111288  -0.00055  1.008873  -0.001
H  H12  1  0.68172936  0.86523315  0.86108470  1  0.111923  -0.000643  0.954043  -0.001  0.115971  -0.000454  1.019786  -0.001  0.117993  -0.000343  1.017719  -0.001  0.126849  0.114574  -0.00048  1.021424  -0.001
H  H13  1  0.18169452  0.36523969  0.63890701  1  0.111944  0.000645  0.954056  0.001  0.115956  0.000455  1.019794  0.001  0.117979  0.000344  1.017724  0.001  0.126814  0.114515  0.000481  1.021487  0.001
H  H14  1  0.31827956  0.13476313  0.13891279  1  0.11204  0.000644  0.954029  0.001  0.116054  0.000454  1.019752  0.001  0.118078  0.000343  1.01768  0.001  0.126862  0.114627  0.000481  1.021427  0.001
H  H15  1  0.81830447  0.63477783  0.36109464  1  0.112052  -0.000645  0.953993  -0.001  0.116073  -0.000455  1.019699  -0.001  0.118096  -0.000344  1.017632  -0.001  0.126831  0.114647  -0.000481  1.021377  -0.001
C  C16  1  0.96126949  0.94722342  0.10626787  1  0.122782  0.018614  3.603279  0.02  0.098062  0.005483  3.85276  0.007  0.103741  0.006208  3.867656  0.008  0.070564  0.094049  0.004437  3.842629  0.006
C  C17  1  0.46128828  0.44723992  0.39372702  1  0.123047  -0.018636  3.603092  -0.02  0.098268  -0.005481  3.852644  -0.007  0.103953  -0.006212  3.867539  -0.008  0.070659  0.094253  -0.004438  3.842521  -0.006
C  C18  1  0.03873296  0.05276534  0.89372795  1  0.122842  -0.018614  3.603127  -0.02  0.098071  -0.005481  3.85276  -0.007  0.103754  -0.00621  3.867651  -0.008  0.070554  0.094049  -0.004436  3.842653  -0.006
C  C19  1  0.53870232  0.55277007  0.60627463  1  0.122999  0.018636  3.603269  0.02  0.098246  0.005482  3.852823  0.007  0.103933  0.006214  3.867716  0.008  0.070633  0.094237  0.004438  3.842691  0.006
C  C20  1  0.82407290  0.92534523  0.92313029  1  0.102541  0.017833  3.611646  0.019  0.075322  0.005161  3.862348  0.007  0.080429  0.00596  3.876938  0.008  0.063359  0.071479  0.004008  3.852669  0.005
C  C21  1  0.32404460  0.42534869  0.57686296  1  0.102493  -0.017842  3.611943  -0.019  0.075376  -0.005159  3.862505  -0.007  0.080485  -0.00596  3.877095  -0.008  0.063395  0.071555  -0.004006  3.852858  -0.005
C  C22  1  0.17593943  0.07464982  0.07686553  1  0.102427  -0.017834  3.611834  -0.019  0.075333  -0.005164  3.862353  -0.007  0.080443  -0.005958  3.876946  -0.008  0.063377  0.071508  -0.004009  3.852689  -0.005
C  C23  1  0.67594923  0.57466506  0.42314203  1  0.102308  0.017843  3.611844  0.019  0.075199  0.005159  3.862437  0.007  0.080308  0.005958  3.877028  0.008  0.06337  0.071364  0.004007  3.852797  0.005
N  N24  1  0.78778998  0.87349736  0.02910048  1  -0.243132  -0.081384  3.309851  -0.102  -0.201146  -0.055434  3.591642  -0.075  -0.226144  -0.046966  3.608961  -0.066  -0.327054  -0.183991  -0.053732  3.580061  -0.07
N  N25  1  0.28779227  0.37351175  0.47089725  1  -0.243246  0.081396  3.30993  0.102  -0.201298  0.055438  3.591784  0.075  -0.226311  0.046968  3.609107  0.066  -0.327048  -0.184157  0.053728  3.580201  0.07
N  N26  1  0.21221055  0.12649139  0.97089367  1  -0.243136  0.081392  3.309864  0.102  -0.201205  0.05544  3.591726  0.075  -0.22621  0.046967  3.609054  0.066  -0.327057  -0.18406  0.053733  3.58014  0.07
N  N27  1  0.71220541  0.62650202  0.52910857  1  -0.243139  -0.081392  3.309942  -0.102  -0.201216  -0.055434  3.591809  -0.075  -0.226219  -0.046968  3.609119  -0.066  -0.327059  -0.184094  -0.053727  3.580226  -0.07
O  O28  1  0.39910172  0.81651395  0.22443225  1  -0.814802  -0.00451  1.557637  -0.007  -0.817289  -0.00218  1.85572  -0.004  -0.852198  -0.001498  1.838169  -0.003  -0.560621  -0.792635  -0.002504  1.869045  -0.004
O  O29  1  0.89920130  0.31656330  0.27556921  1  -0.814719  0.004512  1.557854  0.007  -0.817261  0.002186  1.856004  0.004  -0.852176  0.001464  1.838466  0.003  -0.560579  -0.792599  0.002508  1.869295  0.004
O  O30  1  0.60088856  0.18347852  0.77556858  1  -0.814784  0.004508  1.55777  0.007  -0.817263  0.002182  1.85585  0.004  -0.852186  0.001481  1.838325  0.003  -0.560593  -0.7926  0.002503  1.86914  0.004
O  O31  1  0.10079800  0.68343295  0.72442828  1  -0.814803  -0.00452  1.557771  -0.007  -0.817335  -0.002183  1.855907  -0.004  -0.852257  -0.001478  1.838385  -0.003  -0.560576  -0.792686  -0.002508  1.869178  -0.004
O  O32  1  0.24089557  0.47445041  0.09777110  1  -0.938743  -0.063993  1.786201  -0.082  -0.961668  -0.03674  2.152002  -0.049  -1.010383  -0.028749  2.131942  -0.04  -0.587924  -0.923873  -0.03825  2.163489  -0.05
O  O33  1  0.74094096  0.97443346  0.40217407  1  -0.9385  0.06399  1.786418  0.082  -0.961349  0.036736  2.152108  0.049  -1.010132  0.028753  2.132158  0.04  -0.587793  -0.923518  0.038244  2.163443  0.05
O  O34  1  0.75911142  0.52554587  0.90222639  1  -0.938681  0.06399  1.786151  0.082  -0.961611  0.036736  2.151972  0.049  -1.010315  0.028748  2.13189  0.04  -0.587897  -0.923838  0.038245  2.16346  0.05
O  O35  1  0.25904423  0.02556651  0.59782675  1  -0.938577  -0.063993  1.786483  -0.082  -0.961449  -0.036738  2.152221  -0.049  -1.01022  -0.028752  2.132261  -0.04  -0.587818  -0.923635  -0.038247  2.163536  -0.05
O  O36  1  0.71465155  0.26607893  0.04996954  1  -0.848089  0.064098  1.69566  0.084  -0.859523  0.03705  2.021856  0.052  -0.909021  0.028884  2.01028  0.042  -0.568527  -0.821912  0.037783  2.028588  0.051
O  O37  1  0.21469691  0.76612273  0.45006894  1  -0.848122  -0.064063  1.695738  -0.084  -0.859568  -0.037038  2.021963  -0.052  -0.909073  -0.028881  2.010384  -0.042  -0.568584  -0.821953  -0.037767  2.028616  -0.051
O  O38  1  0.28535476  0.73390984  0.95003629  1  -0.848057  -0.064094  1.6956  -0.084  -0.859491  -0.037047  2.021818  -0.052  -0.908985  -0.02889  2.010232  -0.042  -0.56854  -0.821865  -0.037785  2.028555  -0.051
O  O39  1  0.78529449  0.23387850  0.54993021  1  -0.848082  0.064066  1.695744  0.084  -0.859518  0.037038  2.021965  0.052  -0.909026  0.028882  2.010382  0.042  -0.568592  -0.82189  0.037767  2.028647  0.051
O  O40  1  0.76415994  0.59267234  0.16318431  1  -0.831566  -0.057932  1.6847  -0.075  -0.834635  -0.036479  2.006898  -0.051  -0.882575  -0.028378  1.992186  -0.041  -0.559292  -0.79891  -0.038235  2.016469  -0.051
O  O41  1  0.26422658  0.09268335  0.33681437  1  -0.831423  0.057921  1.68472  0.075  -0.83458  0.036471  2.007055  0.051  -0.882525  0.028374  1.992337  0.041  -0.559294  -0.798881  0.038223  2.016633  0.051
O  O42  1  0.23583743  0.40732391  0.83681401  1  -0.831529  0.057932  1.684793  0.075  -0.834555  0.036479  2.006945  0.051  -0.882492  0.028382  1.992233  0.041  -0.559242  -0.798845  0.038232  2.016506  0.051
O  O43  1  0.73577594  0.90731667  0.66318396  1  -0.831392  -0.05793  1.684683  -0.075  -0.834516  -0.036478  2.006986  -0.051  -0.882454  -0.028376  1.992263  -0.041  -0.559272  -0.79884  -0.03823  2.016553  -0.051
