# generated using pymatgen
data_FeH3C7O5
_symmetry_space_group_name_H-M   'P 1'
_cell_length_a   10.52753849
_cell_length_b   14.91661742
_cell_length_c   14.92008174
_cell_angle_alpha   120.00974043
_cell_angle_beta   90.00628387
_cell_angle_gamma   90.00628512
_symmetry_Int_Tables_number   1
_chemical_formula_structural   FeH3C7O5
_chemical_formula_sum   'Fe9 H27 C63 O45'
_cell_volume   2028.88007961
_cell_formula_units_Z   9
loop_
 _symmetry_equiv_pos_site_id
 _symmetry_equiv_pos_as_xyz
  1  'x, y, z'
loop_
 _atom_site_type_symbol
 _atom_site_label
 _atom_site_symmetry_multiplicity
 _atom_site_fract_x
 _atom_site_fract_y
 _atom_site_fract_z
 _atom_site_occupancy
 _atom_site_pbe_bader_charge
 _atom_site_pbe_bader_spin_density
 _atom_site_pbe_cm5_charge
 _atom_site_pbe_ddec_charge
 _atom_site_pbe_ddec_spin_density
 _atom_site_pbe_ddec_sum_bond_order
 _atom_site_pbe_magmom
Fe  Fe0  1  0.32776779  0.35968392  0.63906857  1  1.627991  3.949532  0.838211  1.194445  4.488468  2.550048  3.907
Fe  Fe1  1  0.66106356  0.27944713  0.64040588  1  1.628557  3.949397  0.837565  1.193847  4.485977  2.548421  3.907
Fe  Fe2  1  0.99466607  0.36105418  0.72073675  1  1.631061  3.949565  0.838162  1.194656  4.483618  2.547583  3.907
Fe  Fe3  1  0.34466580  0.02253004  0.04151638  1  1.639366  3.960053  0.846754  1.206067  4.50314  2.617134  3.92
Fe  Fe4  1  0.67789900  0.01899187  0.97744846  1  1.642111  3.959928  0.846952  1.206341  4.506705  2.617259  3.92
Fe  Fe5  1  0.01145422  0.95862614  0.98093217  1  1.638856  3.960219  0.846847  1.206257  4.503958  2.617726  3.92
Fe  Fe6  1  0.78865415  0.67968409  0.32044622  1  1.623092  3.948643  0.836722  1.178856  4.486337  2.596214  3.909
Fe  Fe7  1  0.12210490  0.64068329  0.32003838  1  1.623067  3.948895  0.836593  1.177844  4.490351  2.59702  3.909
Fe  Fe8  1  0.45536459  0.67956581  0.35932376  1  1.623107  3.94885  0.836826  1.178649  4.485523  2.595899  3.909
H  H9  1  0.90497601  0.15049893  0.36307871  1  0.089713  0.001352  0.110478  0.137357  0.000131  0.997409  0.0
H  H10  1  0.23778353  0.21227843  0.84924186  1  0.093769  0.001335  0.110258  0.137301  0.000131  0.997032  0.0
H  H11  1  0.57167582  0.63683409  0.78703658  1  0.100596  0.001326  0.111055  0.137964  0.000131  0.997012  0.0
H  H12  1  0.29923538  0.24703141  0.38984276  1  0.100369  0.000789  0.113278  0.137549  -0.0004  1.001041  0.0
H  H13  1  0.63203843  0.14255879  0.75278987  1  0.109057  0.00077  0.113394  0.137598  -0.000395  1.000847  0.0
H  H14  1  0.96566206  0.61047294  0.85776366  1  0.10143  0.000789  0.113688  0.138131  -0.000397  1.000903  0.0
H  H15  1  0.83651512  0.03460830  0.16815976  1  0.661435  0.001624  0.337007  0.390363  0.000571  0.872104  0.002
H  H16  1  0.16963545  0.13364077  0.96547823  1  0.636079  0.001745  0.337077  0.390575  0.000568  0.87235  0.002
H  H17  1  0.50316283  0.83185890  0.86623556  1  0.641981  0.00171  0.337654  0.391423  0.000573  0.870954  0.002
H  H18  1  0.37654585  0.91403336  0.21976639  1  0.107844  0.001161  0.11523  0.142076  -5.4e-05  0.984903  0.0
H  H19  1  0.70957755  0.30584377  0.08604360  1  0.099357  0.001187  0.115407  0.14212  -5.3e-05  0.984634  0.0
H  H20  1  0.04277191  0.77978749  0.69382409  1  0.11254  0.001138  0.115259  0.142028  -5.4e-05  0.984193  0.0
H  H21  1  0.77650249  0.85929143  0.13907455  1  0.107862  0.001149  0.10972  0.135658  -2.4e-05  1.003643  0.0
H  H22  1  0.10957708  0.27948487  0.14029320  1  0.097446  0.001174  0.109968  0.13573  -2.6e-05  1.004486  0.0
H  H23  1  0.44287005  0.86024942  0.72027623  1  0.101543  0.001157  0.109463  0.135265  -2.3e-05  1.004342  0.0
H  H24  1  0.30382767  0.80264214  0.30559537  1  0.639386  0.000658  0.332823  0.385801  0.000103  0.882029  0.001
H  H25  1  0.63711380  0.50311342  0.19769610  1  0.646842  0.000653  0.332874  0.385176  0.000107  0.882294  0.001
H  H26  1  0.97034952  0.69444207  0.49652555  1  0.659717  0.000622  0.332895  0.385701  9.8e-05  0.88218  0.001
H  H27  1  0.74417106  0.92741708  0.46341456  1  0.103782  0.000847  0.110346  0.13416  -0.000378  1.011224  0.0
H  H28  1  0.07766075  0.53626693  0.07278182  1  0.096847  0.000853  0.110648  0.134347  -0.000383  1.011169  0.0
H  H29  1  0.41026056  0.53668037  0.46400354  1  0.106472  0.000827  0.110537  0.13438  -0.000377  1.010978  0.0
H  H30  1  0.13803014  0.99883712  0.56041183  1  0.096175  0.001232  0.113599  0.142566  4.5e-05  0.981954  0.0
H  H31  1  0.47152999  0.56175844  0.00154260  1  0.120995  0.001148  0.113465  0.142462  4.7e-05  0.981982  0.0
H  H32  1  0.80414549  0.43997283  0.43860439  1  0.114325  0.001159  0.113406  0.142371  4.7e-05  0.982093  0.0
H  H33  1  0.17960189  0.20140904  0.67607779  1  0.647799  0.001499  0.319766  0.38256  0.000625  0.921068  0.002
H  H34  1  0.51311362  0.47464687  0.79888628  1  0.679748  0.001386  0.31999  0.383044  0.000625  0.919431  0.002
H  H35  1  0.84584981  0.32433371  0.52539389  1  0.666474  0.001442  0.319858  0.382857  0.00063  0.91911  0.002
C  C36  1  0.10029161  0.26153118  0.50050459  1  1.468872  0.013955  0.235322  0.619578  0.009632  4.10835  0.012
C  C37  1  0.43334037  0.23871069  0.73829085  1  1.478921  0.013836  0.235316  0.619135  0.009606  4.10947  0.012
C  C38  1  0.76720057  0.49959519  0.76098432  1  1.47216  0.013946  0.23574  0.620593  0.009628  4.106007  0.012
C  C39  1  0.10160242  0.20399067  0.38644850  1  0.032033  0.025816  -0.027377  -0.035839  0.012567  4.060974  0.015
C  C40  1  0.43446878  0.18218722  0.79581106  1  0.026321  0.025936  -0.027746  -0.036437  0.012592  4.062501  0.015
C  C41  1  0.76819996  0.61367634  0.81766042  1  0.056607  0.02573  -0.027993  -0.03641  0.012594  4.061482  0.015
C  C42  1  0.99602651  0.14704589  0.32663967  1  0.047586  0.043415  -0.105758  -0.236984  0.021335  3.967483  0.024
C  C43  1  0.32888701  0.17939741  0.85275628  1  0.050824  0.043221  -0.105171  -0.23634  0.02128  3.966749  0.024
C  C44  1  0.66264365  0.67335865  0.82022307  1  0.004979  0.043414  -0.106052  -0.237843  0.021253  3.967785  0.024
C  C45  1  0.01426700  0.08090703  0.22082545  1  0.427167  0.018476  0.066948  0.216594  0.00847  4.07062  0.009
C  C46  1  0.34725414  0.13987842  0.91901913  1  0.444789  0.018406  0.066895  0.21702  0.008504  4.069886  0.009
C  C47  1  0.68088254  0.77921067  0.85999109  1  0.437725  0.018537  0.067399  0.218401  0.008492  4.068333  0.009
C  C48  1  0.13456848  0.07323090  0.17738253  1  0.540687  0.048765  0.061353  0.112373  0.024239  4.092512  0.028
C  C49  1  0.46761339  0.10422674  0.92680211  1  0.505043  0.049071  0.061287  0.112124  0.024235  4.092505  0.028
C  C50  1  0.80117137  0.82273574  0.89583923  1  0.545066  0.048711  0.060567  0.110202  0.02422  4.09527  0.028
C  C51  1  0.23713098  0.13693532  0.23607381  1  0.626929  0.018983  0.06966  0.241037  0.009259  4.18725  0.005
C  C52  1  0.57015341  0.09911436  0.86306958  1  0.641224  0.018824  0.069341  0.241033  0.009258  4.188513  0.005
C  C53  1  0.90368682  0.76414839  0.90105723  1  0.684804  0.018411  0.06981  0.241766  0.009247  4.188353  0.005
C  C54  1  0.22027988  0.20095278  0.34209723  1  0.020113  0.054319  -0.094516  -0.199514  0.026654  3.93114  0.032
C  C55  1  0.55316017  0.14092756  0.79891872  1  -0.000761  0.054382  -0.094291  -0.199346  0.026648  3.931527  0.032
C  C56  1  0.88676052  0.65816239  0.85925839  1  -0.042703  0.054766  -0.094683  -0.200079  0.026582  3.932712  0.032
C  C57  1  0.55796267  0.93963542  0.11016851  1  1.51078  0.012284  0.232129  0.618572  0.008699  4.117905  0.01
C  C58  1  0.89108876  0.17054974  0.06033080  1  1.50565  0.012313  0.232502  0.619255  0.008737  4.118187  0.01
C  C59  1  0.22438144  0.88952674  0.82927997  1  1.508977  0.012273  0.232569  0.618437  0.008687  4.118822  0.01
C  C60  1  0.57563191  0.89235329  0.17567181  1  -0.003875  0.026564  -0.027629  -0.034414  0.012867  4.053672  0.016
C  C61  1  0.90872844  0.28331233  0.10754696  1  -0.016522  0.026562  -0.027504  -0.03557  0.01284  4.055097  0.016
C  C62  1  0.24196520  0.82376654  0.71650375  1  -0.018053  0.026564  -0.027507  -0.035971  0.012849  4.055449  0.016
C  C63  1  0.46748354  0.88338481  0.22680151  1  0.064517  0.049618  -0.098031  -0.217085  0.024418  3.957261  0.028
C  C64  1  0.80057948  0.34348108  0.11669289  1  0.07727  0.049496  -0.097893  -0.216205  0.024388  3.958123  0.028
C  C65  1  0.13382678  0.77276032  0.65624157  1  -0.003596  0.049786  -0.097753  -0.215811  0.024396  3.956982  0.028
C  C66  1  0.48051866  0.83554436  0.28556841  1  0.415058  0.013049  0.064598  0.210909  0.005897  4.082751  0.005
C  C67  1  0.81377133  0.45008998  0.16461939  1  0.392877  0.013092  0.064487  0.210026  0.005862  4.082919  0.005
C  C68  1  0.14696990  0.71414500  0.54962237  1  0.440384  0.013043  0.064248  0.209732  0.005881  4.082025  0.005
C  C69  1  0.59828116  0.79479906  0.28956801  1  0.555999  0.054936  0.062755  0.11335  0.027278  4.096158  0.032
C  C70  1  0.93164791  0.49473947  0.20520132  1  0.524222  0.055296  0.062819  0.11295  0.02732  4.095117  0.032
C  C71  1  0.26485886  0.71011615  0.50502015  1  0.542815  0.055019  0.062993  0.113182  0.027231  4.097497  0.032
C  C72  1  0.70701161  0.80206166  0.23762734  1  0.669712  0.020345  0.072376  0.244449  0.009786  4.164692  0.006
C  C73  1  0.04040105  0.43544044  0.19769040  1  0.720462  0.019766  0.072368  0.245068  0.009713  4.162905  0.005
C  C74  1  0.37351687  0.76196666  0.56439293  1  0.64771  0.020486  0.07217  0.244403  0.009777  4.165443  0.006
C  C75  1  0.69535057  0.85405054  0.18151459  1  -0.062953  0.051972  -0.097812  -0.215405  0.025224  3.924483  0.03
C  C76  1  0.02855570  0.32734082  0.14568698  1  -0.045494  0.051846  -0.09835  -0.215149  0.025188  3.925337  0.03
C  C77  1  0.36176048  0.81788024  0.67246750  1  0.020229  0.051149  -0.098  -0.214172  0.025152  3.925453  0.03
C  C78  1  0.97025575  0.83999346  0.44887267  1  1.503136  0.013604  0.229798  0.604179  0.009249  4.114861  0.01
C  C79  1  0.30379828  0.60914756  0.16013750  1  1.495785  0.013691  0.229763  0.603231  0.009304  4.116797  0.01
C  C80  1  0.63648846  0.55106482  0.39099692  1  1.501144  0.013656  0.230494  0.604738  0.009271  4.115047  0.01
C  C81  1  0.94360673  0.95270656  0.50731140  1  0.008983  0.026689  -0.023862  -0.025833  0.012889  4.026753  0.015
C  C82  1  0.27713994  0.55468549  0.04747609  1  -0.009571  0.026802  -0.023301  -0.023018  0.01289  4.026524  0.015
C  C83  1  0.60973535  0.49290801  0.44548711  1  -0.027285  0.026723  -0.023839  -0.02445  0.012825  4.026817  0.015
C  C84  1  0.81751229  0.98395400  0.50715770  1  0.013054  0.054018  -0.093211  -0.199953  0.026399  3.907772  0.032
C  C85  1  0.15103624  0.52324887  0.01623230  1  -0.025221  0.054439  -0.094394  -0.202068  0.026354  3.908541  0.032
C  C86  1  0.48365132  0.49307538  0.47691514  1  0.028264  0.053853  -0.094601  -0.201753  0.026376  3.90804  0.032
C  C87  1  0.78683445  0.08939010  0.56193135  1  0.629826  0.021715  0.068711  0.239419  0.010716  4.164849  0.007
C  C88  1  0.12032274  0.47247238  0.91082647  1  0.694289  0.020965  0.068962  0.239304  0.010689  4.164664  0.007
C  C89  1  0.45305590  0.43842218  0.52770169  1  0.630973  0.02147  0.069499  0.240051  0.010632  4.164348  0.007
C  C90  1  0.88157171  0.16035631  0.62486733  1  0.545318  0.05395  0.058777  0.110013  0.026678  4.10191  0.03
C  C91  1  0.21517927  0.46432989  0.83991610  1  0.550392  0.053771  0.059213  0.111148  0.02653  4.101028  0.03
C  C92  1  0.54783818  0.37556217  0.53578163  1  0.517241  0.053972  0.058557  0.109612  0.026507  4.102309  0.03
C  C93  1  0.00743604  0.12891461  0.62399409  1  0.447786  0.016668  0.066465  0.219304  0.007604  4.062399  0.007
C  C94  1  0.34103594  0.49492310  0.87133663  1  0.455616  0.016718  0.066417  0.218127  0.007624  4.064414  0.007
C  C95  1  0.67366874  0.37649944  0.50524679  1  0.47739  0.016395  0.066243  0.218956  0.007564  4.063291  0.007
C  C96  1  0.04073575  0.02501807  0.56312479  1  0.005189  0.046965  -0.101458  -0.228059  0.022955  3.949606  0.026
C  C97  1  0.37429730  0.53810157  0.97524071  1  -0.033993  0.046917  -0.101285  -0.228557  0.022865  3.951128  0.026
C  C98  1  0.70689073  0.43728552  0.46214465  1  0.001399  0.046849  -0.101237  -0.228751  0.0229  3.951755  0.026
O  O99  1  0.20610106  0.26036791  0.54245410  1  -1.1377  0.145618  -0.315003  -0.55808  0.069284  2.420882  0.114
O  O100  1  0.53920338  0.28177826  0.73946983  1  -1.139066  0.145266  -0.314535  -0.557607  0.069164  2.420406  0.114
O  O101  1  0.87315130  0.45783812  0.71808066  1  -1.138144  0.145068  -0.314792  -0.558078  0.069141  2.420013  0.113
O  O102  1  0.00184997  0.30695418  0.55472145  1  -1.166163  0.090114  -0.290648  -0.551568  0.043258  2.300636  0.071
O  O103  1  0.33499453  0.24748311  0.69275307  1  -1.166942  0.08984  -0.290696  -0.550937  0.043134  2.302221  0.071
O  O104  1  0.66882689  0.44517568  0.75201594  1  -1.171459  0.090418  -0.290934  -0.55214  0.043327  2.300591  0.071
O  O105  1  0.92589297  0.01492402  0.14981283  1  -1.17276  0.047909  -0.333801  -0.465248  0.022667  2.42698  0.036
O  O106  1  0.25902834  0.13499309  0.98513816  1  -1.148003  0.047951  -0.333737  -0.46564  0.022746  2.427829  0.036
O  O107  1  0.59255546  0.85022385  0.86497511  1  -1.160135  0.048118  -0.33461  -0.467046  0.022802  2.426243  0.037
O  O108  1  0.15843480  0.00709504  0.07716671  1  -1.122966  0.244416  -0.33105  -0.524379  0.122076  2.527131  0.193
O  O109  1  0.49155680  0.07022900  0.99299769  1  -1.114766  0.244199  -0.331038  -0.524702  0.122086  2.52736  0.193
O  O110  1  0.82507070  0.92293254  0.92978187  1  -1.119298  0.244451  -0.329991  -0.522676  0.12176  2.526721  0.194
O  O111  1  0.34311796  0.12908303  0.18483941  1  -1.053586  0.27295  -0.322249  -0.470912  0.128682  2.232356  0.228
O  O112  1  0.67622003  0.05588582  0.87103073  1  -1.053896  0.272679  -0.322169  -0.471099  0.128548  2.233585  0.227
O  O113  1  0.00974925  0.81537877  0.94430922  1  -1.053619  0.272543  -0.322608  -0.471434  0.128635  2.233539  0.227
O  O114  1  0.65065741  0.98666959  0.09559488  1  -1.169075  0.103544  -0.305633  -0.568824  0.049931  2.313587  0.08
O  O115  1  0.98379804  0.10897783  0.01327167  1  -1.16196  0.103877  -0.305909  -0.569226  0.050092  2.31459  0.08
O  O116  1  0.31703579  0.90416687  0.89093096  1  -1.161237  0.103264  -0.305736  -0.568854  0.0498  2.31242  0.08
O  O117  1  0.44833751  0.92864700  0.06839766  1  -1.139107  0.14414  -0.312536  -0.555147  0.068893  2.347054  0.114
O  O118  1  0.78154780  0.13973472  0.07142646  1  -1.140188  0.144453  -0.312551  -0.555073  0.068951  2.347188  0.114
O  O119  1  0.11489716  0.93160462  0.86003506  1  -1.141891  0.144283  -0.313002  -0.555225  0.069002  2.3467  0.114
O  O120  1  0.38578853  0.82202166  0.34257001  1  -1.140587  0.053892  -0.337415  -0.454389  0.02547  2.360454  0.042
O  O121  1  0.71905974  0.52073206  0.17831271  1  -1.145615  0.054235  -0.337378  -0.45312  0.02559  2.360633  0.042
O  O122  1  0.05220181  0.65729666  0.47897069  1  -1.154537  0.053979  -0.337535  -0.453716  0.025522  2.360314  0.042
O  O123  1  0.61246721  0.74046900  0.33829713  1  -1.125481  0.242673  -0.335045  -0.522244  0.121045  2.570187  0.19
O  O124  1  0.94587251  0.59783221  0.25951523  1  -1.128886  0.242651  -0.334667  -0.52196  0.12126  2.568699  0.19
O  O125  1  0.27910777  0.66150408  0.40199000  1  -1.134917  0.242701  -0.334644  -0.521771  0.121278  2.570558  0.19
O  O126  1  0.80949284  0.75403330  0.24408242  1  -1.054661  0.275958  -0.316146  -0.466246  0.130013  2.212931  0.233
O  O127  1  0.14301327  0.48989755  0.24549819  1  -1.052701  0.275553  -0.316473  -0.466255  0.129682  2.211299  0.233
O  O128  1  0.47611641  0.75556997  0.51004084  1  -1.047336  0.27572  -0.316193  -0.466244  0.129705  2.21192  0.233
O  O129  1  0.07588840  0.80308853  0.40457105  1  -1.148948  0.104694  -0.293897  -0.529602  0.050314  2.23584  0.082
O  O130  1  0.40944917  0.60182926  0.19706595  1  -1.14735  0.104878  -0.293695  -0.529508  0.050481  2.238704  0.082
O  O131  1  0.74213547  0.59539884  0.39843701  1  -1.150388  0.104772  -0.294248  -0.530224  0.050417  2.23649  0.082
O  O132  1  0.87866917  0.78023537  0.44717982  1  -1.14951  0.141787  -0.323875  -0.585688  0.067815  2.341125  0.111
O  O133  1  0.21220772  0.66723106  0.21984335  1  -1.146802  0.141934  -0.323942  -0.585274  0.067813  2.34125  0.111
O  O134  1  0.54505151  0.55257313  0.33274857  1  -1.149177  0.141843  -0.324208  -0.585757  0.06776  2.339584  0.111
O  O135  1  0.67537275  0.13041281  0.56008044  1  -1.05319  0.274919  -0.322412  -0.477973  0.129687  2.218986  0.23
O  O136  1  0.00880295  0.42976823  0.86978503  1  -1.050373  0.274623  -0.322458  -0.477516  0.129685  2.218244  0.23
O  O137  1  0.34159264  0.44021495  0.57053716  1  -1.05209  0.274495  -0.322293  -0.477834  0.129648  2.217822  0.23
O  O138  1  0.84732997  0.26007771  0.68107301  1  -1.11497  0.238831  -0.324047  -0.51979  0.118748  2.465545  0.192
O  O139  1  0.18085054  0.42089599  0.74023374  1  -1.116093  0.238655  -0.324634  -0.520481  0.118543  2.468709  0.192
O  O140  1  0.51363628  0.31922262  0.57913499  1  -1.113473  0.238383  -0.324061  -0.519542  0.118407  2.467213  0.192
O  O141  1  0.08560153  0.21051441  0.68839033  1  -1.160969  0.065367  -0.339584  -0.474098  0.031423  2.468784  0.051
O  O142  1  0.41915388  0.47778605  0.78975136  1  -1.19466  0.065122  -0.339852  -0.474195  0.031168  2.46731  0.05
O  O143  1  0.75190831  0.31205656  0.52234752  1  -1.176387  0.065209  -0.33915  -0.473459  0.031317  2.466569  0.05
