# generated using pymatgen
data_CuH10C12(N5O2)2
_symmetry_space_group_name_H-M   'P 1'
_cell_length_a   6.91246485
_cell_length_b   12.83146765
_cell_length_c   21.89481629
_cell_angle_alpha   84.92762933
_cell_angle_beta   80.90384102
_cell_angle_gamma   74.34829520
_symmetry_Int_Tables_number   1
_chemical_formula_structural   CuH10C12(N5O2)2
_chemical_formula_sum   'Cu4 H40 C48 N40 O16'
_cell_volume   1844.33924310
_cell_formula_units_Z   4
loop_
 _symmetry_equiv_pos_site_id
 _symmetry_equiv_pos_as_xyz
  1  'x, y, z'
loop_
 _atom_site_type_symbol
 _atom_site_label
 _atom_site_symmetry_multiplicity
 _atom_site_fract_x
 _atom_site_fract_y
 _atom_site_fract_z
 _atom_site_occupancy
 _atom_site_pbe_bader_charge
 _atom_site_pbe_bader_spin_density
 _atom_site_pbe_cm5_charge
 _atom_site_pbe_ddec_charge
 _atom_site_pbe_ddec_spin_density
 _atom_site_pbe_ddec_sum_bond_order
 _atom_site_pbe_magmom
Cu  Cu0  1  0.47552317  0.72273065  0.65745979  1  1.037843  -0.545157  0.734458  0.767556  -0.721768  2.231381  -0.544
Cu  Cu1  1  0.85566451  0.77734654  0.84253843  1  1.03702  0.54523  0.734836  0.767224  0.760404  2.231881  0.544
Cu  Cu2  1  0.52444356  0.27727005  0.34253710  1  1.037806  -0.545345  0.734462  0.767618  -0.722042  2.231474  -0.544
Cu  Cu3  1  0.14435937  0.22264787  0.15746743  1  1.036717  -0.545491  0.734799  0.767228  -0.721879  2.231497  -0.544
H  H4  1  0.38748908  0.97785870  0.65468771  1  0.167203  -0.000155  0.147476  0.122672  -3.6e-05  0.952388  0.0
H  H5  1  0.02013022  0.52210566  0.84525844  1  0.174256  0.00015  0.147233  0.12241  4.5e-05  0.952639  0.0
H  H6  1  0.61246390  0.02215516  0.34531730  1  0.171268  -9.9e-05  0.147482  0.122555  8e-06  0.952454  0.0
H  H7  1  0.97989160  0.47789014  0.15473739  1  0.174526  -9.8e-05  0.147287  0.12248  7e-06  0.952606  0.0
H  H8  1  0.21883581  0.73075181  0.43447156  1  0.114537  -2e-05  0.109966  0.075714  -9e-06  1.032682  0.0
H  H9  1  0.38424076  0.76944694  0.06550557  1  0.114707  -7e-06  0.109807  0.075385  -6e-06  1.032841  0.0
H  H10  1  0.78112118  0.26927811  0.56552682  1  0.114436  -1.9e-05  0.109935  0.075647  -7e-06  1.032683  0.0
H  H11  1  0.61578333  0.23054410  0.93449455  1  0.114464  6e-06  0.109807  0.075402  5e-06  1.032873  0.0
H  H12  1  0.17437547  0.91768286  0.38441185  1  0.150637  3.4e-05  0.113563  0.158752  3.3e-05  1.011498  0.0
H  H13  1  0.47664488  0.58250320  0.11558913  1  0.150857  1.8e-05  0.114193  0.159231  2.2e-05  1.010732  0.0
H  H14  1  0.82558154  0.08234391  0.61559037  1  0.150292  -1.8e-05  0.113587  0.158843  -2.1e-05  1.011639  0.0
H  H15  1  0.52338775  0.41748535  0.88440888  1  0.150683  3.6e-05  0.114201  0.159197  3.5e-05  1.010667  0.0
H  H16  1  0.22422857  0.14778253  0.46808353  1  0.526636  -9.3e-05  0.297091  0.292933  -9.9e-05  1.017678  0.0
H  H17  1  0.84043185  0.35224878  0.03183280  1  0.522249  -6.3e-05  0.29666  0.292169  -3.4e-05  1.018872  0.0
H  H18  1  0.77573897  0.85224669  0.53191986  1  0.526813  3.5e-05  0.297062  0.292888  2.5e-05  1.017669  0.0
H  H19  1  0.15959703  0.64774143  0.96816668  1  0.522329  -6.7e-05  0.296765  0.292389  -8.6e-05  1.01868  0.0
H  H20  1  0.17349773  0.10513725  0.39824330  1  0.533672  -0.000296  0.299877  0.31761  -0.000411  0.980977  0.0
H  H21  1  0.67744288  0.39494313  0.10173488  1  0.535597  -0.000117  0.299692  0.317012  -0.000305  0.98162  0.0
H  H22  1  0.82646032  0.89489038  0.60176065  1  0.533741  0.000136  0.29996  0.317709  0.000375  0.98086  0.0
H  H23  1  0.32260805  0.60504387  0.89826599  1  0.535561  -0.000315  0.299682  0.31699  -0.00046  0.981646  0.0
H  H24  1  0.55268736  0.48066781  0.64109177  1  0.175785  -1.5e-05  0.143655  0.12086  2.4e-05  0.971381  0.0
H  H25  1  0.67420713  0.01954209  0.85886468  1  0.176402  1.6e-05  0.143663  0.121157  -1.3e-05  0.970864  0.0
H  H26  1  0.44726950  0.51934734  0.35889927  1  0.175279  -1.4e-05  0.14362  0.120928  2.5e-05  0.971227  0.0
H  H27  1  0.32579804  0.98044256  0.14113949  1  0.176639  -1.5e-05  0.143699  0.121318  2.4e-05  0.970845  0.0
H  H28  1  0.84790184  0.78077013  0.41516383  1  0.120672  -1.7e-05  0.115585  0.083603  -1e-05  1.011111  0.0
H  H29  1  0.04300851  0.71904114  0.08475077  1  0.126552  -1.2e-05  0.115383  0.083186  -1.1e-05  1.012427  0.0
H  H30  1  0.15209576  0.21923943  0.58483102  1  0.120913  -1.7e-05  0.115564  0.083616  -7e-06  1.011048  0.0
H  H31  1  0.95701923  0.28095146  0.91524725  1  0.126679  1.2e-05  0.115393  0.083236  1.2e-05  1.01231  0.0
H  H32  1  0.92112561  0.60674591  0.36216743  1  0.094012  2.8e-05  0.119798  0.156729  1.7e-05  0.968489  0.0
H  H33  1  0.88944791  0.89313183  0.13777236  1  0.093704  2e-05  0.11993  0.157252  1e-05  0.96906  0.0
H  H34  1  0.07888406  0.39326289  0.63782961  1  0.094171  3e-06  0.119811  0.156891  2e-06  0.968351  0.0
H  H35  1  0.11056980  0.10685427  0.86222471  1  0.093645  5e-06  0.119965  0.157282  7e-06  0.969097  0.0
H  H36  1  0.79560501  0.36092244  0.45058839  1  0.536762  -4.4e-05  0.298328  0.293261  -5.3e-05  1.018823  0.0
H  H37  1  0.60673538  0.13928629  0.04937915  1  0.530921  -1e-05  0.297765  0.292322  1.8e-05  1.020868  0.0
H  H38  1  0.20436906  0.63909036  0.54940605  1  0.536416  -3.2e-05  0.298329  0.293252  -3.5e-05  1.018811  0.0
H  H39  1  0.39326125  0.86070397  0.95062237  1  0.530675  -2e-06  0.297757  0.292323  -3.2e-05  1.020965  0.0
H  H40  1  0.92601958  0.39902433  0.38092203  1  0.556706  -5.9e-05  0.306623  0.333243  -4.1e-05  0.957976  0.0
H  H41  1  0.70599328  0.10101442  0.11899471  1  0.532014  0.000139  0.306342  0.332622  8.2e-05  0.959231  0.0
H  H42  1  0.07398315  0.60098367  0.61907540  1  0.556554  -0.000123  0.306569  0.333183  -6.7e-05  0.958004  0.0
H  H43  1  0.29401252  0.89897503  0.88100685  1  0.531966  -7.3e-05  0.306348  0.332634  -5e-05  0.959345  0.0
C  C44  1  0.37117329  0.75159556  0.78196334  1  1.579489  0.003619  0.19337  0.449571  0.001496  4.268644  0.004
C  C45  1  0.90556108  0.74862101  0.71801972  1  1.57281  -0.003661  0.193052  0.449301  -0.001218  4.268892  -0.004
C  C46  1  0.62883898  0.24838970  0.21803222  1  1.579541  0.004091  0.193464  0.449464  0.002257  4.268517  0.004
C  C47  1  0.09447192  0.25137265  0.28198894  1  1.572303  0.004096  0.192907  0.449112  0.002244  4.269194  0.004
C  C48  1  0.44059254  0.62752033  0.77418510  1  1.588569  0.003989  0.19519  0.46911  0.002017  4.239519  0.004
C  C49  1  0.84296393  0.87265553  0.72582640  1  1.585182  -0.004009  0.194896  0.469206  -0.001737  4.24251  -0.004
C  C50  1  0.55943929  0.37246987  0.22581378  1  1.588213  0.004147  0.19536  0.469406  0.002147  4.239008  0.004
C  C51  1  0.15704410  0.12734135  0.27418056  1  1.585802  0.004128  0.194938  0.469294  0.002135  4.242701  0.004
C  C52  1  0.34998960  0.95313896  0.61287027  1  0.996074  1.8e-05  0.16198  0.186083  -0.000164  3.97848  0.0
C  C53  1  0.91596360  0.54684368  0.88707312  1  0.991649  1.1e-05  0.162152  0.185074  0.000322  3.977591  0.0
C  C54  1  0.64996151  0.04687573  0.38713524  1  0.992099  5e-05  0.162101  0.18633  -0.000131  3.97831  0.0
C  C55  1  0.08405719  0.45314815  0.11292620  1  0.991066  2.6e-05  0.162126  0.18498  -0.000166  3.977339  0.0
C  C56  1  0.30109317  0.84952422  0.54759796  1  1.492929  -0.002222  0.340547  0.422428  -0.002117  4.064753  -0.002
C  C57  1  0.69818318  0.65052137  0.95233924  1  1.538864  0.002216  0.341009  0.423298  0.002296  4.064465  0.002
C  C58  1  0.69887572  0.15049923  0.45240114  1  1.492628  -0.002217  0.340478  0.422328  -0.002109  4.064198  -0.002
C  C59  1  0.30183203  0.34947289  0.04766021  1  1.538665  -0.002197  0.341074  0.423269  -0.002095  4.064564  -0.002
C  C60  1  0.23402460  0.79724846  0.45946464  1  0.451436  0.000343  0.040426  0.130136  0.000244  4.035137  0.0
C  C61  1  0.49081838  0.70288148  0.04050457  1  0.457202  -0.000348  0.04155  0.132131  -0.000241  4.031864  0.0
C  C62  1  0.76592543  0.20278069  0.54053504  1  0.462534  0.000361  0.040538  0.130179  0.00026  4.035103  0.0
C  C63  1  0.50920317  0.29710875  0.95949572  1  0.457526  0.00034  0.041514  0.131947  0.000254  4.032011  0.0
C  C64  1  0.20873499  0.90022476  0.43158461  1  0.008919  -0.000738  -0.11375  -0.326337  -0.000475  3.960816  0.0
C  C65  1  0.54070183  0.59991635  0.06840307  1  -0.010327  0.000666  -0.114803  -0.328089  0.000452  3.961138  0.0
C  C66  1  0.79120161  0.09980780  0.56842238  1  -0.001589  -0.00081  -0.113848  -0.326443  -0.00052  3.961068  0.0
C  C67  1  0.45932215  0.40007794  0.93159732  1  -0.010498  -0.000668  -0.114702  -0.327845  -0.000428  3.961129  0.0
C  C68  1  0.22478866  0.98622378  0.46477851  1  0.992916  -0.000284  0.250341  0.410515  -0.000264  4.074745  0.0
C  C69  1  0.67588093  0.51385689  0.03519603  1  1.015747  0.000347  0.251216  0.41115  0.000318  4.07493  0.0
C  C70  1  0.77517414  0.01380308  0.53522753  1  0.992493  -0.000351  0.250095  0.410158  -0.000307  4.074649  0.0
C  C71  1  0.32414945  0.48613329  0.96480200  1  1.016154  -0.000304  0.251081  0.410939  -0.000265  4.074968  0.0
C  C72  1  0.61048485  0.51613565  0.59754763  1  0.999324  0.000275  0.155391  0.166959  0.000147  4.000184  0.0
C  C73  1  0.72380436  0.98399443  0.90240604  1  0.994671  -0.000294  0.1553  0.166441  -2.1e-05  4.00108  0.0
C  C74  1  0.38947799  0.48387622  0.40244194  1  0.999622  0.000281  0.155378  0.167237  0.000156  4.00043  0.0
C  C75  1  0.27620771  0.01599107  0.09760002  1  0.993724  0.000296  0.1553  0.166257  0.000144  4.001134  0.0
C  C76  1  0.69865135  0.63590728  0.53165336  1  1.505216  -0.002444  0.342123  0.421427  -0.002373  4.062643  -0.002
C  C77  1  0.86586168  0.86415088  0.96828424  1  1.480421  0.002451  0.341371  0.421575  0.002529  4.063242  0.002
C  C78  1  0.30132235  0.36410632  0.46834060  1  1.505315  -0.002453  0.342015  0.420187  -0.002399  4.063661  -0.002
C  C79  1  0.13416070  0.13583455  0.03171903  1  1.480748  -0.002452  0.341347  0.42144  -0.002355  4.062965  -0.002
C  C80  1  0.81777764  0.70854393  0.44065494  1  0.499687  0.000398  0.048703  0.135917  0.000286  4.023677  0.0
C  C81  1  0.96635614  0.79139042  0.05927681  1  0.477951  -0.000432  0.04832  0.136069  -0.000306  4.025603  0.0
C  C82  1  0.18220923  0.29146967  0.55933928  1  0.499224  0.000405  0.048804  0.136249  0.000296  4.023468  0.0
C  C83  1  0.03365914  0.20860065  0.94072465  1  0.478169  0.000426  0.048268  0.13594  0.000322  4.025415  0.0
C  C84  1  0.85655380  0.61225174  0.41079303  1  0.010431  -0.000828  -0.114395  -0.333801  -0.000529  3.972422  0.0
C  C85  1  0.87906273  0.88771785  0.08913990  1  0.05439  0.000783  -0.114468  -0.334787  0.000539  3.973942  0.0
C  C86  1  0.14343259  0.38776590  0.58920052  1  0.010434  -0.000812  -0.114492  -0.334  -0.000523  3.973366  0.0
C  C87  1  0.12093813  0.11226671  0.91086037  1  0.054041  -0.000793  -0.11442  -0.334669  -0.000511  3.973789  0.0
C  C88  1  0.81529280  0.51963954  0.44393107  1  0.984172  -0.000237  0.251365  0.415243  -0.000234  4.087322  0.0
C  C89  1  0.77857080  0.98045130  0.05599682  1  0.939541  0.000267  0.250753  0.413344  0.000275  4.0895  0.0
C  C90  1  0.18469721  0.48036757  0.55606292  1  0.983535  -0.000248  0.251325  0.413688  -0.000244  4.089032  0.0
C  C91  1  0.22142962  0.01953412  0.94400570  1  0.940084  -0.000257  0.250591  0.413119  -0.000246  4.090031  0.0
N  N92  1  0.30005545  0.02185387  0.56547754  1  -0.68639  -0.005616  -0.224967  -0.252306  -0.003731  3.108674  -0.004
N  N93  1  0.88727972  0.47814401  0.93446048  1  -0.688524  0.00552  -0.224419  -0.25077  0.003879  3.108391  0.004
N  N94  1  0.69990822  0.97816816  0.43452967  1  -0.686076  -0.005578  -0.22503  -0.252314  -0.003715  3.10869  -0.004
N  N95  1  0.11273700  0.52185021  0.06553707  1  -0.688204  -0.005537  -0.224384  -0.250764  -0.003676  3.108111  -0.004
N  N96  1  0.35471634  0.84838687  0.60468894  1  -1.195159  -0.06122  -0.380995  -0.425943  -0.042341  3.554236  -0.052
N  N97  1  0.80779739  0.65163440  0.89524777  1  -1.200827  0.061215  -0.381586  -0.426005  0.044631  3.552147  0.052
N  N98  1  0.64523595  0.15162850  0.39531099  1  -1.195274  -0.061209  -0.381206  -0.42612  -0.042333  3.554192  -0.052
N  N99  1  0.19222819  0.34835659  0.10475045  1  -1.201205  -0.061206  -0.381602  -0.425914  -0.042328  3.55209  -0.052
N  N100  1  0.27806915  0.76907774  0.51753048  1  -1.225839  -0.001352  -0.329055  -0.384836  -0.000773  3.380951  -0.001
N  N101  1  0.56455601  0.73097656  0.98239869  1  -1.262479  0.001129  -0.330046  -0.386782  0.000665  3.382628  0.001
N  N102  1  0.72190360  0.23094081  0.48246688  1  -1.226135  -0.001354  -0.329044  -0.384684  -0.00077  3.380833  -0.001
N  N103  1  0.43547463  0.26901607  0.01760055  1  -1.261746  -0.001162  -0.330033  -0.386721  -0.000637  3.382665  -0.001
N  N104  1  0.19692202  0.08863533  0.44402574  1  -1.31601  -0.000985  -0.548982  -0.570749  -0.000592  3.375528  -0.001
N  N105  1  0.72977600  0.41141915  0.05590602  1  -1.319204  -0.00025  -0.549186  -0.570391  -0.000131  3.377331  0.0
N  N106  1  0.80304522  0.91139147  0.55597780  1  -1.315891  0.000307  -0.548741  -0.570527  0.000231  3.375455  0.0
N  N107  1  0.27025789  0.58857589  0.94409201  1  -1.319174  -0.0011  -0.5493  -0.570528  -0.000706  3.376893  -0.001
N  N108  1  0.27150846  0.95558980  0.52372041  1  -0.854303  -0.003245  -0.116936  -0.010882  -0.002147  3.742118  -0.002
N  N109  1  0.75077270  0.54446120  0.97622324  1  -0.862283  0.003088  -0.116819  -0.01042  0.002162  3.740882  0.002
N  N110  1  0.72846368  0.04443294  0.47628267  1  -0.853669  -0.003229  -0.116795  -0.010794  -0.002143  3.741526  -0.002
N  N111  1  0.24924798  0.45553387  0.02377589  1  -0.862639  -0.003107  -0.116812  -0.010243  -0.002049  3.74069  -0.002
N  N112  1  0.67798473  0.46114630  0.54663495  1  -0.702219  -0.004883  -0.224658  -0.248531  -0.003248  3.149539  -0.004
N  N113  1  0.68564179  0.03902892  0.95329275  1  -0.692503  0.004783  -0.224509  -0.247836  0.003358  3.150796  0.004
N  N114  1  0.32198794  0.53886643  0.45335637  1  -0.701553  -0.004902  -0.224628  -0.249831  -0.003262  3.150625  -0.004
N  N115  1  0.31436277  0.96095402  0.04670789  1  -0.692203  -0.004814  -0.224437  -0.24771  -0.003195  3.150557  -0.004
N  N116  1  0.61849125  0.62162175  0.59149292  1  -1.193684  -0.063871  -0.375432  -0.414999  -0.044259  3.537197  -0.054
N  N117  1  0.83108990  0.87845395  0.90848012  1  -1.174041  0.063875  -0.375253  -0.414942  0.04668  3.5393  0.054
N  N118  1  0.38147113  0.37839103  0.40850027  1  -1.193711  -0.06392  -0.375324  -0.414926  -0.044299  3.537455  -0.054
N  N119  1  0.16893729  0.12153064  0.09152159  1  -1.173752  -0.063956  -0.375278  -0.414812  -0.04434  3.539187  -0.054
N  N120  1  0.74230238  0.72276242  0.50089581  1  -1.23533  -0.001263  -0.323801  -0.372287  -0.000717  3.344496  -0.001
N  N121  1  0.96551734  0.77720535  0.99902300  1  -1.210223  0.001138  -0.322497  -0.370947  0.000673  3.344927  0.001
N  N122  1  0.25768236  0.27724955  0.49909770  1  -1.234883  -0.001285  -0.323875  -0.372235  -0.00073  3.344757  -0.001
N  N123  1  0.03451124  0.22278244  0.00097709  1  -1.21021  -0.001207  -0.322557  -0.370848  -0.000674  3.344719  -0.001
N  N124  1  0.84617850  0.42155122  0.42365435  1  -1.335311  -0.000333  -0.546477  -0.57347  -0.00017  3.373835  0.0
N  N125  1  0.69115606  0.07855815  0.07628277  1  -1.310007  0.000509  -0.545633  -0.571352  0.000364  3.374796  0.0
N  N126  1  0.15380745  0.57846730  0.57634192  1  -1.334084  -0.000314  -0.546328  -0.572991  -0.000171  3.373878  0.0
N  N127  1  0.30884172  0.92142971  0.92371974  1  -1.310025  -0.000537  -0.545547  -0.571246  -0.000347  3.375277  0.0
N  N128  1  0.73315665  0.53733668  0.50486663  1  -0.863181  -0.003429  -0.117652  -0.013232  -0.002252  3.75385  -0.002
N  N129  1  0.77520047  0.96279291  0.99505396  1  -0.866284  0.003363  -0.117583  -0.013121  0.002327  3.756186  0.002
N  N130  1  0.26682546  0.46267771  0.49512641  1  -0.864134  -0.003419  -0.117574  -0.011005  -0.002241  3.754206  -0.002
N  N131  1  0.22480074  0.03719087  0.00494817  1  -0.866508  -0.00337  -0.117464  -0.013109  -0.002203  3.75603  -0.002
O  O132  1  0.38844461  0.81020836  0.73124395  1  -1.087735  -0.12358  -0.325796  -0.503664  -0.081539  2.323549  -0.112
O  O133  1  0.92994366  0.68994672  0.76875751  1  -1.085833  0.123502  -0.325828  -0.503433  0.086069  2.323808  0.112
O  O134  1  0.61153935  0.18978996  0.26875543  1  -1.08786  -0.123438  -0.325854  -0.503676  -0.081435  2.323299  -0.112
O  O135  1  0.07008704  0.31005766  0.23125840  1  -1.085324  -0.123453  -0.325593  -0.503244  -0.081582  2.323902  -0.112
O  O136  1  0.30492949  0.78717594  0.83439471  1  -1.170187  -0.033652  -0.297273  -0.504137  -0.022214  2.238014  -0.029
O  O137  1  0.92792747  0.71315162  0.66555938  1  -1.162646  0.033375  -0.296954  -0.503799  0.023264  2.238922  0.029
O  O138  1  0.69512325  0.21280128  0.16560390  1  -1.170269  -0.032508  -0.297322  -0.504056  -0.02152  2.238068  -0.029
O  O139  1  0.07210342  0.28683727  0.33445287  1  -1.162371  -0.032701  -0.297021  -0.503844  -0.021645  2.238742  -0.029
O  O140  1  0.43405433  0.56328543  0.81987933  1  -1.162359  -0.032814  -0.296712  -0.482814  -0.021586  2.20785  -0.029
O  O141  1  0.81831430  0.93685969  0.68010912  1  -1.161107  0.032659  -0.296741  -0.483441  0.022692  2.209449  0.029
O  O142  1  0.56602523  0.43671207  0.18011996  1  -1.162075  -0.032373  -0.296868  -0.482958  -0.021361  2.207531  -0.029
O  O143  1  0.18168632  0.06313138  0.31989261  1  -1.162125  -0.032637  -0.296705  -0.483419  -0.021553  2.209883  -0.029
O  O144  1  0.50361730  0.59928504  0.71776965  1  -1.097234  -0.121378  -0.329001  -0.511851  -0.079775  2.345572  -0.111
O  O145  1  0.82061922  0.90088691  0.78225583  1  -1.095364  0.121475  -0.328815  -0.511735  0.08419  2.346843  0.111
O  O146  1  0.49638932  0.40070587  0.28222494  1  -1.097152  -0.121283  -0.329013  -0.51196  -0.079752  2.345626  -0.11
O  O147  1  0.17939745  0.09911639  0.21774850  1  -1.094892  -0.121517  -0.328956  -0.511891  -0.079901  2.346843  -0.111
