# generated using pymatgen
data_CdH10(C7N4)2
_symmetry_space_group_name_H-M   'P 1'
_cell_length_a   7.82982746
_cell_length_b   7.92681504
_cell_length_c   7.92675442
_cell_angle_alpha   112.31273143
_cell_angle_beta   105.14954850
_cell_angle_gamma   105.14950432
_symmetry_Int_Tables_number   1
_chemical_formula_structural   CdH10(C7N4)2
_chemical_formula_sum   'Cd1 H10 C14 N8'
_cell_volume   401.91998143
_cell_formula_units_Z   1
loop_
 _symmetry_equiv_pos_site_id
 _symmetry_equiv_pos_as_xyz
  1  'x, y, z'
loop_
 _atom_site_type_symbol
 _atom_site_label
 _atom_site_symmetry_multiplicity
 _atom_site_fract_x
 _atom_site_fract_y
 _atom_site_fract_z
 _atom_site_occupancy
 _atom_site_hle17_bader_spin_density
 _atom_site_hle17_ddec_charge
 _atom_site_hle17_ddec_spin_density
 _atom_site_hle17_ddec_sum_bond_order
 _atom_site_hle17_magmom
 _atom_site_hse06_10hf_bader_spin_density
 _atom_site_hse06_10hf_ddec_charge
 _atom_site_hse06_10hf_ddec_spin_density
 _atom_site_hse06_10hf_ddec_sum_bond_order
 _atom_site_hse06_10hf_magmom
 _atom_site_hse06_bader_spin_density
 _atom_site_hse06_ddec_charge
 _atom_site_hse06_ddec_spin_density
 _atom_site_hse06_ddec_sum_bond_order
 _atom_site_hse06_magmom
 _atom_site_pbe_bader_spin_density
 _atom_site_pbe_cm5_charge
 _atom_site_pbe_ddec_charge
 _atom_site_pbe_ddec_spin_density
 _atom_site_pbe_ddec_sum_bond_order
 _atom_site_pbe_magmom
Cd  Cd0  1  0.99998341  0.99999771  0.99999605  1  0  1.141282  0  1.891482  0  0  0.947041  0  2.386749  0  0  0.995097  0  2.33847  0  0  0.831042  0.913572  0  2.419242  0
H  H1  1  0.36416184  0.79023841  0.79025130  1  0  0.080023  0  0.962722  0  0  0.092374  0  1.023605  0  0  0.09326  0  1.023755  0  0  0.101408  0.091625  0  1.023619  0
H  H2  1  0.63587006  0.20975827  0.20975121  1  0  0.080045  0  0.962767  0  0  0.092356  0  1.02368  0  0  0.09326  0  1.023805  0  0  0.101407  0.091606  0  1.023696  0
H  H3  1  0.29324846  0.79087868  0.46233389  1  0  0.102261  0  0.961936  0  0  0.112595  0  1.020896  0  0  0.114811  0  1.021355  0  0  0.105233  0.110978  0  1.020758  0
H  H4  1  0.70677147  0.53767406  0.20911508  1  0  0.102153  0  0.962039  0  0  0.112474  0  1.021021  0  0  0.114675  0  1.021501  0  0  0.105167  0.110856  0  1.020883  0
H  H5  1  0.70678042  0.20911352  0.53766742  1  0  0.102184  0  0.961915  0  0  0.112482  0  1.020942  0  0  0.114672  0  1.021436  0  0  0.105158  0.110867  0  1.020803  0
H  H6  1  0.29324474  0.46231951  0.79088616  1  0  0.102173  0  0.962006  0  0  0.11252  0  1.020968  0  0  0.114709  0  1.021461  0  0  0.105214  0.110925  0  1.020807  0
H  H7  1  0.15354511  0.46374852  0.14955943  1  0  0.077717  0  0.938997  0  0  0.087138  0  1.002822  0  0  0.089293  0  1.000739  0  0  0.114128  0.085597  0  1.00425  0
H  H8  1  0.84646214  0.85044181  0.53624677  1  0  0.077714  0  0.938975  0  0  0.087147  0  1.002792  0  0  0.089303  0  1.000707  0  0  0.114134  0.085605  0  1.004223  0
H  H9  1  0.84646763  0.53624650  0.85043774  1  0  0.077815  0  0.939  0  0  0.087206  0  1.002855  0  0  0.089363  0  1.000771  0  0  0.114169  0.085665  0  1.004283  0
H  H10  1  0.15354339  0.14955165  0.46374803  1  0  0.077706  0  0.938992  0  0  0.087096  0  1.002851  0  0  0.089252  0  1.000765  0  0  0.114111  0.085557  0  1.004277  0
C  C11  1  0.35252507  0.84205730  0.15890137  1  0  0.493996  0  4.013569  0  0  0.45475  0  4.303194  0  0  0.480733  0  4.313816  0  0  0.300153  0.437062  0  4.295677  0
C  C12  1  0.64742563  0.84111395  0.15794961  1  0  0.49361  0  4.013187  0  0  0.454354  0  4.302887  0  0  0.480333  0  4.313526  0  0  0.300023  0.436668  0  4.295355  0
C  C13  1  0.64743539  0.15794912  0.84110373  1  0  0.493864  0  4.01309  0  0  0.454561  0  4.302752  0  0  0.480538  0  4.313385  0  0  0.300084  0.436876  0  4.295225  0
C  C14  1  0.35253350  0.15890285  0.84205789  1  0  0.494114  0  4.013577  0  0  0.454803  0  4.303205  0  0  0.480782  0  4.31383  0  0  0.300216  0.437116  0  4.295687  0
C  C15  1  0.30480910  0.65129731  0.65131000  1  0  0.004095  0  3.718638  0  0  -0.015034  0  3.96314  0  0  -0.011959  0  3.984433  0  0  -0.066411  -0.016705  0  3.948569  0
C  C16  1  0.69521288  0.34869779  0.34868568  1  0  0.004072  0  3.71864  0  0  -0.015019  0  3.963109  0  0  -0.011951  0  3.984383  0  0  -0.066423  -0.016689  0  3.948523  0
C  C17  1  0.26569789  0.65264523  0.46999808  1  0  -0.118719  0  3.732316  0  0  -0.129464  0  3.97903  0  0  -0.136853  0  4.00199  0  0  -0.084486  -0.124733  0  3.963588  0
C  C18  1  0.73432101  0.53000411  0.34734117  1  0  -0.118404  0  3.73238  0  0  -0.129135  0  3.97903  0  0  -0.136511  0  4.001996  0  0  -0.084298  -0.124404  0  3.963583  0
C  C19  1  0.73432788  0.34735288  0.52999843  1  0  -0.118703  0  3.73229  0  0  -0.129406  0  3.978985  0  0  -0.136777  0  4.001961  0  0  -0.08444  -0.124677  0  3.963542  0
C  C20  1  0.26569811  0.46999393  0.65265368  1  0  -0.118573  0  3.73254  0  0  -0.129338  0  3.97924  0  0  -0.136705  0  4.002209  0  0  -0.084419  -0.124625  0  3.96379  0
C  C21  1  0.18791525  0.47172919  0.29562458  1  0  0.130767  0  3.715848  0  0  0.098063  0  3.964717  0  0  0.104951  0  3.984328  0  0  0.046899  0.09368  0  3.951226  0
C  C22  1  0.81209452  0.70436911  0.52826131  1  0  0.130734  0  3.716082  0  0  0.098025  0  3.964935  0  0  0.104912  0  3.98454  0  0  0.046906  0.093638  0  3.951445  0
C  C23  1  0.81210188  0.52827033  0.70437666  1  0  0.13077  0  3.716007  0  0  0.098069  0  3.964895  0  0  0.104956  0  3.984499  0  0  0.046929  0.093682  0  3.951405  0
C  C24  1  0.18791266  0.29561843  0.47172909  1  0  0.130939  0  3.71598  0  0  0.098264  0  3.964835  0  0  0.105155  0  3.984434  0  0  0.047033  0.093874  0  3.951356  0
N  N25  1  0.14969736  0.29698633  0.29699100  1  0  -0.346523  0  3.300989  0  0  -0.261508  0  3.558173  0  0  -0.282672  0  3.579465  0  0  -0.332615  -0.247047  0  3.543263  0
N  N26  1  0.85030779  0.70300268  0.70300325  1  0  -0.346483  0  3.301263  0  0  -0.261432  0  3.55838  0  0  -0.282596  0  3.579683  0  0  -0.332593  -0.246969  0  3.543465  0
N  N27  1  0.49998288  0.79792352  0.20209208  1  0  -0.465532  0  3.311816  0  0  -0.411055  0  3.575643  0  0  -0.43541  0  3.581087  0  0  -0.309018  -0.394225  0  3.571306  0
N  N28  1  0.49999311  0.20209937  0.79791938  1  0  -0.465826  0  3.31156  0  0  -0.411249  0  3.575347  0  0  -0.435593  0  3.58078  0  0  -0.309113  -0.394415  0  3.57101  0
N  N29  1  0.21022044  0.87159988  0.12980034  1  0  -0.607338  0  2.769524  0  0  -0.562193  0  3.049744  0  0  -0.58328  0  3.052842  0  0  -0.386402  -0.547764  0  3.047413  0
N  N30  1  0.78973284  0.87021267  0.12839421  1  0  -0.607267  0  2.76914  0  0  -0.562119  0  3.049403  0  0  -0.583205  0  3.052508  0  0  -0.386384  -0.547688  0  3.047065  0
N  N31  1  0.78974266  0.12839617  0.87020270  1  0  -0.607318  0  2.769154  0  0  -0.562166  0  3.049427  0  0  -0.583256  0  3.052532  0  0  -0.386386  -0.547736  0  3.047091  0
N  N32  1  0.21023545  0.12980420  0.87160547  1  0  -0.607347  0  2.769686  0  0  -0.5622  0  3.049939  0  0  -0.583287  0  3.053043  0  0  -0.386427  -0.547773  0  3.047612  0
