# generated using pymatgen
data_ZnH4C13N3O4
_symmetry_space_group_name_H-M   'P 1'
_cell_length_a   10.94041424
_cell_length_b   13.21493952
_cell_length_c   14.42744631
_cell_angle_alpha   89.99984422
_cell_angle_beta   89.99985107
_cell_angle_gamma   89.99997512
_symmetry_Int_Tables_number   1
_chemical_formula_structural   ZnH4C13N3O4
_chemical_formula_sum   'Zn2 H8 C26 N6 O8'
_cell_volume   2085.87564222
_cell_formula_units_Z   2
loop_
 _symmetry_equiv_pos_site_id
 _symmetry_equiv_pos_as_xyz
  1  'x, y, z'
loop_
 _atom_site_type_symbol
 _atom_site_label
 _atom_site_symmetry_multiplicity
 _atom_site_fract_x
 _atom_site_fract_y
 _atom_site_fract_z
 _atom_site_occupancy
 _atom_site_pbe_bader_charge
 _atom_site_pbe_bader_spin_density
 _atom_site_pbe_cm5_charge
 _atom_site_pbe_ddec_charge
 _atom_site_pbe_ddec_spin_density
 _atom_site_pbe_ddec_sum_bond_order
 _atom_site_pbe_magmom
Zn  Zn0  1  0.49999930  0.39360825  0.49996482  1  1.314234  0  0.692619  0.883283  0  2.416298  0
Zn  Zn1  1  0.49999833  0.60639319  0.49996039  1  1.332701  0  0.692608  0.883375  0  2.416329  0
H  H2  1  0.89271842  0.33730901  0.51503509  1  0.084778  0  0.098963  0.108151  0  0.986316  0
H  H3  1  0.89271925  0.66268999  0.51504438  1  0.084417  0  0.098945  0.108092  0  0.986401  0
H  H4  1  0.10728016  0.33730763  0.51503725  1  0.084328  0  0.098978  0.108181  0  0.986316  0
H  H5  1  0.10728007  0.66268861  0.51504100  1  0.084422  0  0.098953  0.108122  0  0.986373  0
H  H6  1  0.89344580  0.40373065  0.62044728  1  0.051219  0  0.104054  0.112303  0  0.95545  0
H  H7  1  0.89344758  0.59626123  0.62045258  1  0.05112  0  0.104066  0.112338  0  0.955482  0
H  H8  1  0.10655147  0.40373154  0.62044806  1  0.051223  0  0.104043  0.112338  0  0.955486  0
H  H9  1  0.10655415  0.59626136  0.62045059  1  0.05105  0  0.104057  0.112338  0  0.955528  0
C  C10  1  0.50000079  0.50000803  0.68027657  1  1.622192  0  0.216719  0.654371  0  4.25774  0
C  C11  1  0.26202564  0.49999395  0.50219401  1  1.541026  0  0.221626  0.576367  0  4.12767  0
C  C12  1  0.49999958  0.49999417  0.32108133  1  1.721132  0  0.224602  0.65134  0  4.251374  0
C  C13  1  0.92953414  0.40466075  0.54942844  1  0.011932  0  -0.161573  -0.188156  0  3.88322  0
C  C14  1  0.92953317  0.59533737  0.54943236  1  -0.127139  0  -0.161574  -0.188145  0  3.883229  0
C  C15  1  0.07046337  0.40466014  0.54942929  1  -0.127195  0  -0.161636  -0.188353  0  3.883386  0
C  C16  1  0.07046698  0.59533676  0.54943113  1  0.012517  0  -0.16153  -0.188191  0  3.883254  0
C  C17  1  0.92459306  0.50000458  0.39748044  1  0.21791  0  0.067796  0.044077  0  3.773172  0
C  C18  1  0.07540583  0.50000321  0.39747989  1  0.074944  0  0.067741  0.04384  0  3.773316  0
C  C19  1  0.87931854  0.49999838  0.50202705  1  0.095456  0  0.000671  0.001234  0  3.750763  0
C  C20  1  0.12067999  0.49999700  0.50202780  1  0.094511  0  0.000692  0.00138  0  3.750664  0
C  C21  1  0.50000371  0.49999760  0.04348474  1  -0.160793  0  0.004363  0.006311  0  4.185775  0
C  C22  1  0.50000519  0.50001091  0.78002534  1  0.214311  0  -0.017028  -0.143601  0  3.859537  0
C  C23  1  0.50000322  0.50000322  0.86508752  1  -0.214467  0  -0.01599  0.021395  0  4.27647  0
C  C24  1  0.50000580  0.49999854  0.95796674  1  0.073717  0  -0.00439  -0.009982  0  4.197741  0
C  C25  1  0.87794045  0.41063838  0.34843449  1  0.898542  0  0.180676  0.216749  0  3.945075  0
C  C26  1  0.87794040  0.58937775  0.34844050  1  0.897738  0  0.180903  0.216943  0  3.944935  0
C  C27  1  0.12206048  0.41063548  0.34843385  1  0.89819  0  0.180737  0.216872  0  3.945064  0
C  C28  1  0.12206409  0.58937334  0.34843987  1  0.897328  0  0.180878  0.217009  0  3.944938  0
C  C29  1  0.50000172  0.49999671  0.13634178  1  -0.191214  0  -0.005796  0.026105  0  4.236393  0
C  C30  1  0.49999975  0.49999507  0.22134019  1  0.069098  0  0.003446  -0.105689  0  3.812912  0
C  C31  1  0.49999918  0.85135156  0.49743642  1  0.877183  0  0.279304  0.35351  0  4.005036  0
C  C32  1  0.49999754  0.14865065  0.49743316  1  0.877223  0  0.279267  0.353457  0  4.00506  0
C  C33  1  0.49999915  0.95378108  0.49609163  1  0.291773  0  0.082545  0.018771  0  3.998283  0
C  C34  1  0.49999757  0.04622112  0.49608863  1  0.055691  0  0.082722  0.019014  0  3.998191  0
C  C35  1  0.73797197  0.49999235  0.50219562  1  1.541492  0  0.221672  0.576425  0  4.127641  0
N  N36  1  0.49999737  0.76314759  0.49964968  1  -0.98407  0  -0.200774  -0.189551  0  2.949113  0
N  N37  1  0.49999843  0.23685082  0.49965242  1  -0.984184  0  -0.200759  -0.189542  0  2.949178  0
N  N38  1  0.83881953  0.34004258  0.31028789  1  -1.060605  0  -0.280114  -0.296329  0  2.660423  0
N  N39  1  0.83882127  0.65997518  0.31029441  1  -1.059711  0  -0.280262  -0.296426  0  2.660385  0
N  N40  1  0.16118066  0.34003816  0.31028925  1  -1.060314  0  -0.280156  -0.296392  0  2.660422  0
N  N41  1  0.16118605  0.65997076  0.31029508  1  -1.059328  0  -0.280246  -0.296462  0  2.660344  0
O  O42  1  0.49999905  0.41350220  0.64105075  1  -1.136703  0  -0.314171  -0.541687  0  2.256254  0
O  O43  1  0.49999992  0.58651699  0.64104707  1  -1.136622  0  -0.314012  -0.541596  0  2.256409  0
O  O44  1  0.68627652  0.41411002  0.50215280  1  -1.157605  0  -0.305873  -0.535735  0  2.348157  0
O  O45  1  0.68627098  0.58588303  0.50215189  1  -1.157411  0  -0.305953  -0.535885  0  2.348172  0
O  O46  1  0.31372298  0.41410630  0.50215040  1  -1.157144  0  -0.305823  -0.535703  0  2.348073  0
O  O47  1  0.31372659  0.58588158  0.50215226  1  -1.157325  0  -0.305948  -0.535858  0  2.348235  0
O  O48  1  0.49999953  0.41355936  0.36028658  1  -1.120893  0  -0.304906  -0.53003  0  2.270966  0
O  O49  1  0.49999766  0.58643794  0.36028497  1  -1.120674  0  -0.305132  -0.530375  0  2.270655  0
