# generated using pymatgen
data_ZnH12C12(N3O2)2
_symmetry_space_group_name_H-M   'P 1'
_cell_length_a   9.52310367
_cell_length_b   18.57215810
_cell_length_c   18.64327465
_cell_angle_alpha   90.42945452
_cell_angle_beta   90.09195072
_cell_angle_gamma   89.90840595
_symmetry_Int_Tables_number   1
_chemical_formula_structural   ZnH12C12(N3O2)2
_chemical_formula_sum   'Zn4 H48 C48 N24 O16'
_cell_volume   3297.23404934
_cell_formula_units_Z   4
loop_
 _symmetry_equiv_pos_site_id
 _symmetry_equiv_pos_as_xyz
  1  'x, y, z'
loop_
 _atom_site_type_symbol
 _atom_site_label
 _atom_site_symmetry_multiplicity
 _atom_site_fract_x
 _atom_site_fract_y
 _atom_site_fract_z
 _atom_site_occupancy
 _atom_site_pbe_bader_charge
 _atom_site_pbe_bader_spin_density
 _atom_site_pbe_cm5_charge
 _atom_site_pbe_ddec_charge
 _atom_site_pbe_ddec_spin_density
 _atom_site_pbe_ddec_sum_bond_order
 _atom_site_pbe_magmom
Zn  Zn0  1  0.39400723  0.99885300  0.49379409  1  1.307956  0  0.715462  0.932883  0  2.207632  0
Zn  Zn1  1  0.66512058  0.98926723  0.50249053  1  1.308424  0  0.717258  0.932997  0  2.222325  0
Zn  Zn2  1  0.60602256  0.49331656  0.99919380  1  1.303967  0  0.715426  0.93323  0  2.207163  0
Zn  Zn3  1  0.33487357  0.50204559  0.98969518  1  1.309355  0  0.717297  0.933052  0  2.220414  0
H  H4  1  0.82053894  0.88672506  0.36171626  1  0.486906  0  0.287751  0.301795  0  1.006863  0
H  H5  1  0.88218504  0.86287430  0.27910626  1  0.397623  0  0.289564  0.266458  0  0.985585  0
H  H6  1  0.84550063  0.76991421  0.17784358  1  0.377176  0  0.28632  0.258722  0  0.963574  0
H  H7  1  0.89762838  0.75397837  0.26104616  1  0.418415  0  0.286294  0.261143  0  1.016937  0
H  H8  1  0.66613689  0.59606741  0.13078183  1  0.505413  0  0.296027  0.307632  0  1.00808  0
H  H9  1  0.76258934  0.65737358  0.18847943  1  0.505672  0  0.288289  0.290732  0  1.035146  0
H  H10  1  0.17060816  0.63716428  0.10062143  1  0.497169  0  0.286637  0.301155  0  1.012929  0
H  H11  1  0.09399836  0.71027356  0.14269450  1  0.385299  0  0.287187  0.26295  0  1.006361  0
H  H12  1  0.13258572  0.80791121  0.22904153  1  0.371959  0  0.286896  0.258261  0  0.963645  0
H  H13  1  0.09360400  0.72387058  0.25144339  1  0.408026  0  0.290376  0.268678  0  0.988007  0
H  H14  1  0.32541945  0.85710446  0.40120290  1  0.505258  0  0.297787  0.309412  0  0.999887  0
H  H15  1  0.22885584  0.79987566  0.33991451  1  0.503295  0  0.289388  0.291832  0  1.034923  0
H  H16  1  0.82921681  0.09970839  0.63778062  1  0.499331  0  0.286712  0.301891  0  1.011946  0
H  H17  1  0.90592871  0.14173486  0.71073818  1  0.401062  0  0.287332  0.263266  0  1.006312  0
H  H18  1  0.86692725  0.22807097  0.80867712  1  0.390941  0  0.287476  0.259471  0  0.962209  0
H  H19  1  0.90619617  0.25065921  0.72499573  1  0.398455  0  0.290514  0.268719  0  0.986459  0
H  H20  1  0.67413513  0.40077206  0.85767486  1  0.502573  0  0.298027  0.31024  0  0.998643  0
H  H21  1  0.77067976  0.33935902  0.80057450  1  0.504164  0  0.289455  0.29211  0  1.034541  0
H  H22  1  0.17928031  0.36070015  0.88754175  1  0.491447  0  0.287418  0.301468  0  1.007508  0
H  H23  1  0.11849076  0.27747987  0.86447487  1  0.380407  0  0.28921  0.265623  0  0.986315  0
H  H24  1  0.15494021  0.17590879  0.77090568  1  0.383151  0  0.286077  0.258659  0  0.962189  0
H  H25  1  0.10206019  0.25946232  0.75588414  1  0.406641  0  0.2861  0.260797  0  1.016638  0
H  H26  1  0.33339169  0.12983956  0.59727317  1  0.511399  0  0.296025  0.307813  0  1.007538  0
H  H27  1  0.23696660  0.18730462  0.65879259  1  0.532212  0  0.288462  0.291355  0  1.035248  0
H  H28  1  0.75558895  0.12418934  0.41340086  1  0.503484  0  0.288963  0.301497  0  1.009515  0
H  H29  1  0.84554178  0.19806506  0.38393412  1  0.400193  0  0.292132  0.271633  0  0.983403  0
H  H30  1  0.85607053  0.29138817  0.29052701  1  0.397526  0  0.289312  0.262523  0  0.957124  0
H  H31  1  0.89573251  0.20589904  0.27502669  1  0.41927  0  0.28997  0.27162  0  0.979169  0
H  H32  1  0.73472342  0.34590974  0.10823916  1  0.494463  0  0.293046  0.305544  0  1.00418  0
H  H33  1  0.79954607  0.28241452  0.17275442  1  0.510182  0  0.285408  0.283846  0  1.044893  0
H  H34  1  0.24469486  0.41241784  0.12357944  1  0.496987  0  0.288709  0.300459  0  1.008797  0
H  H35  1  0.15465268  0.38325347  0.19732039  1  0.405511  0  0.292274  0.271276  0  0.982285  0
H  H36  1  0.14416406  0.28996965  0.29092081  1  0.396149  0  0.289318  0.262828  0  0.956628  0
H  H37  1  0.10504807  0.27398505  0.20576632  1  0.407847  0  0.289796  0.271467  0  0.979854  0
H  H38  1  0.26617682  0.10751329  0.34628179  1  0.503451  0  0.293301  0.305726  0  1.004148  0
H  H39  1  0.20141926  0.17179786  0.28254105  1  0.499389  0  0.28529  0.283472  0  1.044615  0
H  H40  1  0.20401555  0.90352521  0.63002964  1  0.495597  0  0.287017  0.301802  0  1.013299  0
H  H41  1  0.11637871  0.87117463  0.70386716  1  0.425585  0  0.28881  0.265032  0  0.998755  0
H  H42  1  0.13433986  0.79236852  0.80548363  1  0.3804  0  0.284676  0.253782  0  0.968309  0
H  H43  1  0.10045508  0.76371533  0.72304986  1  0.407873  0  0.291191  0.270894  0  0.981263  0
H  H44  1  0.29863475  0.61148186  0.86429120  1  0.491545  0  0.296963  0.308605  0  1.008442  0
H  H45  1  0.21613496  0.67703400  0.80595292  1  0.497379  0  0.287097  0.287372  0  1.046069  0
H  H46  1  0.79558600  0.63031491  0.90441272  1  0.483597  0  0.287329  0.302985  0  1.012255  0
H  H47  1  0.88256489  0.70475776  0.87261193  1  0.391847  0  0.289018  0.265389  0  0.997818  0
H  H48  1  0.86492076  0.80631578  0.79278271  1  0.372801  0  0.284841  0.253651  0  0.968507  0
H  H49  1  0.89953673  0.72326274  0.76537901  1  0.411134  0  0.290647  0.270122  0  0.982336  0
H  H50  1  0.70140977  0.86399385  0.61216995  1  0.50005  0  0.296927  0.308544  0  1.007335  0
H  H51  1  0.78393477  0.80595337  0.67795641  1  0.522147  0  0.286967  0.287092  0  1.046698  0
C  C52  1  0.45497914  0.90313591  0.59873529  1  1.400897  0  0.209075  0.616491  0  4.080943  0
C  C53  1  0.57596374  0.89199547  0.40328130  1  1.412334  0  0.21167  0.619831  0  4.079417  0
C  C54  1  0.50337122  0.09122960  0.39732946  1  1.434242  0  0.210109  0.61934  0  4.084302  0
C  C55  1  0.58346185  0.09358930  0.59596209  1  1.415648  0  0.207556  0.615854  0  4.082045  0
C  C56  1  0.49719407  0.39647183  0.09120162  1  1.443775  0  0.210114  0.619131  0  4.083789  0
C  C57  1  0.41644606  0.59534154  0.09419204  1  1.415409  0  0.208181  0.615922  0  4.081704  0
C  C58  1  0.54481340  0.59859301  0.90377858  1  1.393124  0  0.209077  0.617035  0  4.078385  0
C  C59  1  0.42364215  0.40261768  0.89264139  1  1.381295  0  0.211574  0.620982  0  4.080179  0
C  C60  1  0.55170160  0.67264265  0.18150582  1  0.546486  0  0.122895  0.298288  0  4.005434  0
C  C61  1  0.29512834  0.68715161  0.17394691  1  0.42403  0  0.078533  0.193881  0  4.125353  0
C  C62  1  0.30010576  0.73692811  0.23036517  1  0.329055  0  0.035608  0.064626  0  4.003872  0
C  C63  1  0.43077679  0.75991084  0.26109793  1  -0.013344  0  -0.020241  -0.090779  0  3.984343  0
C  C64  1  0.43887775  0.80795149  0.32323962  1  0.534763  0  0.123539  0.295295  0  4.003608  0
C  C65  1  0.69482474  0.81779009  0.30682496  1  0.372606  0  0.075934  0.186852  0  4.109261  0
C  C66  1  0.68917442  0.76441851  0.25400801  1  0.298807  0  0.038443  0.07411  0  4.005152  0
C  C67  1  0.55875908  0.73313283  0.23157240  1  0.055088  0  -0.023526  -0.101331  0  3.99404  0
C  C68  1  0.42061922  0.65134602  0.14982550  1  -0.038849  0  -0.054485  -0.292644  0  3.930864  0
C  C69  1  0.57042075  0.83871864  0.34507681  1  0.018349  0  -0.052951  -0.288461  0  3.933328  0
C  C70  1  0.56073709  0.32242740  0.80879137  1  0.524842  0  0.123935  0.296451  0  4.002039  0
C  C71  1  0.30492001  0.30565081  0.81882749  1  0.373184  0  0.075458  0.186638  0  4.110468  0
C  C72  1  0.31058088  0.25273031  0.76557875  1  0.323248  0  0.038025  0.07393  0  4.006524  0
C  C73  1  0.44093636  0.23044049  0.73418615  1  0.03913  0  -0.023494  -0.100741  0  3.9949  0
C  C74  1  0.44797139  0.18044402  0.67372335  1  0.508997  0  0.123174  0.299013  0  4.004648  0
C  C75  1  0.70462075  0.17303422  0.68795075  1  0.414991  0  0.078286  0.194474  0  4.126293  0
C  C76  1  0.69959553  0.22941156  0.73783139  1  0.337057  0  0.035435  0.064581  0  4.005101  0
C  C77  1  0.56890112  0.26011776  0.76085117  1  -0.015741  0  -0.019685  -0.090938  0  3.986373  0
C  C78  1  0.42921898  0.34419957  0.83954649  1  0.077218  0  -0.052642  -0.289754  0  3.935381  0
C  C79  1  0.57913647  0.14895511  0.65219448  1  0.01615  0  -0.054503  -0.294022  0  3.933013  0
C  C80  1  0.59073832  0.30240599  0.17524271  1  0.501893  0  0.118745  0.291301  0  4.022294  0
C  C81  1  0.33750691  0.33019186  0.17625899  1  0.33994  0  0.079413  0.193482  0  4.093075  0
C  C82  1  0.31539381  0.27457712  0.22484643  1  0.365118  0  0.0376  0.069452  0  4.005636  0
C  C83  1  0.43025339  0.23484696  0.25430227  1  0.017441  0  -0.022514  -0.095937  0  3.990286  0
C  C84  1  0.41004330  0.17477028  0.30285724  1  0.509148  0  0.119806  0.29227  0  4.023499  0
C  C85  1  0.66305101  0.17635403  0.33094375  1  0.380553  0  0.079856  0.194548  0  4.094285  0
C  C86  1  0.68527755  0.22477678  0.27524977  1  0.365166  0  0.037766  0.069199  0  4.006872  0
C  C87  1  0.57047570  0.25397854  0.23533912  1  0.005656  0  -0.021798  -0.093807  0  3.990475  0
C  C88  1  0.47584010  0.34279671  0.14728487  1  0.033673  0  -0.052492  -0.287402  0  3.928867  0
C  C89  1  0.52479450  0.14719026  0.34351410  1  0.006023  0  -0.052972  -0.288091  0  3.931203  0
C  C90  1  0.42752354  0.68387171  0.81793741  1  0.534795  0  0.12377  0.297217  0  4.002949  0
C  C91  1  0.68465047  0.68882704  0.83232606  1  0.402002  0  0.078373  0.194165  0  4.124082  0
C  C92  1  0.69137900  0.74117211  0.77917560  1  0.33101  0  0.0344  0.063805  0  3.987586  0
C  C93  1  0.56706642  0.76854677  0.74507640  1  -0.012312  0  -0.021704  -0.096205  0  3.985177  0
C  C94  1  0.57241912  0.81769401  0.68438802  1  0.529574  0  0.123961  0.298701  0  4.000929  0
C  C95  1  0.31512849  0.83153704  0.68871741  1  0.410877  0  0.078306  0.193613  0  4.126225  0
C  C96  1  0.30844301  0.77840900  0.74108270  1  0.320572  0  0.034457  0.064021  0  3.987806  0
C  C97  1  0.43284056  0.74459427  0.76874132  1  0.0548  0  -0.021696  -0.095702  0  3.985137  0
C  C98  1  0.55274929  0.65669263  0.85125856  1  0.007887  0  -0.053425  -0.290625  0  3.926176  0
C  C99  1  0.44710101  0.85070782  0.65688133  1  5.3e-05  0  -0.053491  -0.290587  0  3.924802  0
N  N100  1  0.82596196  0.84789810  0.32278704  1  -1.211401  0  -0.618427  -0.625507  0  3.337463  0
N  N101  1  0.82195677  0.74244952  0.22373151  1  -1.141454  0  -0.610028  -0.604018  0  3.345198  0
N  N102  1  0.67150813  0.63626684  0.16788714  1  -1.325926  0  -0.59211  -0.585627  0  3.369051  0
N  N103  1  0.16502288  0.66965569  0.14486005  1  -1.224093  0  -0.618575  -0.624829  0  3.369561  0
N  N104  1  0.16714408  0.76358625  0.25631136  1  -1.132418  0  -0.606543  -0.595755  0  3.350294  0
N  N105  1  0.32029252  0.82024983  0.36084894  1  -1.317941  0  -0.589775  -0.582207  0  3.367442  0
N  N106  1  0.83471917  0.14395448  0.67036339  1  -1.245897  0  -0.618478  -0.625649  0  3.36932  0
N  N107  1  0.83248533  0.25541233  0.76448555  1  -1.145247  0  -0.607013  -0.596595  0  3.349598  0
N  N108  1  0.67921621  0.36031603  0.82090914  1  -1.320904  0  -0.590743  -0.583994  0  3.365211  0
N  N109  1  0.17379844  0.32145311  0.84902373  1  -1.216707  0  -0.617893  -0.624673  0  3.338715  0
N  N110  1  0.17781744  0.22222886  0.74383293  1  -1.155997  0  -0.609582  -0.603769  0  3.340988  0
N  N111  1  0.32801041  0.16673962  0.63762927  1  -1.356523  0  -0.591902  -0.58645  0  3.368955  0
N  N112  1  0.77986118  0.15674054  0.37160456  1  -1.247784  0  -0.619836  -0.627803  0  3.353999  0
N  N113  1  0.82819436  0.24648897  0.26165680  1  -1.173803  0  -0.60546  -0.59876  0  3.343756  0
N  N114  1  0.71945716  0.30640025  0.14488360  1  -1.322607  0  -0.594684  -0.59453  0  3.369373  0
N  N115  1  0.22054764  0.37067796  0.15630201  1  -1.242558  0  -0.619596  -0.626058  0  3.351088  0
N  N116  1  0.17243921  0.26084259  0.24635692  1  -1.158218  0  -0.604944  -0.598375  0  3.34399  0
N  N117  1  0.28151135  0.14408119  0.30673618  1  -1.31899  0  -0.594995  -0.594064  0  3.36912  0
N  N118  1  0.19028802  0.86272797  0.66563723  1  -1.262836  0  -0.617235  -0.624035  0  3.364802  0
N  N119  1  0.16909781  0.75918069  0.76506959  1  -1.144004  0  -0.606727  -0.596971  0  3.345488  0
N  N120  1  0.30176256  0.65286041  0.82910501  1  -1.305932  0  -0.592965  -0.585224  0  3.377993  0
N  N121  1  0.80947208  0.66605549  0.86378071  1  -1.215142  0  -0.618199  -0.626365  0  3.36384  0
N  N122  1  0.83075684  0.76529947  0.76010842  1  -1.13713  0  -0.606885  -0.596733  0  3.345241  0
N  N123  1  0.69836592  0.82912308  0.65377244  1  -1.329081  0  -0.592788  -0.585421  0  3.37758  0
O  O124  1  0.34143531  0.93263558  0.57179485  1  -1.151545  0  -0.327358  -0.551506  0  2.269642  0
O  O125  1  0.57603190  0.92072547  0.57377755  1  -1.182698  0  -0.320808  -0.581783  0  2.433149  0
O  O126  1  0.69650165  0.91421993  0.42913091  1  -1.145654  0  -0.325301  -0.546621  0  2.269445  0
O  O127  1  0.46049595  0.91732799  0.42902923  1  -1.188122  0  -0.321303  -0.583849  0  2.422003  0
O  O128  1  0.61197888  0.06286169  0.42696524  1  -1.193644  0  -0.322171  -0.579547  0  2.422746  0
O  O129  1  0.37746706  0.06997121  0.41581085  1  -1.146875  0  -0.325538  -0.553889  0  2.26644  0
O  O130  1  0.46859571  0.07437433  0.56484990  1  -1.188883  0  -0.320638  -0.583607  0  2.427231  0
O  O131  1  0.70221737  0.06297837  0.57688169  1  -1.151401  0  -0.329496  -0.555189  0  2.272089  0
O  O132  1  0.62308765  0.41513187  0.07008991  1  -1.144593  0  -0.325912  -0.554149  0  2.266628  0
O  O133  1  0.38856438  0.42580845  0.06254500  1  -1.191018  0  -0.32226  -0.57906  0  2.420308  0
O  O134  1  0.29772031  0.57630408  0.06358431  1  -1.149267  0  -0.329274  -0.554913  0  2.271226  0
O  O135  1  0.53140855  0.56441827  0.07470734  1  -1.188654  0  -0.320933  -0.584314  0  2.427512  0
O  O136  1  0.42372704  0.57378824  0.92158563  1  -1.183594  0  -0.320846  -0.58195  0  2.431658  0
O  O137  1  0.65837717  0.57155869  0.93315723  1  -1.151317  0  -0.32752  -0.551944  0  2.268614  0
O  O138  1  0.53910307  0.42842553  0.91791669  1  -1.187932  0  -0.321317  -0.584762  0  2.422233  0
O  O139  1  0.30311383  0.42863239  0.91471502  1  -1.136971  0  -0.325169  -0.54648  0  2.268485  0
