# generated using pymatgen
data_CoSiH24C20(N4F3)2
_symmetry_space_group_name_H-M   'P 1'
_cell_length_a   7.92906780
_cell_length_b   11.95390603
_cell_length_c   12.59400000
_cell_angle_alpha   90.00000000
_cell_angle_beta   90.00000000
_cell_angle_gamma   90.00000000
_symmetry_Int_Tables_number   1
_chemical_formula_structural   CoSiH24C20(N4F3)2
_chemical_formula_sum   'Co2 Si2 H48 C40 N16 F12'
_cell_volume   1193.70127503
_cell_formula_units_Z   2
loop_
 _symmetry_equiv_pos_site_id
 _symmetry_equiv_pos_as_xyz
  1  'x, y, z'
loop_
 _atom_site_type_symbol
 _atom_site_label
 _atom_site_symmetry_multiplicity
 _atom_site_fract_x
 _atom_site_fract_y
 _atom_site_fract_z
 _atom_site_occupancy
 _atom_site_hle17_ddec_charge
 _atom_site_hle17_ddec_spin_density
 _atom_site_hle17_ddec_sum_bond_order
 _atom_site_hle17_magmom
 _atom_site_hse06_10hf_ddec_charge
 _atom_site_hse06_10hf_ddec_spin_density
 _atom_site_hse06_10hf_ddec_sum_bond_order
 _atom_site_hse06_10hf_magmom
 _atom_site_hse06_ddec_charge
 _atom_site_hse06_ddec_spin_density
 _atom_site_hse06_ddec_sum_bond_order
 _atom_site_hse06_magmom
 _atom_site_pbe_bader_charge
 _atom_site_pbe_bader_spin_density
 _atom_site_pbe_cm5_charge
 _atom_site_pbe_ddec_charge
 _atom_site_pbe_ddec_spin_density
 _atom_site_pbe_ddec_sum_bond_order
 _atom_site_pbe_magmom
Co  Co0  1  0.74497030  0.25000113  0.24999841  1  0.698122  1.09781  2.470322  1.031  0.671258  1.040981  2.8988  0.99  0.725154  1.036737  2.839112  0.991  1.112174  0.998973  0.701086  0.640781  1.04052  2.936225  0.985
Co  Co1  1  0.25503376  0.75000004  0.75000000  1  0.698096  1.097804  2.470359  1.031  0.671258  1.040973  2.898857  0.99  0.725177  1.036736  2.839134  0.991  1.112288  0.99898  0.70108  0.640748  1.040518  2.936328  0.985
Si  Si2  1  0.24663303  0.25000029  0.24999921  1  1.958826  0.003666  3.344161  0.005  1.746134  0.004701  3.898504  0.007  1.805161  0.003664  3.813649  0.006  3.235372  0.004539  0.268584  1.704714  0.005668  3.957455  0.008
Si  Si3  1  0.75336599  0.74999502  0.75000476  1  1.958723  0.003666  3.344412  0.005  1.745952  0.004702  3.898666  0.007  1.804979  0.003664  3.813814  0.006  3.235434  0.004539  0.268445  1.704531  0.005668  3.957622  0.008
H  H4  1  0.01740810  0.07134572  0.19967842  1  0.112701  -5e-05  0.991368  0.0  0.11545  -0.000145  1.061975  0.0  0.119111  -0.000102  1.056057  0.0  0.22767  9.2e-05  0.13237  0.112534  -0.000184  1.066636  0.0
H  H5  1  0.52449293  0.80096748  0.57594886  1  0.114404  -4e-05  0.984839  0.0  0.115879  -0.000138  1.057686  0.0  0.119689  -9.5e-05  1.051551  0.0  0.232705  8.3e-05  0.132556  0.112865  -0.000179  1.062466  0.0
H  H6  1  0.01739675  0.42865654  0.30031841  1  0.112731  -5e-05  0.991451  0.0  0.115478  -0.000145  1.062043  0.0  0.119139  -0.000102  1.056129  0.0  0.227713  9.2e-05  0.132402  0.112576  -0.000184  1.066718  0.0
H  H7  1  0.52449419  0.69903009  0.92405431  1  0.114383  -4.2e-05  0.98485  0.0  0.115861  -0.000138  1.0577  0.0  0.119676  -9.5e-05  1.051556  0.0  0.232796  8.3e-05  0.132563  0.112853  -0.000179  1.062471  0.0
H  H8  1  0.98260101  0.92865963  0.80031841  1  0.112709  -5.1e-05  0.991436  0.0  0.115452  -0.000145  1.06204  0.0  0.119112  -0.000102  1.056124  0.0  0.227674  9.2e-05  0.132383  0.112534  -0.000184  1.066699  0.0
H  H9  1  0.47550609  0.19902783  0.42405114  1  0.114479  -4e-05  0.984893  0.0  0.115977  -0.000138  1.057706  0.0  0.119787  -9.5e-05  1.05157  0.0  0.232489  8.3e-05  0.132582  0.112962  -0.000179  1.062486  0.0
H  H10  1  0.98259722  0.57134212  0.69968477  1  0.112649  -5.1e-05  0.991439  0.0  0.115391  -0.000145  1.06206  0.0  0.119053  -0.000102  1.056143  0.0  0.227627  9.2e-05  0.132364  0.112486  -0.000184  1.066734  0.0
H  H11  1  0.47551239  0.30097108  0.07594251  1  0.114342  -4e-05  0.984952  0.0  0.115859  -0.000138  1.057746  0.0  0.119672  -9.5e-05  1.051605  0.0  0.232791  8.3e-05  0.132571  0.112852  -0.000179  1.062516  0.0
H  H12  1  0.49610876  0.07832084  0.13084723  1  0.119214  -5e-06  0.961873  0.0  0.122461  -3.8e-05  1.030169  0.0  0.125386  -2.9e-05  1.02758  0.0  0.156668  0.000112  0.121409  0.120212  -4e-05  1.032269  0.0
H  H13  1  0.00267623  0.87105921  0.58693028  1  0.118739  -9e-06  0.964378  0.0  0.121483  -4.1e-05  1.033432  0.0  0.12452  -3.3e-05  1.030564  0.0  0.153952  0.000113  0.121402  0.119173  -4.3e-05  1.035707  0.0
H  H14  1  0.49610245  0.42167974  0.36915118  1  0.119193  -3e-06  0.961986  0.0  0.122487  -3.7e-05  1.030214  0.0  0.125412  -2.9e-05  1.027627  0.0  0.156638  0.000112  0.121443  0.120252  -4e-05  1.032319  0.0
H  H15  1  0.00267623  0.62894254  0.91306813  1  0.118787  -6e-06  0.964335  0.0  0.121525  -4.1e-05  1.033404  0.0  0.124564  -3.3e-05  1.030533  0.0  0.153999  0.000112  0.121416  0.119218  -4.3e-05  1.035672  0.0
H  H16  1  0.50389782  0.92168033  0.86914960  1  0.119146  -3e-06  0.962018  0.0  0.122502  -3.8e-05  1.030187  0.0  0.125429  -2.9e-05  1.027597  0.0  0.15662  0.000112  0.121427  0.120247  -4e-05  1.032283  0.0
H  H17  1  0.99731774  0.12892773  0.41306416  1  0.118738  -8e-06  0.964349  0.0  0.121476  -4.1e-05  1.033405  0.0  0.124514  -3.3e-05  1.030538  0.0  0.154097  0.000113  0.121369  0.119164  -4.3e-05  1.035681  0.0
H  H18  1  0.50389782  0.57831724  0.63085040  1  0.119132  -4e-06  0.961962  0.0  0.122485  -3.7e-05  1.030145  0.0  0.125411  -2.9e-05  1.027553  0.0  0.156639  0.000112  0.121433  0.120249  -4e-05  1.032251  0.0
H  H19  1  0.99732279  0.37107202  0.08693108  1  0.118719  -8e-06  0.964447  0.0  0.121493  -4.1e-05  1.033471  0.0  0.124531  -3.3e-05  1.0306  0.0  0.154048  0.000112  0.121391  0.119183  -4.3e-05  1.035747  0.0
H  H20  1  0.63840922  0.88615303  0.03983484  1  0.123113  -0.000222  0.963346  0.0  0.131003  -0.000104  1.02626  0.0  0.133429  -8.1e-05  1.025073  0.0  0.16341  -0.000139  0.123157  0.129191  -0.000121  1.027233  0.0
H  H21  1  0.13675756  0.95731638  0.39756710  1  0.125085  -0.000208  0.958098  0.0  0.133472  -9.2e-05  1.018933  0.0  0.136065  -7.3e-05  1.017615  0.0  0.14675  -0.000124  0.124677  0.13157  -0.000106  1.019972  0.0
H  H22  1  0.63840292  0.61384622  0.46016833  1  0.123128  -0.000221  0.963348  0.0  0.131005  -0.000104  1.026269  0.0  0.133429  -8.1e-05  1.025084  0.0  0.163844  -0.000139  0.123156  0.129214  -0.000121  1.027255  0.0
H  H23  1  0.13675378  0.54268705  0.10243290  1  0.125027  -0.000206  0.958125  0.0  0.133425  -9.2e-05  1.018949  0.0  0.136016  -7.3e-05  1.017633  0.0  0.146802  -0.000124  0.124652  0.131521  -0.000106  1.020003  0.0
H  H24  1  0.36159484  0.11384480  0.96016913  1  0.123167  -0.000221  0.963341  0.0  0.131062  -0.000104  1.02623  0.0  0.13349  -8.1e-05  1.025043  0.0  0.163803  -0.000139  0.123172  0.129248  -0.000121  1.027206  0.0
H  H25  1  0.86324019  0.04267559  0.60242893  1  0.125048  -0.000207  0.958129  0.0  0.13343  -9.2e-05  1.018976  0.0  0.136025  -7.2e-05  1.017655  0.0  0.146892  -0.000124  0.124652  0.131529  -0.000106  1.020011  0.0
H  H26  1  0.36159106  0.38615328  0.53983405  1  0.123126  -0.000222  0.963391  0.0  0.131029  -0.000104  1.026274  0.0  0.133451  -8.1e-05  1.025091  0.0  0.163552  -0.000139  0.123197  0.129239  -0.000121  1.027259  0.0
H  H27  1  0.86324397  0.45732918  0.89756868  1  0.124961  -0.000209  0.958257  0.0  0.133359  -9.2e-05  1.01908  0.0  0.135942  -7.3e-05  1.017771  0.0  0.146607  -0.000124  0.124585  0.131454  -0.000106  1.020131  0.0
H  H28  1  0.93317906  0.81076344  0.02681356  1  0.097548  -7.1e-05  0.963921  0.0  0.106451  -3.5e-05  1.02824  0.0  0.108635  -2.7e-05  1.02679  0.0  0.142705  -4e-05  0.115981  0.104616  -3.9e-05  1.029692  0.0
H  H29  1  0.42293118  0.96698853  0.31936160  1  0.101698  -7.4e-05  0.95929  0.0  0.11023  -3.2e-05  1.022864  0.0  0.112753  -2.6e-05  1.020901  0.0  0.137151  -3.7e-05  0.117144  0.108273  -3.6e-05  1.024507  0.0
H  H30  1  0.93317401  0.68923413  0.47318644  1  0.09754  -7e-05  0.963927  0.0  0.106438  -3.5e-05  1.028244  0.0  0.108619  -2.7e-05  1.026797  0.0  0.142754  -4.1e-05  0.115997  0.104632  -4e-05  1.029692  0.0
H  H31  1  0.42293622  0.53300653  0.18063840  1  0.101736  -7.2e-05  0.959229  0.0  0.110296  -3.2e-05  1.022782  0.0  0.112769  -2.6e-05  1.020879  0.0  0.137132  -3.7e-05  0.117158  0.108338  -3.6e-05  1.024444  0.0
H  H32  1  0.06682753  0.18923522  0.97318882  1  0.097521  -7.5e-05  0.963881  0.0  0.106427  -3.5e-05  1.028192  0.0  0.108611  -2.8e-05  1.026742  0.0  0.142684  -4e-05  0.115953  0.104585  -3.9e-05  1.029655  0.0
H  H33  1  0.57705522  0.03300344  0.68063602  1  0.101741  -7.2e-05  0.959307  0.0  0.110233  -3.2e-05  1.022944  0.0  0.112744  -2.6e-05  1.020994  0.0  0.137295  -3.7e-05  0.117124  0.108277  -3.5e-05  1.024584  0.0
H  H34  1  0.06682753  0.31076620  0.52681118  1  0.097506  -7e-05  0.963904  0.0  0.106427  -3.5e-05  1.028205  0.0  0.108605  -2.7e-05  1.026762  0.0  0.14246  -4e-05  0.115958  0.104626  -4e-05  1.029648  0.0
H  H35  1  0.57706153  0.46700468  0.81936239  1  0.101789  -7.6e-05  0.959206  0.0  0.110359  -3.2e-05  1.022725  0.0  0.112833  -2.6e-05  1.020822  0.0  0.137144  -3.7e-05  0.117205  0.108401  -3.6e-05  1.02439  0.0
H  H36  1  0.22904206  0.80853321  0.08572495  1  0.131871  -4.3e-05  1.001958  0.0  0.14239  -7.5e-05  1.064072  0.0  0.144941  -5.3e-05  1.064773  0.0  0.0846  -7.3e-05  0.094403  0.140538  -9.5e-05  1.063742  0.0
H  H37  1  0.71955369  0.90689436  0.31196681  1  0.135023  -4.3e-05  0.990079  0.0  0.146924  -7.5e-05  1.050633  0.0  0.149474  -5.5e-05  1.051197  0.0  0.079524  -6.8e-05  0.096169  0.145099  -9.4e-05  1.050335  0.0
H  H38  1  0.22903953  0.69146185  0.41427505  1  0.131826  -4.4e-05  1.001787  0.0  0.142337  -7.5e-05  1.063947  0.0  0.144888  -5.3e-05  1.064647  0.0  0.084738  -7.4e-05  0.094387  0.140523  -9.5e-05  1.063608  0.0
H  H39  1  0.71955747  0.59310153  0.18803001  1  0.135043  -4.3e-05  0.990083  0.0  0.14694  -7.5e-05  1.050636  0.0  0.149483  -5.5e-05  1.05121  0.0  0.079634  -6.8e-05  0.096173  0.145116  -9.5e-05  1.05035  0.0
H  H40  1  0.77096453  0.19146880  0.91428061  1  0.131918  -4.2e-05  1.001991  0.0  0.142444  -7.5e-05  1.064083  0.0  0.144995  -5.3e-05  1.064785  0.0  0.084572  -7.3e-05  0.09442  0.140592  -9.5e-05  1.063749  0.0
H  H41  1  0.28043650  0.09310931  0.68802684  1  0.135034  -4.3e-05  0.990016  0.0  0.146929  -7.5e-05  1.050573  0.0  0.14947  -5.5e-05  1.05116  0.0  0.079686  -6.7e-05  0.096172  0.145094  -9.4e-05  1.050284  0.0
H  H42  1  0.77096200  0.30853179  0.58571621  1  0.131909  -4.2e-05  1.001946  0.0  0.142425  -7.5e-05  1.064057  0.0  0.144975  -5.3e-05  1.06476  0.0  0.084598  -7.4e-05  0.09444  0.140614  -9.5e-05  1.063709  0.0
H  H43  1  0.28043776  0.40690298  0.81197396  1  0.135032  -4.4e-05  0.990054  0.0  0.146942  -7.5e-05  1.050585  0.0  0.149486  -5.5e-05  1.051167  0.0  0.079671  -6.8e-05  0.096195  0.145117  -9.4e-05  1.050297  0.0
H  H44  1  0.19533318  0.93600786  0.16792282  1  0.140935  0.0  0.971736  0.0  0.154122  -2e-05  1.031089  0.0  0.157268  -6e-06  1.029222  0.0  0.098217  -4.7e-05  0.098736  0.151738  -3.6e-05  1.032705  0.0
H  H45  1  0.69676539  0.82919424  0.43937192  1  0.136136  4e-06  0.974815  0.0  0.14962  -1.7e-05  1.035496  0.0  0.152559  -5e-06  1.033962  0.0  0.085758  -4.3e-05  0.098114  0.147368  -3.2e-05  1.036911  0.0
H  H46  1  0.19532056  0.56398971  0.33207559  1  0.140881  1e-06  0.971833  0.0  0.154072  -2e-05  1.031173  0.0  0.157215  -6e-06  1.029313  0.0  0.098361  -4.7e-05  0.098777  0.151712  -3.7e-05  1.032799  0.0
H  H47  1  0.69676413  0.67080501  0.06062649  1  0.136126  5e-06  0.974838  0.0  0.149614  -1.7e-05  1.035513  0.0  0.152553  -5e-06  1.033977  0.0  0.085788  -4.4e-05  0.098127  0.147384  -3.2e-05  1.036906  0.0
H  H48  1  0.80466836  0.06399498  0.83208036  1  0.14101  1e-06  0.971734  0.0  0.154188  -2e-05  1.031093  0.0  0.157337  -6e-06  1.02922  0.0  0.098312  -4.7e-05  0.098771  0.151803  -3.6e-05  1.03271  0.0
H  H49  1  0.30323615  0.17081195  0.56062172  1  0.136169  5e-06  0.974816  0.0  0.14963  -1.7e-05  1.035556  0.0  0.152576  -4e-06  1.034  0.0  0.085622  -4.3e-05  0.098095  0.147376  -3.2e-05  1.036971  0.0
H  H50  1  0.80466836  0.43600477  0.66791885  1  0.141015  -0.0  0.971737  0.0  0.15419  -2e-05  1.031104  0.0  0.15734  -6e-06  1.029226  0.0  0.098352  -4.7e-05  0.098787  0.151827  -3.7e-05  1.03273  0.0
H  H51  1  0.30324498  0.32919616  0.93937510  1  0.136095  4e-06  0.974838  0.0  0.1496  -1.7e-05  1.035512  0.0  0.15254  -4e-06  1.033972  0.0  0.08578  -4.4e-05  0.098125  0.147368  -3.2e-05  1.036909  0.0
C  C52  1  0.89412276  0.04764049  0.17025727  1  0.151142  -0.011026  3.585649  -0.007  0.093888  -0.00528  3.854954  -0.003  0.110087  -0.004126  3.864139  -0.003  0.912539  -0.005903  0.14353  0.082957  -0.006359  3.849168  -0.004
C  C53  1  0.40005964  0.83041811  0.55390662  1  0.148984  -0.010984  3.584164  -0.007  0.092416  -0.00524  3.854959  -0.003  0.108338  -0.00409  3.864427  -0.003  0.896108  -0.005872  0.143048  0.081688  -0.006335  3.84904  -0.004
C  C54  1  0.89411519  0.45236093  0.32974194  1  0.151039  -0.011009  3.58579  -0.007  0.0938  -0.005281  3.855076  -0.003  0.109999  -0.004123  3.864258  -0.003  0.912677  -0.005899  0.143528  0.082887  -0.006354  3.849322  -0.004
C  C55  1  0.40005712  0.66958197  0.94609417  1  0.149048  -0.010979  3.584188  -0.007  0.092476  -0.00524  3.854974  -0.003  0.108401  -0.004087  3.864443  -0.003  0.896188  -0.00587  0.143045  0.081765  -0.006332  3.849027  -0.004
C  C56  1  0.10588256  0.95236235  0.82974115  1  0.151178  -0.011017  3.585696  -0.007  0.093918  -0.005281  3.854991  -0.003  0.110119  -0.004123  3.864173  -0.003  0.912637  -0.005903  0.14358  0.08299  -0.006359  3.8492  -0.004
C  C57  1  0.59993938  0.16957553  0.44609020  1  0.148809  -0.010979  3.584345  -0.007  0.092211  -0.00524  3.855199  -0.003  0.108132  -0.004086  3.864672  -0.003  0.896306  -0.005871  0.142968  0.08148  -0.006334  3.849281  -0.004
C  C58  1  0.10587878  0.54763773  0.67025885  1  0.151244  -0.011017  3.585552  -0.007  0.094003  -0.005281  3.854842  -0.003  0.110203  -0.004123  3.864024  -0.003  0.912657  -0.0059  0.143591  0.083084  -0.006355  3.849075  -0.004
C  C59  1  0.59994442  0.33042338  0.05390186  1  0.148954  -0.01098  3.584291  -0.007  0.092347  -0.005238  3.855047  -0.003  0.108272  -0.004089  3.864517  -0.003  0.89578  -0.00587  0.142995  0.081637  -0.006331  3.849101  -0.004
C  C60  1  0.62499907  0.04803200  0.13063761  1  -0.011475  -0.004431  3.703929  -0.003  -0.041404  -0.002109  3.975189  -0.002  -0.039401  -0.001912  3.995257  -0.001  0.448401  -0.002117  0.002122  -0.042762  -0.002212  3.96189  -0.002
C  C61  1  0.13061182  0.87107260  0.55656424  1  -0.010222  -0.004339  3.701098  -0.003  -0.039913  -0.002028  3.972931  -0.002  -0.03783  -0.001828  3.992815  -0.001  0.336902  -0.002097  0.00313  -0.04132  -0.002135  3.959813  -0.002
C  C62  1  0.62499276  0.45196942  0.36936081  1  -0.01146  -0.004422  3.704107  -0.003  -0.041422  -0.002111  3.975287  -0.002  -0.03942  -0.001908  3.995346  -0.001  0.448418  -0.002104  0.002182  -0.042748  -0.002198  3.96203  -0.002
C  C63  1  0.13061182  0.62892915  0.94343894  1  -0.010297  -0.004344  3.701003  -0.003  -0.039988  -0.002027  3.972839  -0.002  -0.037903  -0.001827  3.992718  -0.001  0.336898  -0.002091  0.003135  -0.041379  -0.002129  3.959713  -0.002
C  C64  1  0.37500877  0.95197084  0.86935842  1  -0.011471  -0.004436  3.703893  -0.003  -0.04151  -0.00211  3.975122  -0.002  -0.039506  -0.001912  3.995179  -0.001  0.448362  -0.002118  0.002128  -0.042863  -0.002213  3.961824  -0.002
C  C65  1  0.86938089  0.12891853  0.44343259  1  -0.010225  -0.004337  3.701052  -0.003  -0.039877  -0.002027  3.972852  -0.002  -0.037783  -0.001828  3.992713  -0.001  0.33665  -0.002096  0.003209  -0.041291  -0.002134  3.959739  -0.002
C  C66  1  0.37500499  0.54802924  0.63064316  1  -0.0114  -0.00443  3.703813  -0.003  -0.041428  -0.002109  3.975051  -0.002  -0.039426  -0.001912  3.995111  -0.001  0.44836  -0.002106  0.002177  -0.042763  -0.0022  3.961785  -0.002
C  C67  1  0.86938845  0.37108122  0.05656185  1  -0.010203  -0.00434  3.701136  -0.003  -0.039951  -0.002028  3.972932  -0.002  -0.03787  -0.001827  3.992822  -0.001  0.336563  -0.002092  0.003188  -0.041345  -0.002129  3.959805  -0.002
C  C68  1  0.69266528  0.95277560  0.08691917  1  -0.065873  0.000977  3.660785  0.001  -0.101413  6.8e-05  3.911189  0.0  -0.10028  0.00015  3.93094  0.0  0.192164  0.000429  0.004954  -0.101856  7.2e-05  3.897593  0.0
C  C69  1  0.19407073  0.91252432  0.46298396  1  -0.064139  0.001037  3.659136  0.001  -0.099214  0.000106  3.909488  0.0  -0.098269  0.000181  3.929035  0.0  0.324253  0.000506  0.006499  -0.099524  0.000115  3.896051  0.0
C  C70  1  0.69265898  0.54722364  0.41308083  1  -0.065894  0.000967  3.660882  0.001  -0.101383  6.9e-05  3.911268  0.0  -0.100248  0.000148  3.931022  0.0  0.191583  0.000426  0.005033  -0.101818  7e-05  3.897716  0.0
C  C71  1  0.19407199  0.58747659  0.03701683  1  -0.064  0.00103  3.659086  0.001  -0.099077  0.000105  3.909423  0.0  -0.098128  0.000181  3.928968  0.0  0.324185  0.000502  0.006559  -0.099388  0.000113  3.896002  0.0
C  C72  1  0.30733752  0.04722557  0.91308083  1  -0.065941  0.000975  3.660679  0.001  -0.101461  6.8e-05  3.911077  0.0  -0.100329  0.000149  3.930828  0.0  0.191612  0.000429  0.004953  -0.101905  7.2e-05  3.897479  0.0
C  C73  1  0.80592450  0.08746513  0.53701207  1  -0.064091  0.001029  3.658947  0.001  -0.099173  0.000105  3.909301  0.0  -0.098228  0.000181  3.928847  0.0  0.324161  0.000506  0.006512  -0.099481  0.000115  3.895861  0.0
C  C74  1  0.30733499  0.45277502  0.58691917  1  -0.06593  0.000975  3.660709  0.001  -0.101447  6.8e-05  3.911111  0.0  -0.100311  0.000149  3.930865  0.0  0.191991  0.000426  0.004963  -0.101885  7e-05  3.897563  0.0
C  C75  1  0.80593207  0.41253712  0.96298396  1  -0.064004  0.001038  3.659077  0.001  -0.099081  0.000105  3.909423  0.0  -0.098125  0.000181  3.928972  0.0  0.324374  0.000502  0.006608  -0.099386  0.000113  3.895997  0.0
C  C76  1  0.98353806  0.87232742  0.08212641  1  0.078485  1.6e-05  3.755366  0.0  0.044611  -0.000152  4.014311  0.0  0.049801  -2.8e-05  4.034013  0.0  0.11249  -0.000191  0.009968  0.041013  -0.000314  4.001306  0.0
C  C77  1  0.47900461  0.91340102  0.37980785  1  0.081315  7.7e-05  3.749408  0.0  0.048029  -0.000137  4.009053  0.0  0.053202  -1.6e-05  4.028259  0.0  0.154552  -0.000158  0.010628  0.044413  -0.000285  3.996357  0.0
C  C78  1  0.98353050  0.62766848  0.41787518  1  0.078368  2.9e-05  3.755756  0.0  0.044535  -0.000152  4.014691  0.0  0.049724  -2.9e-05  4.034399  0.0  0.112729  -0.000188  0.010031  0.040978  -0.000313  4.001665  0.0
C  C79  1  0.47900461  0.58659738  0.12019215  1  0.081265  3.9e-05  3.749358  0.0  0.047935  -0.000135  4.00903  0.0  0.053145  -2.1e-05  4.028253  0.0  0.154554  -0.000158  0.010643  0.044325  -0.000285  3.996346  0.0
C  C80  1  0.01647104  0.12767124  0.91787597  1  0.078494  4.4e-05  3.75558  0.0  0.044634  -0.000153  4.01453  0.0  0.049823  -2.9e-05  4.034235  0.0  0.112547  -0.000191  0.010004  0.041035  -0.000314  4.001524  0.0
C  C81  1  0.52099063  0.08659596  0.62018818  1  0.081092  4.9e-05  3.74949  0.0  0.04782  -0.000136  4.009147  0.0  0.052999  -1.9e-05  4.028356  0.0  0.154516  -0.000158  0.010623  0.044203  -0.000285  3.996446  0.0
C  C82  1  0.01646726  0.37232767  0.58212482  1  0.078499  3.5e-05  3.75564  0.0  0.044636  -0.000153  4.014584  0.0  0.049824  -2.9e-05  4.034296  0.0  0.112713  -0.000189  0.010076  0.041071  -0.000314  4.001556  0.0
C  C83  1  0.52099693  0.41341131  0.87980785  1  0.081107  8.6e-05  3.749285  0.0  0.04782  -0.000137  4.008937  0.0  0.053029  -1.7e-05  4.02816  0.0  0.154445  -0.000158  0.010614  0.044207  -0.000285  3.996251  0.0
C  C84  1  0.14390847  0.87280927  0.11462998  1  -0.316977  -0.001295  3.615241  -0.001  -0.361861  -0.000827  3.857782  0.0  -0.367986  -0.000513  3.873817  0.0  0.068935  -0.001202  -0.189313  -0.357875  -0.001226  3.84733  -0.001
C  C85  1  0.63984823  0.88032899  0.37741941  1  -0.316802  -0.001462  3.621259  -0.001  -0.364744  -0.000855  3.866391  0.0  -0.370791  -0.000544  3.882821  0.0  0.055388  -0.001236  -0.18902  -0.360795  -0.001271  3.855677  -0.001
C  C86  1  0.14390090  0.62718746  0.38536922  1  -0.316858  -0.001322  3.615338  -0.001  -0.361741  -0.000827  3.857858  0.0  -0.367865  -0.000511  3.873897  0.0  0.068728  -0.001175  -0.189272  -0.357713  -0.001199  3.847386  -0.001
C  C87  1  0.63984823  0.61966775  0.12257901  1  -0.316811  -0.001393  3.621224  -0.001  -0.364736  -0.000858  3.866375  0.0  -0.370776  -0.000535  3.882782  0.0  0.055415  -0.001224  -0.189028  -0.360771  -0.001258  3.855654  -0.001
C  C88  1  0.85609812  0.12719190  0.88537478  1  -0.317159  -0.001352  3.615516  -0.001  -0.362046  -0.000827  3.858042  0.0  -0.36817  -0.000511  3.874079  0.0  0.068921  -0.001203  -0.189409  -0.358058  -0.001227  3.847583  -0.001
C  C89  1  0.36014700  0.11967302  0.62257504  1  -0.316831  -0.001411  3.621131  -0.001  -0.364745  -0.000856  3.866238  0.0  -0.370791  -0.000539  3.882665  0.0  0.055252  -0.001237  -0.189046  -0.360787  -0.001271  3.855528  -0.001
C  C90  1  0.85609559  0.37280785  0.61462442  1  -0.317135  -0.001335  3.615552  -0.001  -0.362008  -0.000827  3.858086  0.0  -0.368133  -0.000512  3.874128  0.0  0.069114  -0.001178  -0.189343  -0.357979  -0.001201  3.847608  -0.001
C  C91  1  0.36015331  0.38033677  0.87742338  1  -0.316755  -0.001472  3.621093  -0.001  -0.364739  -0.000856  3.86622  0.0  -0.370784  -0.000541  3.882626  0.0  0.055461  -0.001224  -0.189074  -0.360773  -0.001258  3.855498  -0.001
N  N92  1  0.75253613  0.10615693  0.18197872  1  -0.286653  -0.014259  3.389544  -0.01  -0.248247  -0.009171  3.69795  -0.007  -0.27301  -0.009017  3.715564  -0.007  -1.167189  -0.007749  -0.356547  -0.232654  -0.008396  3.686127  -0.006
N  N93  1  0.26077719  0.82051172  0.61229316  1  -0.285813  -0.013986  3.380363  -0.01  -0.24712  -0.009019  3.687147  -0.007  -0.271874  -0.008863  3.705083  -0.007  -1.145275  -0.007577  -0.353658  -0.23158  -0.008243  3.675207  -0.006
N  N94  1  0.75252856  0.39384532  0.31801810  1  -0.28671  -0.014264  3.389807  -0.01  -0.248264  -0.00917  3.698178  -0.007  -0.273019  -0.009019  3.715785  -0.007  -1.167157  -0.00775  -0.356617  -0.232677  -0.008397  3.686387  -0.006
N  N95  1  0.26077845  0.67948836  0.88770843  1  -0.285832  -0.013987  3.380238  -0.01  -0.247131  -0.009018  3.687015  -0.007  -0.271891  -0.008865  3.70496  -0.007  -1.145354  -0.007579  -0.353658  -0.231585  -0.008244  3.675056  -0.006
N  N96  1  0.24746793  0.89384675  0.81801572  1  -0.286637  -0.01426  3.389526  -0.01  -0.24819  -0.00917  3.697919  -0.007  -0.272955  -0.009018  3.715531  -0.007  -1.167105  -0.007749  -0.356592  -0.232593  -0.008396  3.686092  -0.006
N  N97  1  0.73921805  0.17948359  0.38770367  1  -0.28589  -0.013991  3.380486  -0.01  -0.247191  -0.009018  3.687266  -0.007  -0.271948  -0.008863  3.705217  -0.007  -1.144953  -0.007576  -0.353694  -0.231644  -0.008242  3.675315  -0.006
N  N98  1  0.24746541  0.60615250  0.68198587  1  -0.286769  -0.014261  3.389459  -0.01  -0.248364  -0.00917  3.697915  -0.007  -0.273129  -0.009017  3.715526  -0.007  -1.167066  -0.007749  -0.356625  -0.232745  -0.008396  3.686095  -0.006
N  N99  1  0.73922435  0.32051866  0.11228998  1  -0.285824  -0.013984  3.380399  -0.009  -0.247049  -0.009019  3.687098  -0.007  -0.271803  -0.008863  3.705045  -0.007  -1.145389  -0.007579  -0.35363  -0.231509  -0.008245  3.67514  -0.006
N  N100  1  0.86280508  0.95316292  0.11289662  1  -0.055179  -0.000628  3.643296  0.0  0.037487  -0.000683  3.849731  0.0  0.022416  -0.000444  3.876067  0.0  -1.264556  -0.00108  -0.231643  0.047629  -0.000819  3.83165  0.0
N  N101  1  0.36434674  0.88578327  0.46179133  1  -0.062191  -0.000661  3.650277  0.0  0.030987  -0.000698  3.855895  0.0  0.015891  -0.000457  3.882414  0.0  -1.2817  -0.001101  -0.232713  0.041127  -0.000841  3.837759  0.0
N  N102  1  0.86279878  0.54683883  0.38710021  1  -0.054945  -0.000628  3.643338  0.0  0.037636  -0.000683  3.849783  0.0  0.022565  -0.000445  3.876122  0.0  -1.264589  -0.00107  -0.231669  0.047784  -0.00081  3.831739  0.0
N  N103  1  0.36434800  0.61421848  0.03821026  1  -0.062284  -0.000655  3.650347  0.0  0.030902  -0.000697  3.85598  0.0  0.015807  -0.000457  3.882487  0.0  -1.281773  -0.001097  -0.232749  0.04105  -0.000836  3.837837  0.0
N  N104  1  0.13719772  0.04683741  0.88710100  1  -0.05509  -0.000625  3.643307  0.0  0.03754  -0.000681  3.849744  0.0  0.022471  -0.000446  3.876076  0.0  -1.264633  -0.001081  -0.231689  0.047682  -0.00082  3.831661  0.0
N  N105  1  0.63564849  0.11421288  0.53820708  1  -0.061896  -0.000652  3.650163  0.0  0.031311  -0.000697  3.855722  0.0  0.016217  -0.000457  3.882241  0.0  -1.281923  -0.001101  -0.232611  0.041451  -0.000841  3.837586  0.0
N  N106  1  0.13719519  0.45316066  0.61289900  1  -0.055025  -0.000628  3.643174  0.0  0.037589  -0.000682  3.849632  0.0  0.022518  -0.000445  3.875965  0.0  -1.264627  -0.001071  -0.231616  0.047735  -0.000811  3.83159  0.0
N  N107  1  0.63565732  0.38578938  0.96178736  1  -0.062015  -0.000663  3.650277  0.0  0.031132  -0.000698  3.85589  0.0  0.016042  -0.000456  3.882393  0.0  -1.281061  -0.001096  -0.232698  0.041277  -0.000836  3.837745  0.0
F  F108  1  0.46264959  0.24999946  0.24998968  1  -0.572759  0.010447  1.112547  0.014  -0.510839  0.013241  1.319176  0.018  -0.528065  0.01141  1.293829  0.015  -0.833046  0.030765  -0.186631  -0.498203  0.015055  1.336556  0.02
F  F109  1  0.96952507  0.75000004  0.75002382  1  -0.574847  0.010112  1.111709  0.013  -0.513761  0.012983  1.31803  0.017  -0.53142  0.011212  1.293362  0.014  -0.833974  0.030003  -0.186039  -0.50077  0.014727  1.334888  0.019
F  F110  1  0.53735321  0.74998833  0.74999206  1  -0.572802  0.010446  1.112763  0.014  -0.510842  0.013241  1.319307  0.018  -0.528071  0.011411  1.293963  0.015  -0.833104  0.030763  -0.186573  -0.498203  0.015055  1.33669  0.02
F  F111  1  0.03048025  0.25000197  0.25001747  1  -0.574903  0.01011  1.111876  0.013  -0.513846  0.012982  1.318155  0.017  -0.531502  0.011211  1.293483  0.014  -0.833959  0.030004  -0.186103  -0.500857  0.014726  1.335014  0.019
F  F112  1  0.24499980  0.39119765  0.22313483  1  -0.597497  0.00035  0.947376  0.001  -0.5444  0.000442  1.13242  0.001  -0.559719  0.000287  1.109642  0.001  -0.846315  0.001673  -0.221778  -0.533114  0.00062  1.148153  0.001
F  F113  1  0.75190302  0.77820756  0.88402652  1  -0.59811  0.000352  0.941903  0.001  -0.544903  0.000443  1.127359  0.001  -0.55975  0.000288  1.104245  0.001  -0.846339  0.001681  -0.22391  -0.533876  0.000622  1.143258  0.001
F  F114  1  0.24500484  0.10880209  0.27686438  1  -0.597491  0.00035  0.947342  0.001  -0.544368  0.000442  1.132358  0.001  -0.559697  0.000287  1.109593  0.001  -0.84635  0.001673  -0.221801  -0.533074  0.00062  1.148071  0.001
F  F115  1  0.75194464  0.72178249  0.61598539  1  -0.598189  0.000352  0.941991  0.001  -0.544956  0.000443  1.127403  0.001  -0.559781  0.000288  1.104269  0.001  -0.846268  0.00168  -0.22392  -0.533939  0.000622  1.14332  0.001
F  F116  1  0.75500300  0.60879682  0.77687232  1  -0.597484  0.00035  0.947386  0.001  -0.544377  0.000442  1.132427  0.001  -0.559704  0.000287  1.10966  0.001  -0.84635  0.001674  -0.221819  -0.533094  0.00062  1.148168  0.001
F  F117  1  0.24805943  0.22179194  0.11598063  1  -0.59817  0.000352  0.941942  0.001  -0.54493  0.000443  1.127366  0.001  -0.559791  0.000288  1.104261  0.001  -0.846323  0.00168  -0.223929  -0.533904  0.000621  1.143269  0.001
F  F118  1  0.75499670  0.89119238  0.72313800  1  -0.597505  0.00035  0.947413  0.001  -0.544346  0.000442  1.132392  0.001  -0.559672  0.000287  1.109627  0.001  -0.846376  0.001673  -0.221782  -0.533055  0.00062  1.148109  0.001
F  F119  1  0.24809726  0.27820948  0.38402334  1  -0.598155  0.000352  0.941898  0.001  -0.545056  0.000443  1.127447  0.001  -0.559864  0.000288  1.104294  0.001  -0.846368  0.001681  -0.223962  -0.53404  0.000622  1.143367  0.001
