# generated using pymatgen
data_CuH14C10S2(N2O3)2
_symmetry_space_group_name_H-M   'P 1'
_cell_length_a   6.81778489
_cell_length_b   8.07781506
_cell_length_c   13.20217489
_cell_angle_alpha   89.99980610
_cell_angle_beta   90.00010658
_cell_angle_gamma   89.99970243
_symmetry_Int_Tables_number   1
_chemical_formula_structural   CuH14C10S2(N2O3)2
_chemical_formula_sum   'Cu2 H28 C20 S4 N8 O12'
_cell_volume   727.08080887
_cell_formula_units_Z   2
loop_
 _symmetry_equiv_pos_site_id
 _symmetry_equiv_pos_as_xyz
  1  'x, y, z'
loop_
 _atom_site_type_symbol
 _atom_site_label
 _atom_site_symmetry_multiplicity
 _atom_site_fract_x
 _atom_site_fract_y
 _atom_site_fract_z
 _atom_site_occupancy
 _atom_site_hle17_ddec_charge
 _atom_site_hle17_ddec_spin_density
 _atom_site_hle17_ddec_sum_bond_order
 _atom_site_hle17_magmom
 _atom_site_hse06_10hf_ddec_charge
 _atom_site_hse06_10hf_ddec_spin_density
 _atom_site_hse06_10hf_ddec_sum_bond_order
 _atom_site_hse06_10hf_magmom
 _atom_site_hse06_ddec_charge
 _atom_site_hse06_ddec_spin_density
 _atom_site_hse06_ddec_sum_bond_order
 _atom_site_hse06_magmom
 _atom_site_pbe_cm5_charge
 _atom_site_pbe_ddec_charge
 _atom_site_pbe_ddec_spin_density
 _atom_site_pbe_ddec_sum_bond_order
 _atom_site_pbe_magmom
Cu  Cu0  1  0.50000194  0.50000159  0.49999990  1  0.865506  -0.705072  1.790358  -0.545  0.811992  -0.799134  2.19948  -0.666  0.907985  -0.858883  2.126783  -0.751  0.750196  0.748548  -0.750241  2.25083  -0.603
Cu  Cu1  1  0.99999782  0.00000151  0.00000048  1  0.865511  -0.705065  1.790356  -0.545  0.811975  -0.799136  2.199503  -0.666  0.907936  -0.858881  2.12687  -0.751  0.750192  0.748542  -0.75024  2.250851  -0.603
H  H2  1  0.49999988  0.45250965  0.08627342  1  0.146662  -0.001544  0.939988  -0.002  0.162309  -0.001342  1.000807  -0.001  0.164202  -0.000897  1.001039  -0.001  0.099384  0.1606  -0.001682  1.001149  -0.001
H  H3  1  0.50000108  0.54748857  0.91372638  1  0.146659  -0.001548  0.940019  -0.002  0.162312  -0.001342  1.000835  -0.001  0.164207  -0.000897  1.001066  -0.001  0.099387  0.160603  -0.001682  1.001177  -0.001
H  H4  1  0.99999858  0.95251665  0.41372675  1  0.146676  -0.001546  0.939973  -0.002  0.162328  -0.001342  1.000769  -0.001  0.164224  -0.000897  1.000997  -0.001  0.099398  0.160618  -0.001682  1.001109  -0.001
H  H5  1  0.00000091  0.04748281  0.58627229  1  0.146663  -0.001546  0.93997  -0.002  0.162319  -0.001342  1.000771  -0.001  0.164214  -0.000897  1.001002  -0.001  0.09939  0.160609  -0.001682  1.001112  -0.001
H  H6  1  0.36808517  0.31300541  0.16916742  1  0.17618  0.000624  0.958205  0.0  0.187831  0.000186  1.021034  0.0  0.191208  0.000148  1.019711  0.0  0.104991  0.185342  0.000207  1.022079  0.0
H  H7  1  0.36808669  0.68699339  0.83083300  1  0.176177  0.000624  0.958242  0.0  0.187837  0.000186  1.021063  0.0  0.191213  0.000148  1.019743  0.0  0.104985  0.185347  0.000207  1.022111  0.0
H  H8  1  0.13191632  0.81300828  0.33083862  1  0.176183  0.000619  0.958218  0.0  0.187816  0.000186  1.021071  0.0  0.191193  0.000148  1.019748  0.0  0.104987  0.185327  0.000207  1.022121  0.0
H  H9  1  0.13191591  0.18699156  0.66916082  1  0.176175  0.000624  0.958281  0.0  0.187835  0.000187  1.021094  0.0  0.191211  0.000148  1.019773  0.0  0.104996  0.185344  0.000207  1.022145  0.0
H  H10  1  0.63191578  0.68699281  0.83083389  1  0.176168  0.000623  0.958237  0.0  0.187829  0.000186  1.021059  0.0  0.191204  0.000148  1.019738  0.0  0.104977  0.185338  0.000207  1.022104  0.0
H  H11  1  0.63191427  0.31300483  0.16916755  1  0.176161  0.000619  0.958258  0.0  0.187813  0.000186  1.021085  0.0  0.191189  0.000148  1.019762  0.0  0.104984  0.185322  0.000207  1.022128  0.0
H  H12  1  0.86808317  0.18699365  0.66916042  1  0.176166  0.000629  0.958266  0.0  0.187805  0.000186  1.021108  0.0  0.191181  0.000148  1.019786  0.0  0.104974  0.185312  0.000207  1.022156  0.0
H  H13  1  0.86808211  0.81300914  0.33083897  1  0.176182  0.000618  0.958241  0.0  0.187821  0.000186  1.021079  0.0  0.191197  0.000148  1.019757  0.0  0.104986  0.185328  0.000207  1.022127  0.0
H  H14  1  0.18348154  0.33312951  0.37913045  1  0.117939  -0.001488  0.969378  -0.003  0.118206  -0.001137  1.037946  -0.002  0.120676  -0.000772  1.036085  -0.001  0.128348  0.116452  -0.001579  1.039465  -0.003
H  H15  1  0.18348242  0.66687258  0.62087208  1  0.11791  -0.001488  0.969386  -0.003  0.118179  -0.001138  1.037965  -0.002  0.120646  -0.000772  1.036108  -0.001  0.12832  0.116427  -0.00158  1.039482  -0.003
H  H16  1  0.31651836  0.83312897  0.12087253  1  0.117919  -0.001489  0.969353  -0.003  0.11818  -0.001138  1.037935  -0.002  0.120649  -0.000772  1.036074  -0.001  0.12835  0.116429  -0.00158  1.039453  -0.003
H  H17  1  0.31651883  0.16687377  0.87912785  1  0.117853  -0.00149  0.969437  -0.003  0.118136  -0.001137  1.038003  -0.002  0.120601  -0.000772  1.036139  -0.001  0.128314  0.116383  -0.00158  1.039521  -0.003
H  H18  1  0.81652234  0.66686995  0.62087238  1  0.117921  -0.001488  0.969402  -0.003  0.118196  -0.001137  1.037968  -0.002  0.120659  -0.000772  1.036106  -0.001  0.128342  0.116443  -0.00158  1.039486  -0.003
H  H19  1  0.81652146  0.33312935  0.37912923  1  0.117926  -0.001498  0.969406  -0.003  0.118199  -0.001138  1.037975  -0.002  0.120669  -0.000772  1.036113  -0.001  0.128335  0.116446  -0.00158  1.039492  -0.003
H  H20  1  0.68347966  0.16687296  0.87912803  1  0.117891  -0.001489  0.969399  -0.003  0.11817  -0.001138  1.037963  -0.002  0.120637  -0.000772  1.036104  -0.001  0.128329  0.116416  -0.00158  1.039479  -0.003
H  H21  1  0.68347772  0.83312940  0.12087194  1  0.117931  -0.001494  0.969392  -0.003  0.118208  -0.001137  1.03796  -0.002  0.120674  -0.000772  1.036095  -0.001  0.128344  0.116453  -0.001579  1.039478  -0.003
H  H22  1  0.50000040  0.14193898  0.66173197  1  0.087174  -0.000192  0.968809  0.0  0.091363  -4.8e-05  1.036002  0.0  0.094811  4e-06  1.033333  0.0  0.114851  0.089386  -0.000218  1.037581  0.0
H  H23  1  0.50000202  0.85805800  0.33826934  1  0.087143  -0.000199  0.968792  0.0  0.091328  -4.8e-05  1.036  0.0  0.094779  4e-06  1.033324  0.0  0.114858  0.089351  -0.000218  1.03758  0.0
H  H24  1  0.00000101  0.64194363  0.83826801  1  0.087141  -0.000201  0.96882  0.0  0.091327  -4.8e-05  1.036029  0.0  0.094777  4e-06  1.033356  0.0  0.114839  0.08935  -0.000218  1.03761  0.0
H  H25  1  0.99999848  0.35805459  0.16172799  1  0.087177  -0.000204  0.968818  0.0  0.091359  -4.8e-05  1.036008  0.0  0.094806  4e-06  1.033339  0.0  0.11488  0.089382  -0.000218  1.037589  0.0
H  H26  1  0.50000269  0.16659005  0.34761248  1  0.110103  -0.000272  0.961166  0.0  0.118229  -0.000123  1.019399  0.0  0.121744  -5.3e-05  1.016659  0.0  0.119577  0.11626  -0.000304  1.020977  0.0
H  H27  1  0.49999973  0.83340693  0.65238883  1  0.110054  -0.000272  0.961187  0.0  0.118185  -0.000123  1.019431  0.0  0.1217  -5.4e-05  1.016686  0.0  0.119548  0.116217  -0.000304  1.02101  0.0
H  H28  1  0.00000116  0.66658579  0.15238706  1  0.109971  -0.000273  0.961277  0.0  0.118115  -0.000123  1.019497  0.0  0.121628  -5.3e-05  1.016762  0.0  0.119551  0.11615  -0.000304  1.02107  0.0
H  H29  1  0.99999979  0.33341119  0.84760895  1  0.11006  -0.000273  0.961172  0.0  0.118175  -0.000123  1.019442  0.0  0.121693  -5.3e-05  1.016692  0.0  0.119544  0.116205  -0.000304  1.021025  0.0
C  C30  1  0.50000020  0.38884867  0.15959095  1  -0.502617  -0.010009  3.545655  -0.011  -0.576301  -0.005383  3.790816  -0.006  -0.584509  -0.003592  3.792349  -0.004  -0.243252  -0.570462  -0.006796  3.790249  -0.007
C  C31  1  0.50000075  0.61115078  0.84040960  1  -0.502601  -0.010008  3.545643  -0.011  -0.576312  -0.005384  3.790775  -0.006  -0.584523  -0.003592  3.792312  -0.004  -0.243232  -0.570474  -0.006796  3.79021  -0.007
C  C32  1  0.99999864  0.88885111  0.34041389  1  -0.50263  -0.009999  3.545579  -0.011  -0.576286  -0.005383  3.790667  -0.006  -0.584495  -0.003592  3.792204  -0.004  -0.243283  -0.570444  -0.006796  3.790098  -0.007
C  C33  1  0.99999866  0.11114986  0.65958638  1  -0.502605  -0.010017  3.545645  -0.011  -0.576275  -0.005383  3.790716  -0.006  -0.584486  -0.003592  3.792259  -0.004  -0.243286  -0.570438  -0.006796  3.790152  -0.007
C  C34  1  0.10224535  0.40756304  0.43356151  1  0.094667  -0.001342  3.596504  -0.004  0.070857  -0.00228  3.842833  -0.003  0.075469  -0.00059  3.860681  -0.002  0.065332  0.067381  -0.003918  3.831886  -0.005
C  C35  1  0.10224649  0.59243198  0.56644093  1  0.094794  -0.00134  3.596851  -0.004  0.070954  -0.002279  3.843178  -0.003  0.075564  -0.000589  3.861033  -0.002  0.065456  0.067478  -0.003918  3.83223  -0.005
C  C36  1  0.39775116  0.90756862  0.06643979  1  0.094771  -0.00135  3.596778  -0.004  0.070974  -0.002281  3.843075  -0.003  0.075588  -0.000586  3.86092  -0.002  0.065375  0.067497  -0.003917  3.832132  -0.005
C  C37  1  0.39775669  0.09243995  0.93356067  1  0.094889  -0.001341  3.596604  -0.004  0.071047  -0.002282  3.842958  -0.003  0.075669  -0.000588  3.860798  -0.002  0.065429  0.067571  -0.003918  3.832011  -0.005
C  C38  1  0.89775854  0.59243642  0.56644132  1  0.094784  -0.001288  3.596809  -0.004  0.070977  -0.00228  3.843123  -0.003  0.075597  -0.000588  3.860969  -0.002  0.065344  0.0675  -0.003918  3.832175  -0.005
C  C39  1  0.89775446  0.40756748  0.43356113  1  0.094841  -0.001242  3.596663  -0.004  0.070997  -0.00228  3.843019  -0.003  0.075612  -0.000587  3.860865  -0.002  0.065387  0.067522  -0.003917  3.832069  -0.005
C  C40  1  0.60224539  0.09243455  0.93356001  1  0.094776  -0.001288  3.596804  -0.004  0.070943  -0.002279  3.843154  -0.003  0.075559  -0.000589  3.861  -0.002  0.065378  0.067468  -0.003917  3.832202  -0.005
C  C41  1  0.60224280  0.90756322  0.06644064  1  0.094742  -0.001257  3.596626  -0.004  0.070904  -0.00228  3.842957  -0.003  0.075524  -0.000589  3.860796  -0.002  0.065337  0.067429  -0.003918  3.83201  -0.005
C  C42  1  0.50000046  0.07943960  0.58866226  1  0.068682  -0.000193  3.697651  0.0  0.052131  -5.4e-05  3.949188  0.0  0.053955  4.2e-05  3.967121  0.0  0.044667  0.050994  -0.000433  3.936161  -0.001
C  C43  1  0.50000196  0.92055862  0.41133906  1  0.068664  -0.000136  3.697772  0.0  0.052103  -5.6e-05  3.949307  0.0  0.053929  4.4e-05  3.967236  0.0  0.0446  0.050959  -0.000433  3.936291  -0.001
C  C44  1  0.00000133  0.57944139  0.91133786  1  0.068771  -0.000152  3.697651  0.0  0.052208  -5.7e-05  3.949193  0.0  0.054032  4.3e-05  3.967125  0.0  0.044712  0.051079  -0.000433  3.936151  -0.001
C  C45  1  0.99999815  0.42055560  0.08865966  1  0.068672  -0.00012  3.697766  0.0  0.052152  -5.7e-05  3.949272  0.0  0.053977  4.4e-05  3.967204  0.0  0.044599  0.051013  -0.000433  3.936253  -0.001
C  C46  1  0.50000157  0.09312569  0.41634518  1  0.07513  -0.000363  3.678941  -0.001  0.054059  -0.000173  3.927998  0.0  0.057283  -5.3e-05  3.944378  0.0  0.041819  0.051952  -0.000554  3.915972  -0.001
C  C47  1  0.50000085  0.90687129  0.58365538  1  0.075133  -0.000335  3.678936  0.0  0.054028  -0.000173  3.928033  0.0  0.057262  -5.1e-05  3.944398  0.0  0.041796  0.05192  -0.000554  3.916007  -0.001
C  C48  1  0.99999908  0.59312331  0.08365349  1  0.075168  -0.000366  3.678929  -0.001  0.054033  -0.000173  3.928049  0.0  0.057272  -5.2e-05  3.9444  0.0  0.041803  0.051924  -0.000554  3.91603  -0.001
C  C49  1  0.00000040  0.40687367  0.91634252  1  0.075091  -0.000346  3.678945  0.0  0.054005  -0.000174  3.928017  0.0  0.057233  -5.2e-05  3.944396  0.0  0.041815  0.051897  -0.000554  3.915992  -0.001
S  S50  1  0.49999990  0.54400052  0.25508642  1  1.387685  -0.002144  5.54439  0.001  1.302094  -0.00376  6.076608  -0.002  1.351135  -0.002334  6.053845  -0.002  0.510143  1.268138  -0.004948  6.091881  -0.002
S  S51  1  0.50000105  0.45599893  0.74491262  1  1.387734  -0.002136  5.544372  0.001  1.302165  -0.003766  6.076547  -0.002  1.351203  -0.002335  6.053799  -0.002  0.510182  1.268209  -0.004948  6.09182  -0.002
S  S52  1  0.99999812  0.04400038  0.24491463  1  1.387697  -0.002142  5.544354  0.001  1.302106  -0.003764  6.076567  -0.002  1.351146  -0.002335  6.053802  -0.002  0.510167  1.268153  -0.004948  6.091836  -0.002
S  S53  1  0.00000136  0.95600031  0.75508517  1  1.387652  -0.002131  5.544451  0.001  1.302042  -0.003767  6.076689  -0.002  1.351075  -0.002336  6.053929  -0.002  0.51014  1.268084  -0.004948  6.091956  -0.002
N  N54  1  0.20368576  0.50000224  0.50000203  1  -0.231563  -0.070827  3.306898  -0.094  -0.190119  -0.048158  3.603946  -0.068  -0.219335  -0.036899  3.627413  -0.056  -0.315907  -0.171957  -0.055978  3.589949  -0.074
N  N55  1  0.29631325  0.00000059  0.00000014  1  -0.231656  -0.07081  3.306933  -0.094  -0.190237  -0.048153  3.60403  -0.068  -0.219447  -0.036901  3.627491  -0.056  -0.315944  -0.17208  -0.055976  3.590043  -0.074
N  N56  1  0.79631666  0.49999846  0.50000155  1  -0.23172  -0.070855  3.307036  -0.094  -0.190314  -0.048159  3.604145  -0.068  -0.219529  -0.036901  3.627603  -0.056  -0.31596  -0.172151  -0.055979  3.590149  -0.074
N  N57  1  0.70368490  0.00000321  0.99999921  1  -0.231635  -0.070858  3.306886  -0.094  -0.190213  -0.048157  3.603982  -0.068  -0.219423  -0.036901  3.627442  -0.056  -0.315922  -0.172052  -0.055979  3.589985  -0.074
N  N58  1  0.50000148  0.17433058  0.50518045  1  -0.30303  -0.002202  3.139492  -0.004  -0.268987  -0.000465  3.422013  -0.002  -0.284062  0.00059  3.440037  -0.001  -0.308814  -0.256711  -0.003201  3.408424  -0.005
N  N59  1  0.50000094  0.82566640  0.49482010  1  -0.302892  -0.002219  3.139566  -0.004  -0.268824  -0.000464  3.422057  -0.002  -0.283908  0.000589  3.440095  -0.001  -0.308732  -0.256548  -0.003201  3.408469  -0.005
N  N60  1  0.00000119  0.67433068  0.99481946  1  -0.302965  -0.00221  3.139429  -0.004  -0.268902  -0.000463  3.421957  -0.002  -0.283979  0.000588  3.439991  -0.001  -0.308795  -0.256629  -0.003202  3.408375  -0.005
N  N61  1  0.99999829  0.32566754  0.00517731  1  -0.302921  -0.002227  3.139647  -0.004  -0.268871  -0.000465  3.422127  -0.002  -0.283948  0.000587  3.440167  -0.001  -0.308761  -0.256594  -0.003203  3.408542  -0.005
O  O62  1  0.50000038  0.44368477  0.35116236  1  -0.693387  -0.056731  2.127377  -0.081  -0.652888  -0.035485  2.444557  -0.054  -0.689008  -0.026202  2.429921  -0.043  -0.354321  -0.629553  -0.040606  2.455396  -0.058
O  O63  1  0.50000057  0.55631592  0.64883744  1  -0.693393  -0.056729  2.127339  -0.081  -0.652945  -0.035487  2.444629  -0.054  -0.689025  -0.026204  2.429899  -0.043  -0.354339  -0.629606  -0.040608  2.455464  -0.058
O  O64  1  0.99999813  0.94368452  0.14883858  1  -0.693356  -0.056731  2.127353  -0.081  -0.652859  -0.035485  2.444543  -0.054  -0.688967  -0.026203  2.429889  -0.043  -0.354304  -0.629529  -0.040607  2.455385  -0.058
O  O65  1  0.99999771  0.05631521  0.85116018  1  -0.693312  -0.056725  2.12738  -0.081  -0.652816  -0.035485  2.444586  -0.054  -0.688903  -0.026201  2.429912  -0.043  -0.354282  -0.629484  -0.040606  2.455425  -0.058
O  O66  1  0.31979589  0.64077093  0.24419408  1  -0.677631  0.000674  1.945973  0.0  -0.62584  0.000509  2.192087  0.0  -0.647471  0.000631  2.17992  0.0  -0.340283  -0.61064  0.000211  2.199971  0.0
O  O67  1  0.31980061  0.35923180  0.75580403  1  -0.677672  0.000662  1.946084  0.0  -0.625898  0.000514  2.192221  0.0  -0.647529  0.000631  2.180049  0.0  -0.340337  -0.610693  0.000211  2.200104  0.0
O  O68  1  0.18019785  0.14076966  0.25580627  1  -0.677664  0.000663  1.946031  0.0  -0.625883  0.000513  2.192154  0.0  -0.64751  0.000631  2.179983  0.0  -0.340332  -0.610676  0.000211  2.200031  0.0
O  O69  1  0.18020533  0.85922997  0.74419397  1  -0.677658  0.000665  1.946005  0.0  -0.625875  0.000515  2.192139  0.0  -0.647508  0.000631  2.179976  0.0  -0.340308  -0.610675  0.000211  2.200023  0.0
O  O70  1  0.68020506  0.35922853  0.75580571  1  -0.677655  0.000665  1.94594  0.0  -0.625874  0.000516  2.192062  0.0  -0.647509  0.000631  2.179895  0.0  -0.340304  -0.610675  0.000211  2.199946  0.0
O  O71  1  0.68020034  0.64076890  0.24419425  1  -0.677654  0.000665  1.946009  0.0  -0.625873  0.000513  2.192146  0.0  -0.647502  0.000631  2.179974  0.0  -0.34032  -0.610667  0.000211  2.200024  0.0
O  O72  1  0.81980163  0.85922980  0.74419277  1  -0.677663  0.000655  1.946052  0.0  -0.625872  0.000515  2.192185  0.0  -0.647503  0.000631  2.180017  0.0  -0.340315  -0.610667  0.000211  2.200061  0.0
O  O73  1  0.81979562  0.14077197  0.25580582  1  -0.677648  0.000668  1.945938  0.0  -0.62589  0.000513  2.192084  0.0  -0.647517  0.000632  2.179914  0.0  -0.340305  -0.610691  0.000211  2.199961  0.0
