# generated using pymatgen
data_CdH8C12N6Cl
_symmetry_space_group_name_H-M   'P 1'
_cell_length_a   8.34475518
_cell_length_b   8.93953309
_cell_length_c   10.12010802
_cell_angle_alpha   72.79615781
_cell_angle_beta   87.48136962
_cell_angle_gamma   83.63620229
_symmetry_Int_Tables_number   1
_chemical_formula_structural   CdH8C12N6Cl
_chemical_formula_sum   'Cd2 H16 C24 N12 Cl2'
_cell_volume   716.67154608
_cell_formula_units_Z   2
loop_
 _symmetry_equiv_pos_site_id
 _symmetry_equiv_pos_as_xyz
  1  'x, y, z'
loop_
 _atom_site_type_symbol
 _atom_site_label
 _atom_site_symmetry_multiplicity
 _atom_site_fract_x
 _atom_site_fract_y
 _atom_site_fract_z
 _atom_site_occupancy
 _atom_site_pbe_bader_spin_density
 _atom_site_pbe_cm5_charge
 _atom_site_pbe_ddec_charge
 _atom_site_pbe_ddec_spin_density
 _atom_site_pbe_ddec_sum_bond_order
 _atom_site_pbe_magmom
Cd  Cd0  1  0.64638458  0.32887409  0.59366309  1  0  0.725359  0.753759  0  2.464515  0
Cd  Cd1  1  0.35361769  0.67112784  0.40633572  1  0  0.725323  0.753701  0  2.464593  0
H  H2  1  0.95808138  0.44350985  0.38685771  1  0  0.108028  0.0859  0  1.017305  0
H  H3  1  0.04191978  0.55649093  0.61314045  1  0  0.108034  0.085889  0  1.017335  0
H  H4  1  0.18148285  0.32137300  0.26986093  1  0  0.106233  0.110732  0  1.047562  0
H  H5  1  0.81851892  0.67862185  0.73014165  1  0  0.106229  0.110733  0  1.047613  0
H  H6  1  0.16235969  0.04594108  0.25400885  1  0  0.104939  0.101969  0  1.019605  0
H  H7  1  0.83763837  0.95405499  0.74599362  1  0  0.104936  0.101954  0  1.019611  0
H  H8  1  0.91435962  0.91989241  0.33272499  1  0  0.099202  0.118554  0  1.035104  0
H  H9  1  0.08563689  0.08010721  0.66727566  1  0  0.099231  0.118585  0  1.035165  0
H  H10  1  0.29571429  0.85844506  0.85818557  1  0  0.110897  0.123932  0  1.008273  0
H  H11  1  0.70428467  0.14155341  0.14181229  1  0  0.110884  0.123859  0  1.008277  0
H  H12  1  0.21394531  0.94862948  0.06272247  1  0  0.094886  0.10523  0  1.041553  0
H  H13  1  0.78605227  0.05137132  0.93727685  1  0  0.094876  0.105214  0  1.041573  0
H  H14  1  0.28448314  0.21927638  0.06435483  1  0  0.107977  0.111813  0  1.027302  0
H  H15  1  0.71551855  0.78071854  0.93564379  1  0  0.107951  0.111766  0  1.027377  0
H  H16  1  0.43869409  0.37400198  0.86580380  1  0  0.118275  0.088756  0  1.00585  0
H  H17  1  0.56130388  0.62599525  0.13419936  1  0  0.11827  0.088731  0  1.005859  0
C  C18  1  0.95025250  0.32844809  0.37190400  1  0  0.051819  0.108264  0  3.931055  0
C  C19  1  0.04974733  0.67155389  0.62809293  1  0  0.051815  0.108282  0  3.931054  0
C  C20  1  0.07617900  0.25900215  0.30774755  1  0  -0.077934  -0.108931  0  3.922149  0
C  C21  1  0.92381987  0.74099748  0.69225101  1  0  -0.077936  -0.108936  0  3.922169  0
C  C22  1  0.06384706  0.10926644  0.29604997  1  0  -0.067251  -0.019975  0  3.941432  0
C  C23  1  0.93615224  0.89072958  0.70395442  1  0  -0.067256  -0.019934  0  3.941452  0
C  C24  1  0.92339440  0.03759068  0.34069555  1  0  -0.078608  -0.150235  0  3.94036  0
C  C25  1  0.07660455  0.96240889  0.65930697  1  0  -0.078625  -0.150257  0  3.940493  0
C  C26  1  0.79895951  0.11855783  0.39704225  1  0  0.118321  0.169113  0  3.991358  0
C  C27  1  0.20104049  0.88144293  0.60295795  1  0  0.118331  0.169087  0  3.991451  0
C  C28  1  0.64302453  0.05407120  0.44502482  1  0  0.140367  0.123092  0  3.925295  0
C  C29  1  0.35697383  0.94593429  0.55497427  1  0  0.140344  0.123076  0  3.92532  0
C  C30  1  0.44338792  0.03231165  0.61943258  1  0  0.141979  0.129788  0  3.918023  0
C  C31  1  0.55661044  0.96769383  0.38056651  1  0  0.141952  0.12977  0  3.917967  0
C  C32  1  0.39681587  0.07390275  0.74872521  1  0  0.118161  0.169056  0  3.976573  0
C  C33  1  0.60318424  0.92609684  0.25127528  1  0  0.118193  0.169077  0  3.976501  0
C  C34  1  0.31863914  0.97504496  0.86033111  1  0  -0.071517  -0.141134  0  3.928448  0
C  C35  1  0.68135718  0.02495590  0.13966529  1  0  -0.07151  -0.141052  0  3.928383  0
C  C36  1  0.27531404  0.02605126  0.97569085  1  0  -0.065007  -0.018516  0  3.925713  0
C  C37  1  0.72468503  0.97394603  0.02430730  1  0  -0.065037  -0.018625  0  3.925747  0
C  C38  1  0.31416931  0.17302567  0.97728118  1  0  -0.072556  -0.103051  0  3.933389  0
C  C39  1  0.68583619  0.82696686  0.02271687  1  0  -0.072503  -0.102858  0  3.933251  0
C  C40  1  0.39995715  0.26152179  0.86534779  1  0  0.053776  0.105716  0  3.928879  0
C  C41  1  0.60004305  0.73847663  0.13465200  1  0  0.053769  0.105653  0  3.928887  0
N  N42  1  0.81573699  0.25893570  0.41712978  1  0  -0.321061  -0.268995  0  3.470938  0
N  N43  1  0.18426386  0.74106860  0.58286850  1  0  -0.32107  -0.26901  0  3.471035  0
N  N44  1  0.58174031  0.08369528  0.56045429  1  0  -0.302989  -0.26277  0  3.492449  0
N  N45  1  0.41826067  0.91630783  0.43954527  1  0  -0.302954  -0.26273  0  3.492443  0
N  N46  1  0.44069996  0.21325382  0.75387064  1  0  -0.320636  -0.268868  0  3.470281  0
N  N47  1  0.55930375  0.78674573  0.24612968  1  0  -0.320632  -0.268832  0  3.470305  0
N  N48  1  0.55764774  0.58353620  0.59087652  1  0  -0.326939  -0.529169  0  3.047526  0
N  N49  1  0.44235435  0.41647024  0.40913400  1  0  -0.327157  -0.529607  0  3.046879  0
N  N50  1  0.54407517  0.62520912  0.69385086  1  0  0.071945  0.408811  0  4.514337  0
N  N51  1  0.45592728  0.37478830  0.30613623  1  0  0.071982  0.408837  0  4.514541  0
N  N52  1  0.53074981  0.67031289  0.79161196  1  0  -0.200349  -0.398923  0  2.606598  0
N  N53  1  0.46924959  0.32969708  0.20839979  1  0  -0.20008  -0.398454  0  2.607579  0
Cl  Cl54  1  0.88089511  0.29364974  0.74943504  1  0  -0.367336  -0.543919  0  1.007812  0
Cl  Cl55  1  0.11910338  0.70635455  0.25056533  1  0  -0.367342  -0.543923  0  1.00783  0
