# generated using pymatgen
data_CaCdH26C24N2O11
_symmetry_space_group_name_H-M   'P 1'
_cell_length_a   13.94150335
_cell_length_b   14.29881146
_cell_length_c   18.73602645
_cell_angle_alpha   93.97998048
_cell_angle_beta   90.00049961
_cell_angle_gamma   89.99988975
_symmetry_Int_Tables_number   1
_chemical_formula_structural   CaCdH26C24N2O11
_chemical_formula_sum   'Ca4 Cd4 H104 C96 N8 O44'
_cell_volume   3725.96192440
_cell_formula_units_Z   4
loop_
 _symmetry_equiv_pos_site_id
 _symmetry_equiv_pos_as_xyz
  1  'x, y, z'
loop_
 _atom_site_type_symbol
 _atom_site_label
 _atom_site_symmetry_multiplicity
 _atom_site_fract_x
 _atom_site_fract_y
 _atom_site_fract_z
 _atom_site_occupancy
 _atom_site_pbe_bader_charge
 _atom_site_pbe_bader_spin_density
 _atom_site_pbe_cm5_charge
 _atom_site_pbe_ddec_charge
 _atom_site_pbe_ddec_spin_density
 _atom_site_pbe_ddec_sum_bond_order
 _atom_site_pbe_magmom
Ca  Ca0  1  0.20417367  0.91577998  0.12944716  1  1.653597  0  0.896098  1.416161  0  1.537636  0
Ca  Ca1  1  0.70418676  0.58421690  0.37055452  1  1.653576  0  0.896108  1.416142  0  1.537684  0
Ca  Ca2  1  0.79582234  0.08422843  0.87055443  1  1.653502  0  0.896055  1.416148  0  1.537616  0
Ca  Ca3  1  0.29581498  0.41577258  0.62944604  1  1.653499  0  0.896115  1.416141  0  1.537638  0
Cd  Cd4  1  0.46372516  0.49333946  0.76891123  1  1.284553  0  0.774088  0.969467  0  2.135847  0
Cd  Cd5  1  0.96372746  0.00666204  0.73108716  1  1.284596  0  0.774054  0.969445  0  2.135794  0
Cd  Cd6  1  0.53626583  0.50666684  0.23109238  1  1.284498  0  0.7741  0.969595  0  2.135917  0
Cd  Cd7  1  0.03626425  0.99333375  0.26891162  1  1.284631  0  0.774076  0.969517  0  2.135827  0
H  H8  1  0.22518743  0.76645931  0.75990817  1  0.118638  0  0.107102  0.112654  0  1.010762  0
H  H9  1  0.72518293  0.73353403  0.74008925  1  0.118571  0  0.107082  0.112669  0  1.010684  0
H  H10  1  0.77480499  0.23353789  0.24009067  1  0.118348  0  0.107129  0.112715  0  1.010763  0
H  H11  1  0.27480806  0.26646736  0.25991357  1  0.118219  0  0.107078  0.112657  0  1.010731  0
H  H12  1  0.18651385  0.89404929  0.56178363  1  0.065401  0  0.103847  0.10598  0  1.039608  0
H  H13  1  0.68650833  0.60595951  0.93821812  1  0.065577  0  0.10386  0.105957  0  1.039548  0
H  H14  1  0.81348503  0.10595282  0.43821495  1  0.065337  0  0.10386  0.10603  0  1.039553  0
H  H15  1  0.31347979  0.39405169  0.06178790  1  0.06582  0  0.103841  0.10597  0  1.039573  0
H  H16  1  0.36991116  0.65141747  0.57187261  1  0.082089  0  0.106713  0.103117  0  1.027784  0
H  H17  1  0.86990862  0.84858691  0.92812369  1  0.082096  0  0.10673  0.103177  0  1.027689  0
H  H18  1  0.63008987  0.34858673  0.42812769  1  0.082047  0  0.106704  0.103136  0  1.027704  0
H  H19  1  0.13009600  0.15140959  0.07187513  1  0.08212  0  0.106717  0.103107  0  1.027749  0
H  H20  1  0.43896483  0.69722996  0.48203375  1  0.073083  0  0.102612  0.102343  0  1.027019  0
H  H21  1  0.93895687  0.80278063  0.01797448  1  0.072955  0  0.102637  0.102263  0  1.027112  0
H  H22  1  0.56103835  0.30277705  0.51796564  1  0.072957  0  0.102612  0.102323  0  1.027061  0
H  H23  1  0.06104201  0.19722146  0.98203104  1  0.072893  0  0.102615  0.102253  0  1.027115  0
H  H24  1  0.35678947  0.77283331  0.27351944  1  0.079928  0  0.11126  0.114425  0  1.022077  0
H  H25  1  0.85678051  0.72716057  0.22648468  1  0.079895  0  0.111272  0.114435  0  1.022028  0
H  H26  1  0.64321228  0.22717230  0.72647987  1  0.079957  0  0.111267  0.114394  0  1.02208  0
H  H27  1  0.14322267  0.27283031  0.77351916  1  0.080016  0  0.111282  0.114393  0  1.022038  0
H  H28  1  0.18136388  0.86005036  0.45345712  1  0.114212  0  0.103446  0.106698  0  1.033189  0
H  H29  1  0.68135872  0.63995638  0.04654015  1  0.113797  0  0.103467  0.106698  0  1.033221  0
H  H30  1  0.81863644  0.13995105  0.54654249  1  0.113907  0  0.10346  0.106683  0  1.033178  0
H  H31  1  0.31864159  0.36004431  0.95346476  1  0.1138  0  0.103457  0.106707  0  1.033208  0
H  H32  1  0.30017225  0.58677058  0.12900724  1  0.079698  0  0.102406  0.158479  0  0.998998  0
H  H33  1  0.80017967  0.91323040  0.37098782  1  0.079417  0  0.102484  0.158663  0  0.999001  0
H  H34  1  0.69981874  0.41325256  0.87099356  1  0.079396  0  0.102494  0.158518  0  0.999054  0
H  H35  1  0.19981418  0.08674577  0.62900668  1  0.079391  0  0.102431  0.15849  0  0.999129  0
H  H36  1  0.26992172  0.69737678  0.17429710  1  0.058497  0  0.111718  0.161888  0  0.994676  0
H  H37  1  0.76992740  0.80262704  0.32569738  1  0.058344  0  0.111699  0.161836  0  0.994758  0
H  H38  1  0.73007429  0.30265198  0.82569760  1  0.058655  0  0.111672  0.161798  0  0.994782  0
H  H39  1  0.23007291  0.19734421  0.67430379  1  0.057653  0  0.111662  0.161718  0  0.994876  0
H  H40  1  0.39133538  0.66689366  0.15614664  1  0.095685  0  0.110156  0.174218  0  0.983491  0
H  H41  1  0.89134121  0.83311072  0.34384386  1  0.095813  0  0.110088  0.174134  0  0.983516  0
H  H42  1  0.60865920  0.33313159  0.84384733  1  0.096362  0  0.110112  0.174167  0  0.983323  0
H  H43  1  0.10865767  0.16686755  0.65615503  1  0.09636  0  0.110085  0.174107  0  0.983389  0
H  H44  1  0.41430802  0.55564730  0.05359244  1  0.127081  0  0.109992  0.134849  0  1.031336  0
H  H45  1  0.91431340  0.94435984  0.44640690  1  0.127086  0  0.110035  0.134976  0  1.031317  0
H  H46  1  0.58569373  0.44437583  0.94641423  1  0.127377  0  0.11003  0.134964  0  1.031204  0
H  H47  1  0.08568978  0.05562335  0.55358425  1  0.127362  0  0.110018  0.134928  0  1.031166  0
H  H48  1  0.46738368  0.59148126  0.97299044  1  0.066061  0  0.107578  0.130522  0  0.981292  0
H  H49  1  0.96738781  0.90852299  0.52700968  1  0.065975  0  0.107526  0.130573  0  0.981294  0
H  H50  1  0.53261950  0.40853415  0.02701527  1  0.066164  0  0.107522  0.130509  0  0.981175  0
H  H51  1  0.03261609  0.09146861  0.47298353  1  0.066042  0  0.107498  0.130464  0  0.981243  0
H  H52  1  0.36095689  0.52408669  0.96801402  1  0.07399  0  0.102663  0.122021  0  1.0086  0
H  H53  1  0.86095879  0.97591278  0.53198515  1  0.074041  0  0.102665  0.122031  0  1.008659  0
H  H54  1  0.63905131  0.47592170  0.03199398  1  0.073689  0  0.102632  0.121988  0  1.008611  0
H  H55  1  0.13904654  0.02407883  0.46800485  1  0.073675  0  0.102653  0.122047  0  1.008628  0
H  H56  1  0.26070188  0.74562696  0.93777451  1  0.060924  0  0.104757  0.110888  0  1.006765  0
H  H57  1  0.76070673  0.75437057  0.56221323  1  0.060853  0  0.104813  0.110943  0  1.006771  0
H  H58  1  0.73928265  0.25434995  0.06220668  1  0.0612  0  0.104795  0.11095  0  1.006734  0
H  H59  1  0.23927637  0.24565464  0.43779836  1  0.061277  0  0.104818  0.110937  0  1.006786  0
H  H60  1  0.33326275  0.65613347  0.89311015  1  0.107567  0  0.10976  0.13994  0  1.021418  0
H  H61  1  0.83325431  0.84387027  0.60688267  1  0.107814  0  0.109754  0.139964  0  1.021389  0
H  H62  1  0.66676697  0.34387145  0.10688539  1  0.107475  0  0.109768  0.139879  0  1.021416  0
H  H63  1  0.16677613  0.15612413  0.39311602  1  0.107625  0  0.109823  0.13994  0  1.021331  0
H  H64  1  0.38698519  0.76141926  0.92989247  1  0.0396  0  0.099486  0.107146  0  1.009461  0
H  H65  1  0.88698944  0.73858859  0.57010946  1  0.039514  0  0.09948  0.107132  0  1.009513  0
H  H66  1  0.61299289  0.23860808  0.07011069  1  0.039789  0  0.099485  0.107118  0  1.009559  0
H  H67  1  0.11298648  0.26138268  0.42988370  1  0.039802  0  0.09947  0.107064  0  1.009653  0
H  H68  1  0.40958513  0.08143367  0.04486025  1  0.06723  0  0.109114  0.163955  0  0.977974  0
H  H69  1  0.90958852  0.41856091  0.45513788  1  0.067395  0  0.109155  0.164008  0  0.977913  0
H  H70  1  0.59041733  0.91856422  0.95514398  1  0.06716  0  0.109154  0.164  0  0.97791  0
H  H71  1  0.09041467  0.58143840  0.54485734  1  0.06724  0  0.109114  0.163972  0  0.97788  0
H  H72  1  0.52177987  0.10444713  0.08864786  1  0.038432  0  0.103483  0.148676  0  0.994821  0
H  H73  1  0.02178302  0.39554443  0.41135185  1  0.038556  0  0.103486  0.148691  0  0.994798  0
H  H74  1  0.47822116  0.89555497  0.91135392  1  0.038481  0  0.103483  0.148661  0  0.994793  0
H  H75  1  0.97821944  0.60445138  0.58864425  1  0.038599  0  0.103525  0.148768  0  0.994776  0
H  H76  1  0.42779069  0.18855014  0.09790896  1  0.093322  0  0.102026  0.153201  0  1.008476  0
H  H77  1  0.92779295  0.31144091  0.40209016  1  0.093156  0  0.102009  0.15323  0  1.008555  0
H  H78  1  0.57220890  0.81144495  0.90209511  1  0.093238  0  0.102027  0.153201  0  1.008504  0
H  H79  1  0.07220737  0.68855840  0.59790400  1  0.09316  0  0.102022  0.153212  0  1.008542  0
H  H80  1  0.36012028  0.98321852  0.26687766  1  0.109245  0  0.115594  0.130636  0  1.032671  0
H  H81  1  0.86012545  0.51677677  0.23311855  1  0.109397  0  0.115605  0.130657  0  1.032606  0
H  H82  1  0.63988792  0.01677937  0.73312550  1  0.109353  0  0.115673  0.130725  0  1.03255  0
H  H83  1  0.13988562  0.48322324  0.76687565  1  0.109243  0  0.115645  0.130651  0  1.032587  0
H  H84  1  0.34381975  0.09561463  0.31303319  1  0.051752  0  0.105424  0.119868  0  0.983064  0
H  H85  1  0.84382719  0.40438074  0.18696403  1  0.051741  0  0.105422  0.119896  0  0.98306  0
H  H86  1  0.65618200  0.90438326  0.68697050  1  0.051746  0  0.105414  0.119894  0  0.983047  0
H  H87  1  0.15618029  0.59561857  0.81303120  1  0.051697  0  0.105407  0.119851  0  0.983069  0
H  H88  1  0.45488392  0.03461184  0.32128528  1  0.06276  0  0.107439  0.11813  0  0.9772  0
H  H89  1  0.95489043  0.46538338  0.17871425  1  0.062763  0  0.107388  0.118092  0  0.977329  0
H  H90  1  0.54512213  0.96539095  0.67871975  1  0.062859  0  0.107451  0.118182  0  0.977196  0
H  H91  1  0.04511921  0.53461313  0.82128029  1  0.062898  0  0.10746  0.118179  0  0.97723  0
H  H92  1  0.53385942  0.19481847  0.19135728  1  0.072039  0  0.108793  0.127639  0  1.016958  0
H  H93  1  0.03386801  0.30517798  0.30864171  1  0.071948  0  0.108804  0.127639  0  1.016911  0
H  H94  1  0.46613874  0.80518432  0.80864561  1  0.071992  0  0.108828  0.12771  0  1.016931  0
H  H95  1  0.96613804  0.69482063  0.69135401  1  0.071924  0  0.108806  0.127638  0  1.016979  0
H  H96  1  0.55755468  0.14810766  0.27483931  1  0.061883  0  0.103036  0.116196  0  0.994615  0
H  H97  1  0.05756219  0.35189297  0.22515900  1  0.061754  0  0.103062  0.116162  0  0.994482  0
H  H98  1  0.44244420  0.85190075  0.72516389  1  0.061636  0  0.10303  0.116206  0  0.994609  0
H  H99  1  0.94244099  0.64810214  0.77483333  1  0.061542  0  0.103015  0.116176  0  0.994622  0
H  H100  1  0.46227572  0.23031464  0.26656379  1  0.096827  0  0.102997  0.125914  0  1.002051  0
H  H101  1  0.96228254  0.26968268  0.23343430  1  0.096902  0  0.102979  0.125836  0  1.002  0
H  H102  1  0.53772172  0.76968816  0.73343750  1  0.096929  0  0.102968  0.125869  0  1.002047  0
H  H103  1  0.03771849  0.73031382  0.76656344  1  0.096875  0  0.102954  0.125819  0  1.002092  0
H  H104  1  0.14877019  0.01126663  0.98375873  1  0.620882  0  0.337651  0.412973  0  0.872601  0
H  H105  1  0.64878766  0.48872408  0.51623062  1  0.620917  0  0.337727  0.413067  0  0.872488  0
H  H106  1  0.85122152  0.98871869  0.01622666  1  0.620813  0  0.337709  0.413023  0  0.872527  0
H  H107  1  0.35122341  0.51127660  0.48377803  1  0.620343  0  0.337737  0.413046  0  0.872516  0
H  H108  1  0.18703696  0.90985494  0.96921172  1  0.617951  0  0.340292  0.411615  0  0.874907  0
H  H109  1  0.68702742  0.59014404  0.53079217  1  0.617572  0  0.340282  0.411564  0  0.874972  0
H  H110  1  0.81298917  0.09013803  0.03079758  1  0.617508  0  0.340322  0.411613  0  0.87489  0
H  H111  1  0.31298939  0.40985806  0.46920641  1  0.617504  0  0.340329  0.411568  0  0.874964  0
C  C112  1  0.30323092  0.70260750  0.66916784  1  -0.032688  0  -0.015358  -0.029379  0  4.005613  0
C  C113  1  0.80322448  0.79739345  0.83082943  1  -0.032541  0  -0.015311  -0.029371  0  4.005558  0
C  C114  1  0.69676581  0.29739461  0.33082967  1  -0.032653  0  -0.015354  -0.029407  0  4.005635  0
C  C115  1  0.19677153  0.20260514  0.16917270  1  -0.032481  0  -0.015401  -0.029677  0  4.005555  0
C  C116  1  0.24109571  0.76834064  0.70310956  1  -0.014643  0  -0.077758  -0.118999  0  3.944816  0
C  C117  1  0.74108972  0.73165899  0.79688830  1  -0.014514  0  -0.077744  -0.119028  0  3.944647  0
C  C118  1  0.75890030  0.23165867  0.29688833  1  -0.01436  0  -0.077847  -0.119101  0  3.944884  0
C  C119  1  0.25890270  0.26834380  0.20311565  1  -0.014488  0  -0.077778  -0.118941  0  3.944709  0
C  C120  1  0.19725724  0.83514681  0.66288422  1  -0.04435  0  -0.020316  -0.026994  0  4.00088  0
C  C121  1  0.69724970  0.66485567  0.83711619  1  -0.044561  0  -0.020247  -0.026949  0  4.000735  0
C  C122  1  0.80273733  0.16485459  0.33711539  1  -0.044511  0  -0.020305  -0.02703  0  4.00097  0
C  C123  1  0.30273555  0.33514993  0.16288899  1  -0.044486  0  -0.020268  -0.027008  0  4.000835  0
C  C124  1  0.22049247  0.83935205  0.59052108  1  -0.021949  0  -0.080836  -0.141529  0  3.93006  0
C  C125  1  0.72048794  0.66065462  0.90947970  1  -0.022149  0  -0.080874  -0.141513  0  3.93005  0
C  C126  1  0.77950569  0.16064866  0.40947796  1  -0.021731  0  -0.080878  -0.141623  0  3.930136  0
C  C127  1  0.27950161  0.33935238  0.09052502  1  -0.022147  0  -0.08082  -0.141549  0  3.930121  0
C  C128  1  0.28404215  0.77512048  0.55589049  1  -0.004388  0  -0.009536  0.064107  0  4.022975  0
C  C129  1  0.78403790  0.72488400  0.94411059  1  -0.004211  0  -0.009479  0.06419  0  4.022929  0
C  C130  1  0.71595816  0.22488163  0.44410809  1  -0.004305  0  -0.009486  0.06421  0  4.022966  0
C  C131  1  0.21595955  0.27511950  0.05589447  1  -0.004331  0  -0.009539  0.06427  0  4.022935  0
C  C132  1  0.32296652  0.70541465  0.59626896  1  -0.063958  0  -0.075731  -0.133321  0  3.921508  0
C  C133  1  0.82296309  0.79458908  0.90373019  1  -0.063929  0  -0.075818  -0.133481  0  3.92137  0
C  C134  1  0.67703307  0.29458675  0.40373118  1  -0.063909  0  -0.075736  -0.133364  0  3.921335  0
C  C135  1  0.17703794  0.20541092  0.09627255  1  -0.063935  0  -0.075798  -0.13334  0  3.921392  0
C  C136  1  0.30649839  0.77800073  0.47892643  1  -0.024406  0  -0.01302  0.061158  0  4.023338  0
C  C137  1  0.80649277  0.72200373  0.02107527  1  -0.024412  0  -0.013071  0.061085  0  4.023345  0
C  C138  1  0.69350480  0.22200207  0.52107273  1  -0.024424  0  -0.012999  0.061154  0  4.023223  0
C  C139  1  0.19350826  0.27799696  0.97893017  1  -0.024497  0  -0.012985  0.061187  0  4.023183  0
C  C140  1  0.38745222  0.73184459  0.44889375  1  -0.087687  0  -0.083749  -0.145387  0  3.940255  0
C  C141  1  0.88744472  0.76816117  0.05111121  1  -0.087214  0  -0.083734  -0.145181  0  3.940205  0
C  C142  1  0.61255024  0.26815962  0.55110601  1  -0.08751  0  -0.083749  -0.145354  0  3.940205  0
C  C143  1  0.11255703  0.23183882  0.94889420  1  -0.087318  0  -0.083802  -0.145306  0  3.940164  0
C  C144  1  0.40430364  0.72805088  0.37528822  1  -0.052494  0  -0.01894  -0.028114  0  3.99268  0
C  C145  1  0.90429197  0.77195205  0.12471670  1  -0.052801  0  -0.01899  -0.028339  0  3.992693  0
C  C146  1  0.59569954  0.27195473  0.62471162  1  -0.052564  0  -0.018905  -0.028091  0  3.992793  0
C  C147  1  0.09570907  0.22804304  0.87528737  1  -0.05282  0  -0.018959  -0.028305  0  3.992682  0
C  C148  1  0.34345982  0.77549486  0.33079887  1  0.050196  0  -0.074417  -0.102526  0  3.927697  0
C  C149  1  0.84345092  0.72450535  0.16920444  1  0.049762  0  -0.074453  -0.102549  0  3.927729  0
C  C150  1  0.65654049  0.22450935  0.66920037  1  0.050023  0  -0.074461  -0.102534  0  3.927791  0
C  C151  1  0.15655227  0.27548763  0.83080005  1  0.04949  0  -0.074449  -0.102455  0  3.927532  0
C  C152  1  0.26524958  0.82548760  0.36006336  1  -0.016967  0  -0.019372  -0.032958  0  3.992048  0
C  C153  1  0.76524259  0.67451411  0.13993525  1  -0.016353  0  -0.019379  -0.03283  0  3.992194  0
C  C154  1  0.73474930  0.17451380  0.63993411  1  -0.01676  0  -0.019404  -0.03299  0  3.99225  0
C  C155  1  0.23476060  0.32548167  0.86006673  1  -0.016081  0  -0.019444  -0.032927  0  3.991925  0
C  C156  1  0.24604046  0.82466515  0.43332393  1  -0.085702  0  -0.080912  -0.135062  0  3.92179  0
C  C157  1  0.74603404  0.67533869  0.06667468  1  -0.085545  0  -0.080851  -0.135007  0  3.922089  0
C  C158  1  0.75395985  0.17533625  0.56667462  1  -0.08545  0  -0.080944  -0.135065  0  3.921971  0
C  C159  1  0.25396556  0.32465989  0.93332959  1  -0.085402  0  -0.080819  -0.135081  0  3.921937  0
C  C160  1  0.34994857  0.62885885  0.70981013  1  1.559092  0  0.21092  0.585753  0  4.201999  0
C  C161  1  0.84994868  0.87113434  0.79018490  1  1.558642  0  0.211029  0.586206  0  4.201971  0
C  C162  1  0.65004457  0.37114185  0.29018731  1  1.559004  0  0.211033  0.585993  0  4.202319  0
C  C163  1  0.15004948  0.12885934  0.20981857  1  1.558615  0  0.211122  0.586233  0  4.201779  0
C  C164  1  0.12100519  0.89911995  0.69500976  1  1.546108  0  0.18642  0.554705  0  4.243567  0
C  C165  1  0.62100242  0.60087912  0.80499370  1  1.546098  0  0.186396  0.554633  0  4.243664  0
C  C166  1  0.87898508  0.10087515  0.30498844  1  1.546041  0  0.186453  0.55477  0  4.243253  0
C  C167  1  0.37898498  0.39912998  0.19501114  1  1.546047  0  0.186418  0.554636  0  4.243477  0
C  C168  1  0.48333731  0.66713365  0.34358541  1  1.593821  0  0.217515  0.60436  0  4.215321  0
C  C169  1  0.98332302  0.83287268  0.15642394  1  1.593451  0  0.217449  0.60424  0  4.215531  0
C  C170  1  0.51666802  0.33287688  0.65641256  1  1.594023  0  0.217378  0.604035  0  4.215613  0
C  C171  1  0.01667801  0.16712099  0.84358485  1  1.593625  0  0.21737  0.604257  0  4.215576  0
C  C172  1  0.20017593  0.87844957  0.31346063  1  1.583654  0  0.2161  0.601309  0  4.204651  0
C  C173  1  0.70016887  0.62154872  0.18653683  1  1.583413  0  0.216047  0.601232  0  4.204572  0
C  C174  1  0.79982367  0.12154833  0.68653719  1  1.583796  0  0.216033  0.601292  0  4.204851  0
C  C175  1  0.29983360  0.37844846  0.81346575  1  1.583486  0  0.216115  0.601461  0  4.204228  0
C  C176  1  0.30897568  0.70869277  0.06581584  1  1.362036  0  0.25432  0.533205  0  4.05474  0
C  C177  1  0.80898983  0.79130821  0.43417661  1  1.362492  0  0.254278  0.533186  0  4.054403  0
C  C178  1  0.69101602  0.29132618  0.93417672  1  1.362792  0  0.254284  0.533119  0  4.054797  0
C  C179  1  0.19101120  0.20867636  0.56582422  1  1.362729  0  0.254314  0.533151  0  4.054802  0
C  C180  1  0.31781665  0.66166577  0.13490398  1  -0.087935  0  -0.231051  -0.518823  0  3.899764  0
C  C181  1  0.81782200  0.83833870  0.36508978  1  -0.087752  0  -0.231008  -0.518859  0  3.899988  0
C  C182  1  0.68218008  0.33836158  0.86509544  1  -0.088708  0  -0.231043  -0.518726  0  3.899937  0
C  C183  1  0.18217688  0.16163607  0.63490624  1  -0.087775  0  -0.230974  -0.518593  0  3.900018  0
C  C184  1  0.39918880  0.57931832  0.00049238  1  0.206541  0  -0.132811  -0.27727  0  3.878301  0
C  C185  1  0.89919485  0.92068533  0.49950720  1  0.206495  0  -0.132943  -0.277625  0  3.878448  0
C  C186  1  0.60081510  0.42069639  0.99951436  1  0.2062  0  -0.132823  -0.277296  0  3.87797  0
C  C187  1  0.10080977  0.07930488  0.50048433  1  0.206332  0  -0.132833  -0.277316  0  3.87795  0
C  C188  1  0.33012270  0.70969755  0.93765919  1  0.256357  0  -0.135205  -0.269158  0  3.916001  0
C  C189  1  0.83012532  0.79030618  0.56233628  1  0.256464  0  -0.135225  -0.269206  0  3.915923  0
C  C190  1  0.66987547  0.29030947  0.06233486  1  0.256233  0  -0.135225  -0.269079  0  3.916077  0
C  C191  1  0.16987428  0.20968891  0.43766619  1  0.255998  0  -0.135255  -0.269049  0  3.91602  0
C  C192  1  0.40435323  0.06497596  0.15633906  1  1.381037  0  0.254042  0.533618  0  4.056564  0
C  C193  1  0.90435383  0.43501582  0.34365888  1  1.38101  0  0.254027  0.533553  0  4.056436  0
C  C194  1  0.59565426  0.93502052  0.84366722  1  1.380208  0  0.253975  0.533702  0  4.05681  0
C  C195  1  0.09565437  0.56498279  0.65633471  1  1.380214  0  0.254025  0.53376  0  4.056577  0
C  C196  1  0.44362404  0.11309623  0.09329860  1  -0.090024  0  -0.230857  -0.506873  0  3.912952  0
C  C197  1  0.94362620  0.38689480  0.40670009  1  -0.090206  0  -0.230885  -0.506997  0  3.912844  0
C  C198  1  0.55637843  0.88690166  0.90670295  1  -0.08933  0  -0.230915  -0.506973  0  3.913012  0
C  C199  1  0.05637627  0.61310170  0.59329552  1  -0.089489  0  -0.230916  -0.507082  0  3.912892  0
C  C200  1  0.39602706  0.04873996  0.28454858  1  0.247424  0  -0.129817  -0.265381  0  3.898327  0
C  C201  1  0.89603259  0.45125745  0.21544908  1  0.247307  0  -0.129766  -0.265418  0  3.898341  0
C  C202  1  0.60397756  0.95126074  0.71545473  1  0.247274  0  -0.129887  -0.265559  0  3.898278  0
C  C203  1  0.10397490  0.54874187  0.78454561  1  0.247425  0  -0.129855  -0.265457  0  3.898312  0
C  C204  1  0.50039920  0.17050039  0.23936694  1  0.242771  0  -0.135069  -0.274539  0  3.909327  0
C  C205  1  0.00040575  0.32949680  0.26063241  1  0.243058  0  -0.135144  -0.274513  0  3.909182  0
C  C206  1  0.49960039  0.82950521  0.76063610  1  0.242932  0  -0.135039  -0.274572  0  3.909457  0
C  C207  1  0.99959816  0.67049970  0.73936373  1  0.243519  0  -0.135021  -0.274451  0  3.909399  0
N  N208  1  0.34314672  0.66574647  0.00489739  1  -1.183537  0  -0.276285  -0.023338  0  3.649153  0
N  N209  1  0.84315576  0.83425516  0.49509745  1  -1.183513  0  -0.276192  -0.023241  0  3.648858  0
N  N210  1  0.65685216  0.33426476  0.99509955  1  -1.183437  0  -0.276262  -0.023491  0  3.649249  0
N  N211  1  0.15684814  0.16573433  0.50490151  1  -1.183383  0  -0.276277  -0.023463  0  3.649072  0
N  N212  1  0.43492274  0.09251820  0.22276915  1  -1.187407  0  -0.276269  -0.029882  0  3.655352  0
N  N213  1  0.93492980  0.40747635  0.27722968  1  -1.187742  0  -0.276244  -0.02978  0  3.655338  0
N  N214  1  0.56507829  0.90748109  0.77723622  1  -1.187161  0  -0.276269  -0.029863  0  3.655467  0
N  N215  1  0.06507625  0.59252226  0.72276498  1  -1.187678  0  -0.276294  -0.029854  0  3.6553  0
O  O216  1  0.37731349  0.55299542  0.67352023  1  -1.199641  0  -0.381384  -0.655951  0  2.305697  0
O  O217  1  0.87730598  0.94700477  0.82646735  1  -1.199518  0  -0.38145  -0.656233  0  2.305952  0
O  O218  1  0.62268539  0.44700529  0.32647561  1  -1.199547  0  -0.381438  -0.656057  0  2.305876  0
O  O219  1  0.12268572  0.05299383  0.17353211  1  -1.199604  0  -0.381469  -0.656152  0  2.305776  0
O  O220  1  0.18772990  0.96344214  0.00418361  1  -1.22022  0  -0.574982  -0.780332  0  1.941951  0
O  O221  1  0.68774312  0.53655897  0.49581660  1  -1.21989  0  -0.575035  -0.780358  0  1.941951  0
O  O222  1  0.81227472  0.03656207  0.99581509  1  -1.219729  0  -0.575056  -0.780367  0  1.941904  0
O  O223  1  0.31226795  0.46343542  0.50418530  1  -1.219251  0  -0.57508  -0.780323  0  1.942027  0
O  O224  1  0.36375520  0.64256376  0.77603743  1  -1.161526  0  -0.308625  -0.542618  0  2.175841  0
O  O225  1  0.86376533  0.85741188  0.72395620  1  -1.161248  0  -0.308637  -0.542763  0  2.175676  0
O  O226  1  0.63623148  0.35743344  0.22396089  1  -1.161688  0  -0.30864  -0.542702  0  2.175963  0
O  O227  1  0.13623786  0.14257549  0.27604639  1  -1.161343  0  -0.308687  -0.542785  0  2.175789  0
O  O228  1  0.10135776  0.89905586  0.76091679  1  -1.149088  0  -0.344914  -0.570101  0  2.104679  0
O  O229  1  0.60135064  0.60093833  0.73908467  1  -1.14895  0  -0.344936  -0.570106  0  2.10463  0
O  O230  1  0.89863251  0.10094064  0.23908042  1  -1.148985  0  -0.344931  -0.570106  0  2.104534  0
O  O231  1  0.39863963  0.39906025  0.26092226  1  -1.149029  0  -0.344957  -0.570107  0  2.104503  0
O  O232  1  0.07569557  0.94930371  0.65143033  1  -1.161895  0  -0.339687  -0.573737  0  2.221366  0
O  O233  1  0.57569198  0.55069542  0.84857284  1  -1.162062  0  -0.33968  -0.57371  0  2.221507  0
O  O234  1  0.92429184  0.05068509  0.34856539  1  -1.161825  0  -0.33969  -0.573806  0  2.221262  0
O  O235  1  0.42428754  0.44932068  0.15143665  1  -1.161843  0  -0.33963  -0.573696  0  2.221489  0
O  O236  1  0.13379227  0.92646472  0.34552250  1  -1.156076  0  -0.326725  -0.556366  0  2.25105  0
O  O237  1  0.63378349  0.57353436  0.15447404  1  -1.156009  0  -0.32676  -0.556439  0  2.250735  0
O  O238  1  0.86620016  0.07352688  0.65447231  1  -1.156273  0  -0.326703  -0.556398  0  2.251117  0
O  O239  1  0.36621826  0.42646071  0.84553163  1  -1.156054  0  -0.326781  -0.556491  0  2.250631  0
O  O240  1  0.21500967  0.87367611  0.24634579  1  -1.235618  0  -0.382041  -0.658866  0  2.245356  0
O  O241  1  0.71500338  0.62631376  0.25365131  1  -1.235392  0  -0.381948  -0.658749  0  2.245329  0
O  O242  1  0.78499639  0.12632460  0.75365165  1  -1.235461  0  -0.381959  -0.65875  0  2.245338  0
O  O243  1  0.28499980  0.37368553  0.74635352  1  -1.235301  0  -0.381961  -0.658854  0  2.24523  0
O  O244  1  0.47369022  0.64148336  0.27732308  1  -1.15548  0  -0.326869  -0.565509  0  2.271911  0
O  O245  1  0.97367450  0.85851948  0.22268549  1  -1.15558  0  -0.32686  -0.565456  0  2.271947  0
O  O246  1  0.52631871  0.35853559  0.72267002  1  -1.155826  0  -0.326756  -0.565235  0  2.272004  0
O  O247  1  0.02632653  0.14147068  0.77732312  1  -1.155654  0  -0.326809  -0.56538  0  2.27186  0
O  O248  1  0.55045229  0.64304469  0.38417033  1  -1.22407  0  -0.390336  -0.653857  0  2.211525  0
O  O249  1  0.05043628  0.85696709  0.11583918  1  -1.223569  0  -0.39025  -0.653675  0  2.211677  0
O  O250  1  0.44955018  0.35695883  0.61582513  1  -1.224002  0  -0.390324  -0.65374  0  2.211633  0
O  O251  1  0.94956762  0.14303009  0.88416928  1  -1.223625  0  -0.390199  -0.653738  0  2.211878  0
O  O252  1  0.26902869  0.78804674  0.06446498  1  -1.219451  0  -0.375735  -0.614667  0  2.202535  0
O  O253  1  0.76905090  0.71194868  0.43552744  1  -1.219856  0  -0.375706  -0.614569  0  2.202246  0
O  O254  1  0.73096087  0.21196661  0.93552301  1  -1.219976  0  -0.375681  -0.614509  0  2.202258  0
O  O255  1  0.23095013  0.28803448  0.56448025  1  -1.219898  0  -0.375687  -0.614494  0  2.202376  0
O  O256  1  0.34417293  0.99984155  0.14586892  1  -1.220838  0  -0.370266  -0.606353  0  2.227199  0
O  O257  1  0.84417452  0.50014675  0.35412734  1  -1.220593  0  -0.370253  -0.606271  0  2.22734  0
O  O258  1  0.65583312  0.00014721  0.85413748  1  -1.220868  0  -0.370224  -0.606391  0  2.227403  0
O  O259  1  0.15583224  0.49985748  0.64586549  1  -1.220707  0  -0.370251  -0.606401  0  2.227432  0
