# generated using pymatgen
data_CdH22C30S2(NO)4
_symmetry_space_group_name_H-M   'P 1'
_cell_length_a   8.64222104
_cell_length_b   10.47300256
_cell_length_c   15.62625065
_cell_angle_alpha   90.49051514
_cell_angle_beta   77.61150678
_cell_angle_gamma   77.67908149
_symmetry_Int_Tables_number   1
_chemical_formula_structural   CdH22C30S2(NO)4
_chemical_formula_sum   'Cd2 H44 C60 S4 N8 O8'
_cell_volume   1347.39287149
_cell_formula_units_Z   2
loop_
 _symmetry_equiv_pos_site_id
 _symmetry_equiv_pos_as_xyz
  1  'x, y, z'
loop_
 _atom_site_type_symbol
 _atom_site_label
 _atom_site_symmetry_multiplicity
 _atom_site_fract_x
 _atom_site_fract_y
 _atom_site_fract_z
 _atom_site_occupancy
 _atom_site_hle17_bader_spin_density
 _atom_site_hle17_ddec_charge
 _atom_site_hle17_ddec_spin_density
 _atom_site_hle17_ddec_sum_bond_order
 _atom_site_hle17_magmom
 _atom_site_hse06_10hf_bader_spin_density
 _atom_site_hse06_10hf_ddec_charge
 _atom_site_hse06_10hf_ddec_spin_density
 _atom_site_hse06_10hf_ddec_sum_bond_order
 _atom_site_hse06_10hf_magmom
 _atom_site_hse06_bader_spin_density
 _atom_site_hse06_ddec_charge
 _atom_site_hse06_ddec_spin_density
 _atom_site_hse06_ddec_sum_bond_order
 _atom_site_hse06_magmom
 _atom_site_pbe_bader_spin_density
 _atom_site_pbe_cm5_charge
 _atom_site_pbe_ddec_charge
 _atom_site_pbe_ddec_spin_density
 _atom_site_pbe_ddec_sum_bond_order
 _atom_site_pbe_magmom
Cd  Cd0  1  0.64222746  0.69162977  0.24834317  1  0  1.122561  0  1.655308  0  0  0.933124  0  2.102532  0  0  0.992245  0  2.049124  0  0  0.769478  0.89138  0  2.138859  0
Cd  Cd1  1  0.35777802  0.30837026  0.75165612  1  0  1.122587  0  1.655345  0  0  0.933145  0  2.102591  0  0  0.992269  0  2.049179  0  0  0.769473  0.891392  0  2.138912  0
H  H2  1  0.90928249  0.32269111  0.85707970  1  0  0.331903  0  0.914994  0  0  0.311634  0  0.978379  0  0  0.320644  0  0.970646  0  0  0.311555  0.305292  0  0.983863  0
H  H3  1  0.09071447  0.67731372  0.14292126  1  0  0.33186  0  0.915026  0  0  0.311605  0  0.978378  0  0  0.320615  0  0.970647  0  0  0.311559  0.305259  0  0.98387  0
H  H4  1  0.29597105  0.12339300  0.44025384  1  0  0.319379  0  0.858406  0  0  0.311063  0  0.901727  0  0  0.317432  0  0.897877  0  0  0.3352  0.306836  0  0.904165  0
H  H5  1  0.70402554  0.87660105  0.55975163  1  0  0.319273  0  0.858485  0  0  0.310984  0  0.90179  0  0  0.317343  0  0.897948  0  0  0.335206  0.306759  0  0.904224  0
H  H6  1  0.07684755  0.74748971  0.97101146  1  0  0.098389  0  0.951949  0  0  0.108623  0  1.013818  0  0  0.111867  0  1.011601  0  0  0.104989  0.106261  0  1.01548  0
H  H7  1  0.92314401  0.25250518  0.02898501  1  0  0.098371  0  0.951898  0  0  0.108619  0  1.013738  0  0  0.111861  0  1.011522  0  0  0.104977  0.10625  0  1.015407  0
H  H8  1  0.14782988  0.86687978  0.83608667  1  0  0.085714  0  0.961868  0  0  0.098628  0  1.023212  0  0  0.101165  0  1.022633  0  0  0.095098  0.096765  0  1.023858  0
H  H9  1  0.85216142  0.13312003  0.16391048  1  0  0.085823  0  0.961885  0  0  0.098754  0  1.023187  0  0  0.101291  0  1.022607  0  0  0.095168  0.096889  0  1.023833  0
H  H10  1  0.60363594  0.00210793  0.03520522  1  0  0.098674  0  0.955127  0  0  0.108806  0  1.017626  0  0  0.11195  0  1.01547  0  0  0.10417  0.106507  0  1.019341  0
H  H11  1  0.39635863  0.99789295  0.96479666  1  0  0.098699  0  0.955174  0  0  0.108824  0  1.017674  0  0  0.111968  0  1.01552  0  0  0.104171  0.106527  0  1.019386  0
H  H12  1  0.66829762  0.11687304  0.89788338  1  0  0.098919  0  0.978807  0  0  0.105567  0  1.047297  0  0  0.108923  0  1.04548  0  0  0.097351  0.103069  0  1.048851  0
H  H13  1  0.33169491  0.88313076  0.10211939  1  0  0.098934  0  0.978713  0  0  0.105555  0  1.047239  0  0  0.108907  0  1.045425  0  0  0.097341  0.103053  0  1.0488  0
H  H14  1  0.04821740  0.00477733  0.72599475  1  0  0.095314  0  0.961711  0  0  0.110499  0  1.028209  0  0  0.111489  0  1.028156  0  0  0.099436  0.10982  0  1.028249  0
H  H15  1  0.95177395  0.99522645  0.27400624  1  0  0.095248  0  0.961726  0  0  0.110476  0  1.028216  0  0  0.111444  0  1.028181  0  0  0.099414  0.109812  0  1.028247  0
H  H16  1  0.03531671  0.14548073  0.79014893  1  0  0.116872  0  0.958871  0  0  0.130495  0  1.021477  0  0  0.132075  0  1.02112  0  0  0.107447  0.129311  0  1.021905  0
H  H17  1  0.96468053  0.85452310  0.20984944  1  0  0.116821  0  0.958872  0  0  0.13043  0  1.021549  0  0  0.132012  0  1.021182  0  0  0.107412  0.129244  0  1.021984  0
H  H18  1  0.80575045  0.55929229  0.96855293  1  0  0.114076  0  0.935226  0  0  0.127571  0  0.986933  0  0  0.130762  0  0.985392  0  0  0.107501  0.125044  0  0.988485  0
H  H19  1  0.19425133  0.44072439  0.03144556  1  0  0.114025  0  0.935346  0  0  0.127542  0  0.987027  0  0  0.130709  0  0.985518  0  0  0.107482  0.125014  0  0.988574  0
H  H20  1  0.57280640  0.75248195  0.00622364  1  0  0.087677  0  0.989571  0  0  0.098251  0  1.052995  0  0  0.100316  0  1.052981  0  0  0.094295  0.09677  0  1.053121  0
H  H21  1  0.42719271  0.24753174  0.99377580  1  0  0.08769  0  0.989614  0  0  0.098252  0  1.053028  0  0  0.10032  0  1.053009  0  0  0.094288  0.096774  0  1.053153  0
H  H22  1  0.33686596  0.77450446  0.93892883  1  0  0.073769  0  0.996456  0  0  0.083937  0  1.064882  0  0  0.085666  0  1.0653  0  0  0.089838  0.082753  0  1.064498  0
H  H23  1  0.66312661  0.22550326  0.06107266  1  0  0.07375  0  0.996436  0  0  0.08391  0  1.064896  0  0  0.085643  0  1.065309  0  0  0.089818  0.082726  0  1.06451  0
H  H24  1  0.31821810  0.60059913  0.83245879  1  0  0.116191  0  0.977474  0  0  0.126269  0  1.03957  0  0  0.130111  0  1.0364  0  0  0.10052  0.123512  0  1.041881  0
H  H25  1  0.68178362  0.39940968  0.16753969  1  0  0.116163  0  0.977434  0  0  0.126226  0  1.039567  0  0  0.13006  0  1.036406  0  0  0.100504  0.123465  0  1.041894  0
H  H26  1  0.07229694  0.56798317  0.41694066  1  0  0.096853  0  0.95424  0  0  0.104583  0  1.020441  0  0  0.107651  0  1.018954  0  0  0.100215  0.10231  0  1.021604  0
H  H27  1  0.92770026  0.43201671  0.58305514  1  0  0.096869  0  0.954278  0  0  0.104616  0  1.020469  0  0  0.107688  0  1.018971  0  0  0.100205  0.102341  0  1.021638  0
H  H28  1  0.33285106  0.42373229  0.43441486  1  0  0.087782  0  0.965651  0  0  0.101386  0  1.02493  0  0  0.103665  0  1.024592  0  0  0.096983  0.099838  0  1.025038  0
H  H29  1  0.66714383  0.57627151  0.56558443  1  0  0.087765  0  0.965675  0  0  0.101368  0  1.024954  0  0  0.103647  0  1.024616  0  0  0.096973  0.099817  0  1.02506  0
H  H30  1  0.05360798  0.30424033  0.20908063  1  0  0.097091  0  0.961292  0  0  0.104806  0  1.026541  0  0  0.107529  0  1.025501  0  0  0.100644  0.102792  0  1.027478  0
H  H31  1  0.94638859  0.69575368  0.79091907  1  0  0.097083  0  0.961346  0  0  0.104811  0  1.026583  0  0  0.107534  0  1.025542  0  0  0.100637  0.102796  0  1.027518  0
H  H32  1  0.31959053  0.16622765  0.22108701  1  0  0.090834  0  0.976672  0  0  0.096248  0  1.047688  0  0  0.09891  0  1.047829  0  0  0.093067  0.094236  0  1.048066  0
H  H33  1  0.68040988  0.83376545  0.77891544  1  0  0.090848  0  0.976596  0  0  0.096244  0  1.047626  0  0  0.098905  0  1.047765  0  0  0.093058  0.094226  0  1.048023  0
H  H34  1  0.53322539  0.21906435  0.39935399  1  0  0.093935  0  0.981494  0  0  0.104059  0  1.053255  0  0  0.104034  0  1.056128  0  0  0.096444  0.103935  0  1.051426  0
H  H35  1  0.46676975  0.78093458  0.60064845  1  0  0.093905  0  0.981514  0  0  0.10404  0  1.053273  0  0  0.104014  0  1.056154  0  0  0.096408  0.103917  0  1.051445  0
H  H36  1  0.60309170  0.26895060  0.29373620  1  0  0.124518  0  0.912724  0  0  0.144846  0  0.965576  0  0  0.14603  0  0.965247  0  0  0.112915  0.14402  0  0.96583  0
H  H37  1  0.39690785  0.73104544  0.70626571  1  0  0.124525  0  0.912632  0  0  0.144803  0  0.965562  0  0  0.146006  0  0.965214  0  0  0.112875  0.143981  0  0.965813  0
H  H38  1  0.08373629  0.01603448  0.57933355  1  0  0.10924  0  0.95982  0  0  0.11899  0  1.020935  0  0  0.122453  0  1.018786  0  0  0.101648  0.116546  0  1.022449  0
H  H39  1  0.91627942  0.98395101  0.42067344  1  0  0.109265  0  0.959975  0  0  0.119016  0  1.021061  0  0  0.12248  0  1.018911  0  0  0.101674  0.116571  0  1.022574  0
H  H40  1  0.04261920  0.79626028  0.63075874  1  0  0.086268  0  0.982384  0  0  0.096256  0  1.045817  0  0  0.098488  0  1.046227  0  0  0.0934  0.094677  0  1.045647  0
H  H41  1  0.95740884  0.20371948  0.36924612  1  0  0.086328  0  0.982494  0  0  0.096314  0  1.045916  0  0  0.098542  0  1.046336  0  0  0.093441  0.094735  0  1.045749  0
H  H42  1  0.22263783  0.59284582  0.55875688  1  0  0.090432  0  0.966123  0  0  0.102104  0  1.025618  0  0  0.104129  0  1.025606  0  0  0.099228  0.100579  0  1.025855  0
H  H43  1  0.77738640  0.40713874  0.44124140  1  0  0.090461  0  0.965873  0  0  0.102033  0  1.025533  0  0  0.104064  0  1.025507  0  0  0.099211  0.100503  0  1.025769  0
H  H44  1  0.45157760  0.59708094  0.42966297  1  0  0.104324  0  0.949119  0  0  0.116206  0  1.009614  0  0  0.119238  0  1.007731  0  0  0.104519  0.114148  0  1.010751  0
H  H45  1  0.54843280  0.40291025  0.57032867  1  0  0.104439  0  0.949171  0  0  0.116327  0  1.009636  0  0  0.119358  0  1.007754  0  0  0.104614  0.114275  0  1.010768  0
C  C46  1  0.79400807  0.79776622  0.09321310  1  0  0.632308  0  3.932284  0  0  0.584406  0  4.221621  0  0  0.618712  0  4.215196  0  0  0.197036  0.56131  0  4.224942  0
C  C47  1  0.20599118  0.20223076  0.90678437  1  0  0.63207  0  3.932456  0  0  0.584175  0  4.221785  0  0  0.618483  0  4.215363  0  0  0.197007  0.561074  0  4.225109  0
C  C48  1  0.83637583  0.86841097  0.01183812  1  0  -0.074661  0  3.777714  0  0  -0.052093  0  4.010174  0  0  -0.061515  0  4.034778  0  0  -0.022091  -0.046125  0  3.993721  0
C  C49  1  0.16362109  0.13158992  0.98816027  1  0  -0.074683  0  3.777653  0  0  -0.05212  0  4.010112  0  0  -0.061542  0  4.034716  0  0  -0.022155  -0.046127  0  3.993628  0
C  C50  1  0.98938640  0.83019766  0.95516570  1  0  -0.056425  0  3.736199  0  0  -0.081072  0  3.98492  0  0  -0.079671  0  4.004997  0  0  -0.080394  -0.08169  0  3.971375  0
C  C51  1  0.01060934  0.16980319  0.04483156  1  0  -0.056425  0  3.736021  0  0  -0.081069  0  3.984753  0  0  -0.079666  0  4.004828  0  0  -0.080411  -0.081693  0  3.971202  0
C  C52  1  0.02775945  0.89674270  0.87957628  1  0  -0.124341  0  3.735112  0  0  -0.140145  0  3.981218  0  0  -0.145113  0  4.003589  0  0  -0.091742  -0.137081  0  3.966161  0
C  C53  1  0.97223364  0.10325911  0.12042194  1  0  -0.124485  0  3.735048  0  0  -0.140308  0  3.981173  0  0  -0.145276  0  4.003541  0  0  -0.091805  -0.13725  0  3.966125  0
C  C54  1  0.72232113  0.97270582  0.99063201  1  0  -0.05891  0  3.735695  0  0  -0.081071  0  3.98178  0  0  -0.07949  0  4.000944  0  0  -0.081907  -0.081928  0  3.968778  0
C  C55  1  0.27767727  0.02729411  0.00936813  1  0  -0.058956  0  3.735728  0  0  -0.081117  0  3.981814  0  0  -0.079534  0  4.000976  0  0  -0.0819  -0.081979  0  3.96881  0
C  C56  1  0.76010782  0.03810732  0.91436621  1  0  -0.134276  0  3.737184  0  0  -0.151674  0  3.983743  0  0  -0.156273  0  4.004844  0  0  -0.096374  -0.148425  0  3.969496  0
C  C57  1  0.23988797  0.96189750  0.08563489  1  0  -0.134218  0  3.737144  0  0  -0.151591  0  3.983691  0  0  -0.156186  0  4.00479  0  0  -0.09634  -0.148346  0  3.96946  0
C  C58  1  0.91419139  0.00200743  0.85846170  1  0  0.113626  0  3.740537  0  0  0.132005  0  3.97589  0  0  0.133464  0  4.000682  0  0  -0.010261  0.13121  0  3.959186  0
C  C59  1  0.08580231  0.99799636  0.14153773  1  0  0.113614  0  3.740499  0  0  0.132008  0  3.975869  0  0  0.133466  0  4.000654  0  0  -0.010258  0.131207  0  3.959182  0
C  C60  1  0.96547363  0.07378551  0.77762766  1  0  -0.197476  0  3.675918  0  0  -0.235541  0  3.925625  0  0  -0.235157  0  3.935069  0  0  -0.143499  -0.23584  0  3.919318  0
C  C61  1  0.03451832  0.92622023  0.22237262  1  0  -0.197374  0  3.675868  0  0  -0.235492  0  3.925576  0  0  -0.235095  0  3.935046  0  0  -0.143458  -0.235791  0  3.919222  0
C  C62  1  0.72379711  0.30019111  0.78828095  1  0  0.33722  0  3.780035  0  0  0.304662  0  4.080799  0  0  0.325215  0  4.091397  0  0  0.224916  0.290924  0  4.073208  0
C  C63  1  0.27620285  0.69981964  0.21171774  1  0  0.337225  0  3.780196  0  0  0.304634  0  4.080958  0  0  0.325191  0  4.091558  0  0  0.224931  0.290893  0  4.073375  0
C  C64  1  0.69138452  0.47419347  0.87784052  1  0  0.164117  0  3.780442  0  0  0.157841  0  4.021295  0  0  0.161882  0  4.043656  0  0  0.095321  0.155424  0  4.005846  0
C  C65  1  0.30861159  0.52581430  0.12216055  1  0  0.164119  0  3.780273  0  0  0.157824  0  4.021158  0  0  0.161866  0  4.04351  0  0  0.09531  0.155401  0  4.00571  0
C  C66  1  0.70151407  0.56892125  0.93844421  1  0  -0.145242  0  3.740216  0  0  -0.162311  0  3.990179  0  0  -0.165258  0  4.010007  0  0  -0.09217  -0.160198  0  3.976861  0
C  C67  1  0.29847856  0.43109433  0.06155665  1  0  -0.1452  0  3.74018  0  0  -0.162293  0  3.990136  0  0  -0.16522  0  4.009965  0  0  -0.092135  -0.160185  0  3.976809  0
C  C68  1  0.57089204  0.67657060  0.95875957  1  0  -0.070797  0  3.774627  0  0  -0.089702  0  4.032505  0  0  -0.091599  0  4.05578  0  0  -0.103764  -0.088608  0  4.017007  0
C  C69  1  0.42909763  0.32344298  0.04124229  1  0  -0.070756  0  3.774581  0  0  -0.089635  0  4.032425  0  0  -0.091533  0  4.055692  0  0  -0.10375  -0.08854  0  4.016915  0
C  C70  1  0.43580396  0.68858020  0.92032999  1  0  -0.086127  0  3.806715  0  0  -0.104361  0  4.067333  0  0  -0.106655  0  4.090379  0  0  -0.108823  -0.102529  0  4.051621  0
C  C71  1  0.56418685  0.31142947  0.07967236  1  0  -0.086106  0  3.806677  0  0  -0.104344  0  4.067277  0  0  -0.106639  0  4.090326  0  0  -0.108817  -0.102506  0  4.051555  0
C  C72  1  0.42448439  0.59312796  0.86073737  1  0  -0.162828  0  3.753731  0  0  -0.181175  0  4.002751  0  0  -0.184268  0  4.022581  0  0  -0.103228  -0.179244  0  3.989439  0
C  C73  1  0.57550911  0.40688470  0.13926595  1  0  -0.162883  0  3.75364  0  0  -0.18122  0  4.002674  0  0  -0.184306  0  4.02251  0  0  -0.103319  -0.179287  0  3.989369  0
C  C74  1  0.55504631  0.48484709  0.83953517  1  0  0.155927  0  3.825245  0  0  0.157476  0  4.063939  0  0  0.160894  0  4.088736  0  0  0.082781  0.155232  0  4.04706  0
C  C75  1  0.44494893  0.51516362  0.16046601  1  0  0.155998  0  3.824965  0  0  0.157505  0  4.063704  0  0  0.160923  0  4.088501  0  0  0.082868  0.155266  0  4.046829  0
C  C76  1  0.89498991  0.53400668  0.29917078  1  0  0.62262  0  3.953219  0  0  0.575585  0  4.243162  0  0  0.610016  0  4.237416  0  0  0.182374  0.552261  0  4.246257  0
C  C77  1  0.10501081  0.46598934  0.70082715  1  0  0.622563  0  3.953217  0  0  0.575554  0  4.243161  0  0  0.609984  0  4.237415  0  0  0.182387  0.552231  0  4.246254  0
C  C78  1  0.04714477  0.44491783  0.31193517  1  0  -0.059232  0  3.746612  0  0  -0.03794  0  3.979657  0  0  -0.046324  0  4.002012  0  0  -0.018421  -0.032598  0  3.96469  0
C  C79  1  0.95284888  0.55507811  0.68806553  1  0  -0.059193  0  3.7466  0  0  -0.037964  0  3.979737  0  0  -0.046348  0  4.002091  0  0  -0.018419  -0.032623  0  3.96477  0
C  C80  1  0.12576494  0.47838850  0.37564732  1  0  -0.053894  0  3.734897  0  0  -0.0783  0  3.9854  0  0  -0.077587  0  4.006113  0  0  -0.082821  -0.078498  0  3.97114  0
C  C81  1  0.87423521  0.52160948  0.62435197  1  0  -0.053948  0  3.734969  0  0  -0.078371  0  3.985496  0  0  -0.077657  0  4.006206  0  0  -0.082824  -0.078576  0  3.971248  0
C  C82  1  0.27173481  0.39862142  0.38445507  1  0  -0.132162  0  3.747877  0  0  -0.150496  0  3.995019  0  0  -0.15491  0  4.016759  0  0  -0.098683  -0.147469  0  3.979772  0
C  C83  1  0.72826298  0.60137654  0.61554449  1  0  -0.132141  0  3.747831  0  0  -0.15043  0  3.994988  0  0  -0.154841  0  4.016727  0  0  -0.098685  -0.147402  0  3.979745  0
C  C84  1  0.11575392  0.33026501  0.25816035  1  0  -0.058853  0  3.734743  0  0  -0.07896  0  3.979959  0  0  -0.077497  0  3.998981  0  0  -0.082267  -0.079738  0  3.9674  0
C  C85  1  0.88424297  0.66973196  0.74184060  1  0  -0.058809  0  3.734909  0  0  -0.078901  0  3.980109  0  0  -0.07744  0  3.999131  0  0  -0.082249  -0.079679  0  3.967549  0
C  C86  1  0.26445641  0.25282470  0.26525107  1  0  -0.132658  0  3.761339  0  0  -0.152888  0  4.011731  0  0  -0.157814  0  4.034542  0  0  -0.098135  -0.150025  0  3.997292  0
C  C87  1  0.73554285  0.74717231  0.73475152  1  0  -0.132684  0  3.761348  0  0  -0.152865  0  4.011777  0  0  -0.157788  0  4.034587  0  0  -0.098137  -0.150009  0  3.997342  0
C  C88  1  0.34510233  0.28775350  0.32751929  1  0  0.083129  0  3.786408  0  0  0.101887  0  4.026885  0  0  0.103203  0  4.050921  0  0  -0.021871  0.101079  0  4.01044  0
C  C89  1  0.65489840  0.71224254  0.67248120  1  0  0.083135  0  3.786247  0  0  0.101801  0  4.026855  0  0  0.103118  0  4.050896  0  0  -0.021872  0.100993  0  4.01041  0
C  C90  1  0.51463558  0.21780814  0.33204727  1  0  -0.203326  0  3.691072  0  0  -0.242495  0  3.943785  0  0  -0.242115  0  3.954006  0  0  -0.142597  -0.242597  0  3.936477  0
C  C91  1  0.48536018  0.78219275  0.66795446  1  0  -0.203248  0  3.690912  0  0  -0.242367  0  3.943624  0  0  -0.24201  0  3.953857  0  0  -0.142484  -0.242459  0  3.936308  0
C  C92  1  0.47506930  0.97032144  0.36310734  1  0  0.326431  0  3.815217  0  0  0.288958  0  4.126288  0  0  0.309683  0  4.136077  0  0  0.223681  0.27517  0  4.119343  0
C  C93  1  0.52493143  0.02967461  0.63689444  1  0  0.326483  0  3.815178  0  0  0.289007  0  4.126293  0  0  0.309723  0  4.136075  0  0  0.223705  0.275217  0  4.119348  0
C  C94  1  0.29269231  0.92606790  0.47704355  1  0  0.157812  0  3.796139  0  0  0.148122  0  4.0471  0  0  0.152082  0  4.068186  0  0  0.08788  0.145396  0  4.032921  0
C  C95  1  0.70731340  0.07392330  0.52295697  1  0  0.157812  0  3.796418  0  0  0.148148  0  4.04735  0  0  0.152097  0  4.068434  0  0  0.08786  0.145423  0  4.033176  0
C  C96  1  0.16393234  0.92531011  0.54799387  1  0  -0.16817  0  3.774457  0  0  -0.186444  0  4.029904  0  0  -0.188773  0  4.048377  0  0  -0.101465  -0.184882  0  4.017452  0
C  C97  1  0.83607892  0.07467431  0.45200981  1  0  -0.168325  0  3.774622  0  0  -0.186584  0  4.030057  0  0  -0.188911  0  4.048526  0  0  -0.101539  -0.185024  0  4.017613  0
C  C98  1  0.14143018  0.80267522  0.57551505  1  0  -0.072712  0  3.772854  0  0  -0.090039  0  4.029159  0  0  -0.091728  0  4.05052  0  0  -0.101921  -0.088919  0  4.014833  0
C  C99  1  0.85858730  0.19731224  0.42448789  1  0  -0.072745  0  3.773046  0  0  -0.090075  0  4.029344  0  0  -0.091763  0  4.050706  0  0  -0.101937  -0.088958  0  4.015026  0
C  C100  1  0.24433336  0.68583654  0.53403450  1  0  -0.07479  0  3.784984  0  0  -0.091245  0  4.040983  0  0  -0.092838  0  4.06287  0  0  -0.098555  -0.090169  0  4.026337  0
C  C101  1  0.75568940  0.31414898  0.46596269  1  0  -0.074653  0  3.784857  0  0  -0.091053  0  4.0409  0  0  -0.092644  0  4.062791  0  0  -0.098548  -0.089973  0  4.026245  0
C  C102  1  0.37260329  0.68704194  0.46290333  1  0  -0.153144  0  3.757342  0  0  -0.174103  0  4.012177  0  0  -0.176696  0  4.03112  0  0  -0.098041  -0.172369  0  3.999171  0
C  C103  1  0.62740891  0.31295127  0.53709194  1  0  -0.153444  0  3.757551  0  0  -0.174387  0  4.012344  0  0  -0.176989  0  4.031303  0  0  -0.098194  -0.172652  0  3.999345  0
C  C104  1  0.39532742  0.80903430  0.43407167  1  0  0.14237  0  3.86557  0  0  0.141327  0  4.112269  0  0  0.145558  0  4.135212  0  0  0.07929  0.138435  0  4.096755  0
C  C105  1  0.60467830  0.19096080  0.56592502  1  0  0.142504  0  3.865513  0  0  0.141473  0  4.112169  0  0  0.145704  0  4.135112  0  0  0.079383  0.138566  0  4.096673  0
S  S106  1  0.80659866  0.15448847  0.72522089  1  0  0.025309  0  2.408906  0  0  0.022389  0  2.751801  0  0  0.018056  0  2.75109  0  0  0.04607  0.026006  0  2.752217  0
S  S107  1  0.19339863  0.84551931  0.27477940  1  0  0.025329  0  2.408853  0  0  0.02241  0  2.751795  0  0  0.018078  0  2.751076  0  0  0.046088  0.026031  0  2.752216  0
S  S108  1  0.58213942  0.05230801  0.28431631  1  0  0.06352  0  2.436399  0  0  0.059158  0  2.788468  0  0  0.055571  0  2.785754  0  0  0.074375  0.061891  0  2.790079  0
S  S109  1  0.41785809  0.94769094  0.71568458  1  0  0.063458  0  2.436491  0  0  0.059112  0  2.78854  0  0  0.055526  0  2.785841  0  0  0.074371  0.06185  0  2.790145  0
N  N110  1  0.57794431  0.37367454  0.78454711  1  0  -0.509423  0  3.143312  0  0  -0.441749  0  3.423196  0  0  -0.466163  0  3.436895  0  0  -0.36384  -0.424955  0  3.413199  0
N  N111  1  0.42205420  0.62633720  0.21545432  1  0  -0.509381  0  3.143098  0  0  -0.441672  0  3.422976  0  0  -0.466081  0  3.436662  0  0  -0.363852  -0.424879  0  3.412985  0
N  N112  1  0.79585176  0.35689891  0.84341748  1  0  -0.376393  0  3.341157  0  0  -0.317193  0  3.57207  0  0  -0.335446  0  3.583054  0  0  -0.373329  -0.304878  0  3.564738  0
N  N113  1  0.20414674  0.64311282  0.15658267  1  0  -0.376356  0  3.341224  0  0  -0.317106  0  3.572054  0  0  -0.335358  0  3.583041  0  0  -0.373316  -0.304785  0  3.564718  0
N  N114  1  0.50676159  0.84001068  0.36374805  1  0  -0.493965  0  3.191733  0  0  -0.427572  0  3.470246  0  0  -0.450896  0  3.482352  0  0  -0.362969  -0.411755  0  3.461642  0
N  N115  1  0.49323798  0.15998927  0.63625131  1  0  -0.494048  0  3.19152  0  0  -0.427654  0  3.470042  0  0  -0.45098  0  3.482147  0  0  -0.362976  -0.411819  0  3.46143  0
N  N116  1  0.34802773  0.02629929  0.43083125  1  0  -0.372029  0  3.345268  0  0  -0.315376  0  3.577719  0  0  -0.331947  0  3.587894  0  0  -0.378163  -0.304333  0  3.570564  0
N  N117  1  0.65197476  0.97369483  0.56917159  1  0  -0.371856  0  3.345339  0  0  -0.315271  0  3.57784  0  0  -0.331807  0  3.587996  0  0  -0.37818  -0.304232  0  3.570689  0
O  O118  1  0.90073755  0.70971656  0.11626490  1  0  -0.648297  0  1.963768  0  0  -0.592186  0  2.189666  0  0  -0.617324  0  2.179272  0  0  -0.329409  -0.574524  0  2.196051  0
O  O119  1  0.09926259  0.29028142  0.88373246  1  0  -0.64818  0  1.96388  0  0  -0.592069  0  2.189769  0  0  -0.617204  0  2.179368  0  0  -0.32938  -0.574413  0  2.196157  0
O  O120  1  0.64640302  0.82934430  0.13731344  1  0  -0.651395  0  2.021655  0  0  -0.585085  0  2.27836  0  0  -0.615415  0  2.26927  0  0  -0.333496  -0.563968  0  2.283735  0
O  O121  1  0.35359920  0.17065470  0.86268624  1  0  -0.651311  0  2.02164  0  0  -0.585001  0  2.27833  0  0  -0.615333  0  2.269244  0  0  -0.333513  -0.563903  0  2.28371  0
O  O122  1  0.86438763  0.65351205  0.32587370  1  0  -0.639204  0  1.914264  0  0  -0.586569  0  2.144259  0  0  -0.61321  0  2.134876  0  0  -0.346252  -0.568024  0  2.149993  0
O  O123  1  0.13561780  0.34648401  0.67411982  1  0  -0.639185  0  1.914202  0  0  -0.58655  0  2.144173  0  0  -0.613192  0  2.134791  0  0  -0.346273  -0.568012  0  2.149906  0
O  O124  1  0.80176147  0.48683092  0.25953057  1  0  -0.654408  0  1.947459  0  0  -0.589997  0  2.187644  0  0  -0.619451  0  2.176746  0  0  -0.343115  -0.569346  0  2.194193  0
O  O125  1  0.19823572  0.51316508  0.74047098  1  0  -0.654417  0  1.947522  0  0  -0.590017  0  2.187709  0  0  -0.619467  0  2.176805  0  0  -0.343153  -0.569394  0  2.19427  0
