# generated using pymatgen
data_CdH9C5SNO5
_symmetry_space_group_name_H-M   'P 1'
_cell_length_a   7.70680443
_cell_length_b   7.96648219
_cell_length_c   16.80446850
_cell_angle_alpha   89.99838698
_cell_angle_beta   89.99965683
_cell_angle_gamma   89.99988713
_symmetry_Int_Tables_number   1
_chemical_formula_structural   CdH9C5SNO5
_chemical_formula_sum   'Cd4 H36 C20 S4 N4 O20'
_cell_volume   1031.72916846
_cell_formula_units_Z   4
loop_
 _symmetry_equiv_pos_site_id
 _symmetry_equiv_pos_as_xyz
  1  'x, y, z'
loop_
 _atom_site_type_symbol
 _atom_site_label
 _atom_site_symmetry_multiplicity
 _atom_site_fract_x
 _atom_site_fract_y
 _atom_site_fract_z
 _atom_site_occupancy
 _atom_site_hle17_bader_spin_density
 _atom_site_hle17_ddec_charge
 _atom_site_hle17_ddec_spin_density
 _atom_site_hle17_ddec_sum_bond_order
 _atom_site_hle17_magmom
 _atom_site_hse06_10hf_bader_spin_density
 _atom_site_hse06_10hf_ddec_charge
 _atom_site_hse06_10hf_ddec_spin_density
 _atom_site_hse06_10hf_ddec_sum_bond_order
 _atom_site_hse06_10hf_magmom
 _atom_site_hse06_bader_spin_density
 _atom_site_hse06_ddec_charge
 _atom_site_hse06_ddec_spin_density
 _atom_site_hse06_ddec_sum_bond_order
 _atom_site_hse06_magmom
 _atom_site_pbe_bader_spin_density
 _atom_site_pbe_cm5_charge
 _atom_site_pbe_ddec_charge
 _atom_site_pbe_ddec_spin_density
 _atom_site_pbe_ddec_sum_bond_order
 _atom_site_pbe_magmom
Cd  Cd0  1  0.97610082  0.76855833  0.31557816  1  0  1.069342  0  1.721553  0  0  0.896778  0  2.157041  0  0  0.951631  0  2.108011  0  0  0.714364  0.857783  0  2.190403  0
Cd  Cd1  1  0.52389122  0.23142823  0.81557667  1  0  1.06939  0  1.721489  0  0  0.896839  0  2.157  0  0  0.951683  0  2.107965  0  0  0.714371  0.857848  0  2.190365  0
Cd  Cd2  1  0.02389299  0.26857340  0.18442178  1  0  1.069399  0  1.721446  0  0  0.896858  0  2.15693  0  0  0.951709  0  2.107894  0  0  0.714379  0.857867  0  2.190297  0
Cd  Cd3  1  0.47610523  0.73144090  0.68442265  1  0  1.069305  0  1.721581  0  0  0.896738  0  2.157086  0  0  0.951584  0  2.10806  0  0  0.714361  0.857743  0  2.190447  0
H  H4  1  0.29239103  0.57632535  0.29853607  1  0  0.316415  0  0.880226  0  0  0.302738  0  0.943847  0  0  0.309841  0  0.938368  0  0  0.295582  0.297635  0  0.947836  0
H  H5  1  0.20761348  0.42366572  0.79853277  1  0  0.316404  0  0.880427  0  0  0.302714  0  0.944043  0  0  0.309811  0  0.938583  0  0  0.295589  0.297611  0  0.948025  0
H  H6  1  0.70762004  0.07633807  0.20146637  1  0  0.316405  0  0.880334  0  0  0.302659  0  0.944015  0  0  0.309769  0  0.938515  0  0  0.295577  0.297561  0  0.947993  0
H  H7  1  0.79239685  0.92367047  0.70146226  1  0  0.316381  0  0.880228  0  0  0.302747  0  0.94381  0  0  0.30985  0  0.938332  0  0  0.295578  0.297643  0  0.947802  0
H  H8  1  0.28923569  0.71923872  0.22885963  1  0  0.305688  0  0.868185  0  0  0.304613  0  0.908439  0  0  0.309941  0  0.905672  0  0  0.307322  0.300775  0  0.910516  0
H  H9  1  0.21075806  0.28076033  0.72885878  1  0  0.305717  0  0.868365  0  0  0.304713  0  0.908511  0  0  0.310042  0  0.905741  0  0  0.307372  0.300871  0  0.910597  0
H  H10  1  0.71076731  0.21924596  0.27114035  1  0  0.305761  0  0.86832  0  0  0.304758  0  0.908454  0  0  0.310086  0  0.905684  0  0  0.307375  0.300911  0  0.910552  0
H  H11  1  0.78924088  0.78076212  0.77114049  1  0  0.305672  0  0.868295  0  0  0.30461  0  0.90854  0  0  0.309938  0  0.905773  0  0  0.307334  0.300775  0  0.910605  0
H  H12  1  0.79005860  0.52542937  0.37315814  1  0  0.406019  0  0.906667  0  0  0.37449  0  0.972745  0  0  0.386032  0  0.956014  0  0  0.2744  0.366368  0  0.984486  0
H  H13  1  0.70994955  0.47456624  0.87315356  1  0  0.405948  0  0.906762  0  0  0.37441  0  0.972868  0  0  0.385956  0  0.956113  0  0  0.274366  0.366287  0  0.984612  0
H  H14  1  0.20995387  0.02543754  0.12684616  1  0  0.405892  0  0.906837  0  0  0.374364  0  0.97293  0  0  0.385907  0  0.956197  0  0  0.274326  0.366243  0  0.984671  0
H  H15  1  0.29005548  0.97457147  0.62684377  1  0  0.405979  0  0.906729  0  0  0.37444  0  0.972824  0  0  0.385986  0  0.956065  0  0  0.274361  0.366318  0  0.984566  0
H  H16  1  0.98193846  0.44403312  0.37461635  1  0  0.409682  0  0.903216  0  0  0.379254  0  0.966882  0  0  0.389619  0  0.951984  0  0  0.27701  0.371964  0  0.977341  0
H  H17  1  0.51806059  0.55594483  0.87461362  1  0  0.409741  0  0.903131  0  0  0.379311  0  0.966794  0  0  0.38967  0  0.951903  0  0  0.27707  0.372022  0  0.977251  0
H  H18  1  0.01806797  0.94405779  0.12538189  1  0  0.409708  0  0.903136  0  0  0.379253  0  0.966848  0  0  0.389619  0  0.951945  0  0  0.277012  0.371964  0  0.977306  0
H  H19  1  0.48193621  0.05596387  0.62538501  1  0  0.409629  0  0.903301  0  0  0.379183  0  0.966994  0  0  0.38954  0  0.952106  0  0  0.276969  0.371893  0  0.977453  0
H  H20  1  0.05848923  0.16897247  0.46919664  1  0  0.135557  0  0.904113  0  0  0.153397  0  0.953411  0  0  0.156084  0  0.951538  0  0  0.115909  0.151419  0  0.954907  0
H  H21  1  0.44151306  0.83100447  0.96919927  1  0  0.135569  0  0.904053  0  0  0.153292  0  0.953505  0  0  0.155965  0  0.951649  0  0  0.115845  0.151322  0  0.954997  0
H  H22  1  0.94151127  0.66899859  0.03079508  1  0  0.135593  0  0.903995  0  0  0.153299  0  0.953456  0  0  0.155985  0  0.951586  0  0  0.115871  0.151323  0  0.954954  0
H  H23  1  0.55850655  0.33102282  0.53079875  1  0  0.135531  0  0.904004  0  0  0.153345  0  0.953363  0  0  0.156017  0  0.951508  0  0  0.115895  0.151367  0  0.954862  0
H  H24  1  0.28014159  0.14729589  0.44600621  1  0  0.139051  0  0.908998  0  0  0.154216  0  0.963005  0  0  0.157256  0  0.960837  0  0  0.114846  0.15198  0  0.964744  0
H  H25  1  0.21985711  0.85267744  0.94601334  1  0  0.138993  0  0.909009  0  0  0.154122  0  0.96306  0  0  0.157162  0  0.960892  0  0  0.114838  0.151886  0  0.964796  0
H  H26  1  0.71985507  0.64731977  0.05398876  1  0  0.139008  0  0.908999  0  0  0.154139  0  0.963033  0  0  0.157179  0  0.960866  0  0  0.114832  0.151903  0  0.964769  0
H  H27  1  0.78015206  0.35270274  0.55399987  1  0  0.139009  0  0.908955  0  0  0.154196  0  0.962956  0  0  0.157236  0  0.960786  0  0  0.114854  0.151956  0  0.964698  0
H  H28  1  0.43885636  0.87733028  0.45753031  1  0  0.116132  0  0.941326  0  0  0.128234  0  1.00567  0  0  0.130064  0  1.00459  0  0  0.101666  0.126855  0  1.006537  0
H  H29  1  0.06112921  0.12264235  0.95752955  1  0  0.116126  0  0.941189  0  0  0.128204  0  1.005602  0  0  0.130039  0  1.004519  0  0  0.101643  0.12682  0  1.006474  0
H  H30  1  0.56113075  0.37735796  0.04246999  1  0  0.116104  0  0.941209  0  0  0.128175  0  1.005632  0  0  0.130008  0  1.004552  0  0  0.101636  0.126791  0  1.006503  0
H  H31  1  0.93886875  0.62267028  0.54246762  1  0  0.116128  0  0.941349  0  0  0.128273  0  1.005653  0  0  0.130104  0  1.004573  0  0  0.101694  0.126892  0  1.006521  0
H  H32  1  0.34428048  0.67682692  0.44566704  1  0  0.107347  0  0.92371  0  0  0.124359  0  0.979573  0  0  0.125768  0  0.979104  0  0  0.103567  0.123292  0  0.98001  0
H  H33  1  0.15572082  0.32314642  0.94566698  1  0  0.107385  0  0.923749  0  0  0.124375  0  0.979663  0  0  0.125765  0  0.979246  0  0  0.103608  0.123304  0  0.980104  0
H  H34  1  0.65571482  0.17685495  0.05433171  1  0  0.107366  0  0.923786  0  0  0.124362  0  0.97969  0  0  0.125752  0  0.979274  0  0  0.103605  0.123292  0  0.98013  0
H  H35  1  0.84428582  0.82317507  0.55433590  1  0  0.107386  0  0.923663  0  0  0.124437  0  0.979488  0  0  0.125847  0  0.979019  0  0  0.103588  0.123368  0  0.979928  0
H  H36  1  0.38940357  0.93222480  0.30926886  1  0  0.081642  0  0.919785  0  0  0.091892  0  0.978733  0  0  0.093532  0  0.97833  0  0  0.111991  0.090649  0  0.979163  0
H  H37  1  0.11057615  0.06776938  0.80926689  1  0  0.081553  0  0.919777  0  0  0.091807  0  0.978715  0  0  0.093434  0  0.978326  0  0  0.111971  0.090596  0  0.979107  0
H  H38  1  0.61057823  0.43223585  0.19073073  1  0  0.081551  0  0.919713  0  0  0.091826  0  0.978695  0  0  0.093455  0  0.978305  0  0  0.111982  0.090603  0  0.979099  0
H  H39  1  0.88940506  0.56776832  0.69073040  1  0  0.08163  0  0.919791  0  0  0.091895  0  0.978714  0  0  0.093523  0  0.978325  0  0  0.11198  0.090662  0  0.979131  0
C  C40  1  0.10942427  0.16015173  0.34428342  1  0  0.69764  0  3.869531  0  0  0.646486  0  4.168509  0  0  0.680057  0  4.163438  0  0  0.202877  0.623735  0  4.17111  0
C  C41  1  0.39056019  0.83984283  0.84428906  1  0  0.697581  0  3.869679  0  0  0.646474  0  4.168593  0  0  0.680046  0  4.163524  0  0  0.202911  0.623715  0  4.171196  0
C  C42  1  0.89056198  0.66015657  0.15571138  1  0  0.69779  0  3.869432  0  0  0.646669  0  4.168331  0  0  0.680243  0  4.163259  0  0  0.202989  0.623913  0  4.170937  0
C  C43  1  0.60942436  0.33985601  0.65571896  1  0  0.697252  0  3.869892  0  0  0.646163  0  4.168773  0  0  0.679735  0  4.163697  0  0  0.20269  0.62341  0  4.17137  0
C  C44  1  0.14966872  0.10419720  0.42920995  1  0  -0.307771  0  3.649068  0  0  -0.345072  0  3.916121  0  0  -0.348891  0  3.920272  0  0  -0.147616  -0.342522  0  3.913256  0
C  C45  1  0.35032889  0.89577840  0.92921556  1  0  -0.307605  0  3.649105  0  0  -0.344774  0  3.916103  0  0  -0.34859  0  3.920267  0  0  -0.147523  -0.342245  0  3.913274  0
C  C46  1  0.85033061  0.60421354  0.07078499  1  0  -0.30777  0  3.649246  0  0  -0.344905  0  3.916215  0  0  -0.348732  0  3.920378  0  0  -0.147553  -0.342363  0  3.913363  0
C  C47  1  0.64967241  0.39580670  0.57079292  1  0  -0.307562  0  3.648926  0  0  -0.344894  0  3.915981  0  0  -0.348701  0  3.92014  0  0  -0.147597  -0.342348  0  3.913116  0
C  C48  1  0.34333328  0.80617329  0.42282168  1  0  -0.199691  0  3.64204  0  0  -0.24067  0  3.906122  0  0  -0.241591  0  3.919082  0  0  -0.148858  -0.239907  0  3.897214  0
C  C49  1  0.15666442  0.19380144  0.92282092  1  0  -0.199623  0  3.641883  0  0  -0.240677  0  3.906105  0  0  -0.241611  0  3.91906  0  0  -0.14885  -0.239911  0  3.897204  0
C  C50  1  0.65666305  0.30619742  0.07717776  1  0  -0.1996  0  3.641889  0  0  -0.24062  0  3.90618  0  0  -0.241553  0  3.919138  0  0  -0.148841  -0.239858  0  3.897281  0
C  C51  1  0.84334378  0.69382494  0.57717948  1  0  -0.199742  0  3.642151  0  0  -0.240813  0  3.906251  0  0  -0.241735  0  3.919207  0  0  -0.148892  -0.240047  0  3.897345  0
C  C52  1  0.39096061  0.80487047  0.33416425  1  0  0.068385  0  3.634062  0  0  0.048827  0  3.880472  0  0  0.048318  0  3.89409  0  0  -0.007477  0.049018  0  3.871353  0
C  C53  1  0.10903566  0.19512094  0.83416242  1  0  0.06852  0  3.633996  0  0  0.049072  0  3.880281  0  0  0.048577  0  3.893898  0  0  -0.007474  0.049257  0  3.871131  0
C  C54  1  0.60903573  0.30488052  0.16583640  1  0  0.068635  0  3.633747  0  0  0.049018  0  3.880305  0  0  0.048517  0  3.893927  0  0  -0.007458  0.049225  0  3.871129  0
C  C55  1  0.89096735  0.69512391  0.66583618  1  0  0.068216  0  3.63404  0  0  0.048731  0  3.880473  0  0  0.04823  0  3.894092  0  0  -0.007544  0.048904  0  3.871372  0
C  C56  1  0.57920084  0.73786968  0.33068976  1  0  0.638355  0  3.870025  0  0  0.59099  0  4.176508  0  0  0.623959  0  4.170623  0  0  0.199807  0.568601  0  4.179707  0
C  C57  1  0.92079489  0.26213354  0.83068500  1  0  0.638411  0  3.870029  0  0  0.590997  0  4.176523  0  0  0.623958  0  4.170639  0  0  0.199837  0.568605  0  4.179733  0
C  C58  1  0.42079823  0.23786608  0.16931474  1  0  0.638489  0  3.869818  0  0  0.59109  0  4.176396  0  0  0.624061  0  4.1705  0  0  0.199878  0.568698  0  4.179612  0
C  C59  1  0.07920798  0.76211902  0.66931272  1  0  0.638654  0  3.86986  0  0  0.591127  0  4.176572  0  0  0.624087  0  4.170691  0  0  0.199848  0.568737  0  4.179774  0
S  S60  1  0.13141250  0.88358950  0.45074321  1  0  0.062136  0  2.50267  0  0  0.083524  0  2.865009  0  0  0.077818  0  2.861597  0  0  0.021598  0.087516  0  2.867258  0
S  S61  1  0.36858743  0.11638730  0.95074466  1  0  0.062056  0  2.502644  0  0  0.083492  0  2.864905  0  0  0.077805  0  2.861485  0  0  0.021603  0.087483  0  2.867159  0
S  S62  1  0.86858757  0.38361116  0.04925344  1  0  0.06209  0  2.502702  0  0  0.083524  0  2.864937  0  0  0.077834  0  2.861527  0  0  0.021608  0.087514  0  2.867187  0
S  S63  1  0.63142222  0.61641541  0.54925437  1  0  0.06211  0  2.502582  0  0  0.083514  0  2.864947  0  0  0.077811  0  2.861524  0  0  0.021631  0.087504  0  2.867195  0
N  N64  1  0.26875991  0.70149761  0.28833979  1  0  -0.639165  0  3.076908  0  0  -0.593234  0  3.320563  0  0  -0.613437  0  3.320096  0  0  -0.616421  -0.578966  0  3.320548  0
N  N65  1  0.23123047  0.29849281  0.78833567  1  0  -0.639219  0  3.077366  0  0  -0.593372  0  3.32102  0  0  -0.613571  0  3.320537  0  0  -0.616488  -0.579109  0  3.321018  0
N  N66  1  0.73123405  0.20151093  0.21166281  1  0  -0.639335  0  3.07724  0  0  -0.593371  0  3.320995  0  0  -0.613567  0  3.320523  0  0  -0.616476  -0.579111  0  3.320994  0
N  N67  1  0.76876324  0.79849825  0.71166099  1  0  -0.639024  0  3.076999  0  0  -0.593177  0  3.320636  0  0  -0.613378  0  3.320163  0  0  -0.616395  -0.578906  0  3.320623  0
O  O68  1  0.90652434  0.53046833  0.39957413  1  0  -0.846919  0  1.865504  0  0  -0.790182  0  2.044979  0  0  -0.813874  0  2.014002  0  0  -0.599552  -0.773429  0  2.066303  0
O  O69  1  0.59347439  0.46951188  0.89956756  1  0  -0.846937  0  1.865545  0  0  -0.790186  0  2.04499  0  0  -0.813864  0  2.014046  0  0  -0.59958  -0.773431  0  2.06631  0
O  O70  1  0.09348294  0.03049338  0.10043010  1  0  -0.846848  0  1.865539  0  0  -0.790088  0  2.044979  0  0  -0.813788  0  2.014019  0  0  -0.599496  -0.773332  0  2.066296  0
O  O71  1  0.40652546  0.96952853  0.60042805  1  0  -0.846841  0  1.865603  0  0  -0.790063  0  2.045069  0  0  -0.813743  0  2.014144  0  0  -0.599489  -0.77331  0  2.066392  0
O  O72  1  0.06064315  0.05562543  0.29179099  1  0  -0.644469  0  2.083938  0  0  -0.569678  0  2.339378  0  0  -0.600843  0  2.330319  0  0  -0.318218  -0.547974  0  2.344818  0
O  O73  1  0.43936405  0.94436855  0.79179453  1  0  -0.644473  0  2.084021  0  0  -0.569688  0  2.339418  0  0  -0.600841  0  2.330352  0  0  -0.318226  -0.547984  0  2.344863  0
O  O74  1  0.93936278  0.55563577  0.20820339  1  0  -0.644504  0  2.083989  0  0  -0.569727  0  2.339409  0  0  -0.600882  0  2.33034  0  0  -0.31824  -0.548027  0  2.344856  0
O  O75  1  0.56064754  0.44438115  0.70821331  1  0  -0.644211  0  2.084219  0  0  -0.569416  0  2.339588  0  0  -0.600583  0  2.330533  0  0  -0.31804  -0.547711  0  2.345023  0
O  O76  1  0.12469123  0.31598380  0.32973447  1  0  -0.635596  0  1.96928  0  0  -0.571391  0  2.195357  0  0  -0.598079  0  2.184723  0  0  -0.322898  -0.552773  0  2.202089  0
O  O77  1  0.37528563  0.68400034  0.82973563  1  0  -0.63563  0  1.969129  0  0  -0.571421  0  2.195145  0  0  -0.598104  0  2.184506  0  0  -0.322924  -0.552805  0  2.201888  0
O  O78  1  0.87529859  0.81600410  0.17026247  1  0  -0.635757  0  1.968972  0  0  -0.571523  0  2.194991  0  0  -0.598218  0  2.18435  0  0  -0.322978  -0.552902  0  2.201724  0
O  O79  1  0.62468367  0.18401763  0.67026668  1  0  -0.635564  0  1.969265  0  0  -0.571365  0  2.195307  0  0  -0.598049  0  2.184672  0  0  -0.322897  -0.552746  0  2.202037  0
O  O80  1  0.69724832  0.85011090  0.33624929  1  0  -0.645738  0  1.977126  0  0  -0.585232  0  2.225168  0  0  -0.614751  0  2.21469  0  0  -0.346954  -0.564471  0  2.231522  0
O  O81  1  0.80274474  0.14988444  0.83625109  1  0  -0.645856  0  1.976954  0  0  -0.585334  0  2.225018  0  0  -0.614852  0  2.214542  0  0  -0.347031  -0.564577  0  2.231377  0
O  O82  1  0.30275052  0.35011666  0.16375731  1  0  -0.6459  0  1.977023  0  0  -0.585363  0  2.225084  0  0  -0.614881  0  2.214598  0  0  -0.347074  -0.564606  0  2.231447  0
O  O83  1  0.19725316  0.64987631  0.66375584  1  0  -0.64584  0  1.977064  0  0  -0.585292  0  2.225192  0  0  -0.614807  0  2.214717  0  0  -0.347029  -0.564532  0  2.231547  0
O  O84  1  0.60018768  0.58092348  0.32607770  1  0  -0.634054  0  1.928538  0  0  -0.58438  0  2.146411  0  0  -0.608494  0  2.13643  0  0  -0.332975  -0.567583  0  2.152828  0
O  O85  1  0.89981979  0.41907373  0.82607869  1  0  -0.634019  0  1.928737  0  0  -0.584334  0  2.146646  0  0  -0.608437  0  2.136662  0  0  -0.332912  -0.56754  0  2.15306  0
O  O86  1  0.39982079  0.08092215  0.17391933  1  0  -0.634053  0  1.928631  0  0  -0.584349  0  2.146517  0  0  -0.608458  0  2.136528  0  0  -0.332907  -0.567552  0  2.152934  0
O  O87  1  0.10019314  0.91906768  0.67392413  1  0  -0.634145  0  1.928571  0  0  -0.584419  0  2.146527  0  0  -0.608543  0  2.136573  0  0  -0.332934  -0.567622  0  2.152946  0
