# generated using pymatgen
data_Zn4H23C48Cl7O13
_symmetry_space_group_name_H-M   'P 1'
_cell_length_a   19.54667955
_cell_length_b   19.67904546
_cell_length_c   19.51902387
_cell_angle_alpha   95.58155803
_cell_angle_beta   95.77957977
_cell_angle_gamma   90.67014145
_symmetry_Int_Tables_number   1
_chemical_formula_structural   Zn4H23C48Cl7O13
_chemical_formula_sum   'Zn4 H23 C48 Cl7 O13'
_cell_volume   7432.85264587
_cell_formula_units_Z   1
loop_
 _symmetry_equiv_pos_site_id
 _symmetry_equiv_pos_as_xyz
  1  'x, y, z'
loop_
 _atom_site_type_symbol
 _atom_site_label
 _atom_site_symmetry_multiplicity
 _atom_site_fract_x
 _atom_site_fract_y
 _atom_site_fract_z
 _atom_site_occupancy
 _atom_site_pbe_bader_charge
 _atom_site_pbe_bader_spin_density
 _atom_site_pbe_cm5_charge
 _atom_site_pbe_ddec_charge
 _atom_site_pbe_ddec_spin_density
 _atom_site_pbe_ddec_sum_bond_order
 _atom_site_pbe_magmom
Zn  Zn0  1  0.44325983  0.56091194  0.44330250  1  1.312387  0  0.670656  0.966343  0  2.35745  0
Zn  Zn1  1  0.55163417  0.43738170  0.44388703  1  1.308956  0  0.670595  0.96093  0  2.37491  0
Zn  Zn2  1  0.44344100  0.44686688  0.55036756  1  1.311869  0  0.669847  0.956215  0  2.408702  0
Zn  Zn3  1  0.56383942  0.56182107  0.56767257  1  1.318274  0  0.676076  0.98214  0  2.331095  0
H  H4  1  0.40925069  0.76501511  0.47354763  1  0.124782  0  0.1104  0.116316  0  0.990372  0
H  H5  1  0.45545596  0.41100101  0.88405857  1  0.032768  0  0.104061  0.1058  0  0.998098  0
H  H6  1  0.38260568  0.23969118  0.52241620  1  0.09802  0  0.11006  0.117391  0  0.990883  0
H  H7  1  0.41173165  0.00142588  0.47437625  1  0.072244  0  0.103697  0.101802  0  0.998127  0
H  H8  1  0.62000950  0.90581442  0.54523199  1  0.07882  0  0.106493  0.121735  0  0.991643  0
H  H9  1  0.56866447  0.00317166  0.50925734  1  0.077305  0  0.096045  0.100647  0  1.020324  0
H  H10  1  0.75568698  0.38232626  0.49333244  1  0.115327  0  0.116328  0.137653  0  0.975364  0
H  H11  1  0.91087687  0.58605638  0.53659334  1  0.084082  0  0.111541  0.130077  0  0.982896  0
H  H12  1  0.99071556  0.52310061  0.44165568  1  0.108648  0  0.104484  0.124695  0  1.003186  0
H  H13  1  0.51017432  0.37644040  0.23266879  1  0.10932  0  0.11204  0.133147  0  0.986177  0
H  H14  1  0.47988672  0.41295064  0.99271447  1  0.077487  0  0.094414  0.095269  0  1.039471  0
H  H15  1  0.37383603  0.11281020  0.51651751  1  0.067481  0  0.106176  0.107036  0  0.987609  0
H  H16  1  0.45659304  0.57649582  0.10173008  1  0.06087  0  0.106264  0.106695  0  0.996582  0
H  H17  1  0.55622143  0.60718946  0.78325525  1  0.098707  0  0.109835  0.114874  0  0.989757  0
H  H18  1  0.51333703  0.56727885  0.00887035  1  0.042046  0  0.10185  0.097071  0  1.002958  0
H  H19  1  0.40521237  0.88961253  0.46683210  1  0.066838  0  0.10454  0.105853  0  0.99938  0
H  H20  1  0.23744721  0.40542899  0.52084313  1  0.117091  0  0.109968  0.117897  0  0.98804  0
H  H21  1  0.22535054  0.60204186  0.44235790  1  0.104958  0  0.111592  0.131175  0  0.986869  0
H  H22  1  0.11002360  0.39929810  0.51666704  1  0.083999  0  0.099089  0.107429  0  1.013498  0
H  H23  1  0.57463652  0.22352840  0.43336952  1  0.118837  0  0.112121  0.132457  0  0.988808  0
H  H24  1  0.45956342  0.40797762  0.75742935  1  0.114958  0  0.108251  0.113561  0  0.992212  0
H  H25  1  0.45561620  0.58715623  0.22967043  1  0.117665  0  0.110192  0.11747  0  0.989931  0
H  H26  1  0.55029585  0.61226257  0.91075432  1  0.055808  0  0.103523  0.102867  0  0.994422  0
C  C27  1  0.68447446  0.49532665  0.50954443  1  1.562061  0  0.229734  0.622584  0  4.159179  0
C  C28  1  0.51698552  0.98060863  0.49856619  1  -0.047285  0  -0.088555  -0.12408  0  3.991684  0
C  C29  1  0.46454679  0.02185538  0.48120514  1  -0.038844  0  -0.089575  -0.121019  0  3.988022  0
C  C30  1  0.31585556  0.50768765  0.48817317  1  1.50512  0  0.228285  0.607671  0  4.168611  0
C  C31  1  0.48029130  0.23948799  0.48033245  1  -0.00091  0  -0.017738  -0.026976  0  3.990323  0
C  C32  1  0.23920713  0.50444915  0.48307639  1  -0.010634  0  -0.01558  -0.021237  0  3.986596  0
C  C33  1  0.20634942  0.44728736  0.50375130  1  0.008933  0  -0.083481  -0.092256  0  3.984993  0
C  C34  1  0.13533654  0.44448283  0.50213276  1  -0.04622  0  -0.087299  -0.115864  0  3.97278  0
C  C35  1  0.09451898  0.49902764  0.48180210  1  0.081918  0  -0.010719  0.079428  0  4.001881  0
C  C36  1  0.12879617  0.55520885  0.45932027  1  -0.041069  0  0.016408  0.104827  0  3.992295  0
C  C37  1  0.20000177  0.55799563  0.45930224  1  0.092437  0  -0.086354  -0.158748  0  3.961244  0
C  C38  1  0.51280031  0.90768570  0.50540792  1  -0.053336  0  -0.004313  0.138973  0  4.038518  0
C  C39  1  0.87687062  0.54114987  0.52789995  1  0.064995  0  -0.087293  -0.173415  0  3.941952  0
C  C40  1  0.80579175  0.54925862  0.52431240  1  0.012651  0  0.01945  0.135439  0  4.031208  0
C  C41  1  0.78997934  0.42686934  0.50443002  1  -0.047496  0  -0.083314  -0.144153  0  3.949848  0
C  C42  1  0.48685647  0.48901570  0.31600658  1  1.517  0  0.227426  0.606865  0  4.164758  0
C  C43  1  0.86085465  0.41888174  0.50925793  1  0.095587  0  0.012853  0.108853  0  4.03121  0
C  C44  1  0.90564946  0.47628875  0.52132564  1  0.072036  0  -0.013343  0.018138  0  4.019351  0
C  C45  1  0.01994860  0.49772313  0.48219936  1  -0.025039  0  -0.099884  -0.206483  0  3.985686  0
C  C46  1  0.98141195  0.47113051  0.52704012  1  0.037954  0  0.013556  0.110715  0  4.024967  0
C  C47  1  0.76138522  0.49171314  0.51305792  1  0.124654  0  -0.013838  -0.068281  0  3.933409  0
C  C48  1  0.50830163  0.50734043  0.76263485  1  -0.053811  0  -0.020316  -0.045683  0  3.980161  0
C  C49  1  0.57286759  0.87555791  0.53021687  1  -0.013823  0  -0.092618  -0.201918  0  3.932017  0
C  C50  1  0.48004609  0.45210411  0.79166241  1  -0.050084  0  -0.081014  -0.087117  0  3.990281  0
C  C51  1  0.47799721  0.45414127  0.86259923  1  0.013457  0  -0.086374  -0.126596  0  3.957978  0
C  C52  1  0.50310021  0.51188358  0.90697344  1  -0.03358  0  -0.005556  0.120594  0  4.038535  0
C  C53  1  0.53089691  0.56711813  0.87712934  1  -0.024306  0  -0.087964  -0.137588  0  3.970924  0
C  C54  1  0.50873490  0.50539849  0.68623310  1  1.570161  0  0.226284  0.60512  0  4.168623  0
C  C55  1  0.53429805  0.56467423  0.80614351  1  -0.03644  0  -0.079522  -0.081351  0  3.982983  0
C  C56  1  0.46913401  0.53274576  0.13054836  1  0.004932  0  -0.085678  -0.117  0  3.970164  0
C  C57  1  0.46813707  0.53902005  0.20180517  1  -0.022984  0  -0.083989  -0.097936  0  3.996509  0
C  C58  1  0.49821158  0.42005520  0.20368209  1  0.084962  0  -0.086259  -0.156964  0  3.960788  0
C  C59  1  0.49731148  0.41403458  0.13206383  1  -0.021431  0  0.016361  0.106274  0  3.997426  0
C  C60  1  0.57431202  0.80534260  0.53545434  1  0.08138  0  0.023203  0.147945  0  4.024432  0
C  C61  1  0.48453107  0.47056344  0.09332858  1  0.021349  0  -0.008652  0.062155  0  4.01522  0
C  C62  1  0.50079320  0.51673562  0.98159887  1  0.009315  0  -0.083705  -0.120101  0  3.981404  0
C  C63  1  0.48710652  0.46452477  0.01882127  1  -0.063071  0  -0.092746  -0.124148  0  4.000768  0
C  C64  1  0.48385615  0.48274966  0.23905363  1  -0.03545  0  -0.017417  -0.024755  0  3.987985  0
C  C65  1  0.48770856  0.31534558  0.48656515  1  1.520924  0  0.225242  0.601582  0  4.1712  0
C  C66  1  0.51146432  0.68811459  0.51302200  1  1.544022  0  0.225493  0.616434  0  4.160062  0
C  C67  1  0.51503471  0.76419063  0.51433117  1  0.018923  0  -0.020971  -0.100719  0  3.927705  0
C  C68  1  0.45484011  0.79703970  0.49021471  1  -0.029609  0  -0.079991  -0.074091  0  3.995453  0
C  C69  1  0.45291276  0.86681557  0.48634961  1  0.00539  0  -0.089911  -0.137367  0  3.972426  0
C  C70  1  0.52697516  0.12832064  0.45091963  1  0.035252  0  0.01728  0.105088  0  3.987051  0
C  C71  1  0.53128582  0.19913292  0.45287161  1  0.033053  0  -0.086033  -0.155043  0  3.960894  0
C  C72  1  0.42278811  0.20801135  0.50239195  1  -0.068946  0  -0.0835  -0.092434  0  3.992756  0
C  C73  1  0.41835930  0.13736228  0.49895956  1  0.026468  0  -0.085967  -0.123405  0  3.979191  0
C  C74  1  0.47122074  0.09517470  0.47608800  1  0.01543  0  -0.006544  0.063835  0  4.000955  0
Cl  Cl75  1  0.77522187  0.63129458  0.53057625  1  -0.182968  0  -0.014551  -0.078328  0  1.496638  0
Cl  Cl76  1  0.01556096  0.43439528  0.60006599  1  -0.19638  0  -0.006071  -0.076338  0  1.494596  0
Cl  Cl77  1  0.08204776  0.62426907  0.43293351  1  -0.217964  0  -0.023878  -0.099584  0  1.425095  0
Cl  Cl78  1  0.89280765  0.33758372  0.49680707  1  -0.204018  0  -0.021644  -0.0916  0  1.457498  0
Cl  Cl79  1  0.51509188  0.33490752  0.09080524  1  -0.222331  0  -0.02345  -0.100935  0  1.426326  0
Cl  Cl80  1  0.59164918  0.08294812  0.41335141  1  -0.214232  0  -0.01764  -0.097004  0  1.457482  0
Cl  Cl81  1  0.65235844  0.77276307  0.56508733  1  -0.186165  0  -0.018353  -0.080734  0  1.503605  0
O  O82  1  0.50143625  0.50324969  0.50088952  1  -1.22809  0  -0.572084  -1.031233  0  2.531987  0
O  O83  1  0.53814755  0.34104497  0.46019300  1  -1.17074  0  -0.316047  -0.544356  0  2.319135  0
O  O84  1  0.55305676  0.65920406  0.55495407  1  -1.158367  0  -0.312949  -0.546075  0  2.378507  0
O  O85  1  0.44312759  0.34884379  0.51869356  1  -1.169091  0  -0.314276  -0.544793  0  2.340149  0
O  O86  1  0.46517222  0.65821000  0.46900909  1  -1.171383  0  -0.316689  -0.549417  0  2.336288  0
O  O87  1  0.45905351  0.54110257  0.34519663  1  -1.17002  0  -0.31481  -0.546296  0  2.318044  0
O  O88  1  0.54487491  0.55098501  0.66315204  1  -1.170032  0  -0.314315  -0.546655  0  2.323739  0
O  O89  1  0.65142313  0.45520862  0.46194789  1  -1.160483  0  -0.311481  -0.537349  0  2.311205  0
O  O90  1  0.34654458  0.46822852  0.52882244  1  -1.169599  0  -0.315857  -0.547961  0  2.356361  0
O  O91  1  0.65957546  0.53604807  0.55469992  1  -1.1628  0  -0.309082  -0.543868  0  2.355155  0
O  O92  1  0.34423633  0.54904772  0.45251845  1  -1.162213  0  -0.314577  -0.544423  0  2.310823  0
O  O93  1  0.51770705  0.44160325  0.34640292  1  -1.170176  0  -0.317591  -0.549328  0  2.337303  0
O  O94  1  0.47226819  0.45802528  0.64960972  1  -1.188486  0  -0.320357  -0.554058  0  2.343729  0
