# generated using pymatgen
data_Ti3H15C21NO12
_symmetry_space_group_name_H-M   'P 1'
_cell_length_a   11.85283048
_cell_length_b   17.49452883
_cell_length_c   17.49454881
_cell_angle_alpha   119.99980728
_cell_angle_beta   90.00000444
_cell_angle_gamma   89.99999280
_symmetry_Int_Tables_number   1
_chemical_formula_structural   Ti3H15C21NO12
_chemical_formula_sum   'Ti12 H60 C84 N4 O48'
_cell_volume   3141.65538882
_cell_formula_units_Z   4
loop_
 _symmetry_equiv_pos_site_id
 _symmetry_equiv_pos_as_xyz
  1  'x, y, z'
loop_
 _atom_site_type_symbol
 _atom_site_label
 _atom_site_symmetry_multiplicity
 _atom_site_fract_x
 _atom_site_fract_y
 _atom_site_fract_z
 _atom_site_occupancy
 _atom_site_pbe_bader_charge
 _atom_site_pbe_bader_spin_density
 _atom_site_pbe_cm5_charge
 _atom_site_pbe_ddec_charge
 _atom_site_pbe_ddec_spin_density
 _atom_site_pbe_ddec_sum_bond_order
 _atom_site_pbe_magmom
Ti  Ti0  1  0.60508408  0.99999894  0.11754297  1  2.244603  0  1.454426  2.179077  0  2.338716  0
Ti  Ti1  1  0.60508421  0.11754194  0.99999910  1  2.24462  0  1.454425  2.179078  0  2.338712  0
Ti  Ti2  1  0.60508497  0.88245451  0.88245453  1  2.241665  0  1.454459  2.179002  0  2.338716  0
Ti  Ti3  1  0.10508297  0.00000043  0.88245766  1  2.244574  0  1.454436  2.17914  0  2.338717  0
Ti  Ti4  1  0.10508368  0.88245810  0.00000087  1  2.244591  0  1.454427  2.17913  0  2.338743  0
Ti  Ti5  1  0.10508376  0.11754495  0.11754487  1  2.241603  0  1.454434  2.179048  0  2.338703  0
Ti  Ti6  1  0.89491611  0.99999893  0.11754297  1  2.24459  0  1.454419  2.179062  0  2.338748  0
Ti  Ti7  1  0.89491532  0.88245450  0.88245453  1  2.241626  0  1.454478  2.179061  0  2.338613  0
Ti  Ti8  1  0.89491624  0.11754283  0.99999934  1  2.24462  0  1.45445  2.179112  0  2.338666  0
Ti  Ti9  1  0.39491669  0.00000042  0.88245766  1  2.244572  0  1.454425  2.179111  0  2.338703  0
Ti  Ti10  1  0.39491579  0.11754494  0.11754487  1  2.241625  0  1.454427  2.17902  0  2.338758  0
Ti  Ti11  1  0.39491656  0.88245751  0.00000030  1  2.244605  0  1.45443  2.1791  0  2.338737  0
H  H12  1  0.61874414  0.81179018  0.37488916  1  0.085978  0  0.104947  0.114505  0  0.997602  0
H  H13  1  0.61874415  0.56309865  0.18820945  1  0.031626  0  0.10496  0.114521  0  0.997639  0
H  H14  1  0.61874500  0.62511048  0.43690032  1  0.079315  0  0.10496  0.114538  0  0.99761  0
H  H15  1  0.11874465  0.18820928  0.62511023  1  0.083707  0  0.104954  0.114508  0  0.997607  0
H  H16  1  0.11874379  0.43690138  0.81179051  1  0.033904  0  0.104966  0.114527  0  0.997629  0
H  H17  1  0.11874547  0.37488955  0.56309964  1  0.081587  0  0.104956  0.114524  0  0.997634  0
H  H18  1  0.88125619  0.18820952  0.56309887  1  0.033909  0  0.104956  0.11452  0  0.997628  0
H  H19  1  0.88125532  0.43690129  0.62511137  1  0.081619  0  0.104956  0.114531  0  0.997593  0
H  H20  1  0.88125449  0.37488932  0.81179016  1  0.083581  0  0.104943  0.114504  0  0.997592  0
H  H21  1  0.38125572  0.81179017  0.43690143  1  0.033913  0  0.104956  0.11451  0  0.997637  0
H  H22  1  0.38125489  0.56309872  0.37488860  1  0.079323  0  0.104951  0.114522  0  0.997602  0
H  H23  1  0.38125488  0.62511012  0.18820923  1  0.0837  0  0.104947  0.114491  0  0.99762  0
H  H24  1  0.38125579  0.18820951  0.62511113  1  0.085858  0  0.104949  0.114508  0  0.997606  0
H  H25  1  0.38125577  0.43690137  0.81179051  1  0.031627  0  0.104962  0.114517  0  0.997633  0
H  H26  1  0.38125408  0.37488954  0.56309964  1  0.079301  0  0.104949  0.114517  0  0.997622  0
H  H27  1  0.88125527  0.81179017  0.37488917  1  0.083601  0  0.104953  0.114506  0  0.997597  0
H  H28  1  0.88125613  0.56309864  0.18820946  1  0.033903  0  0.104963  0.114527  0  0.997636  0
H  H29  1  0.88125529  0.62511047  0.43690033  1  0.081599  0  0.104954  0.114534  0  0.997621  0
H  H30  1  0.11874458  0.81179018  0.43690143  1  0.031638  0  0.104957  0.114508  0  0.997633  0
H  H31  1  0.11874460  0.56309874  0.37488860  1  0.081614  0  0.104956  0.114532  0  0.997595  0
H  H32  1  0.11874459  0.62511013  0.18820923  1  0.085851  0  0.104953  0.114497  0  0.99762  0
H  H33  1  0.61874421  0.18820953  0.56309887  1  0.031639  0  0.10495  0.114523  0  0.997622  0
H  H34  1  0.61874503  0.43690130  0.62511136  1  0.07933  0  0.104958  0.114535  0  0.997588  0
H  H35  1  0.61874505  0.37488933  0.81179016  1  0.085848  0  0.104942  0.114503  0  0.997597  0
H  H36  1  0.61947306  0.89314935  0.29116488  1  0.091404  0  0.110695  0.117756  0  0.989885  0
H  H37  1  0.61947310  0.39801585  0.10685026  1  0.101735  0  0.110691  0.117719  0  0.989872  0
H  H38  1  0.61947226  0.70883478  0.60198314  1  0.092363  0  0.110708  0.117737  0  0.989997  0
H  H39  1  0.11947276  0.10684978  0.70883485  1  0.093421  0  0.110702  0.117739  0  0.989857  0
H  H40  1  0.11947272  0.60198476  0.89315028  1  0.103813  0  0.110692  0.117714  0  0.989843  0
H  H41  1  0.11947272  0.29116526  0.39801683  1  0.092381  0  0.110697  0.117714  0  0.989977  0
H  H42  1  0.88052640  0.10685189  0.39801583  1  0.101759  0  0.110697  0.117751  0  0.989871  0
H  H43  1  0.88052806  0.60198396  0.70883599  1  0.093196  0  0.110692  0.117722  0  0.98997  0
H  H44  1  0.88052641  0.29116427  0.89314858  1  0.091423  0  0.110693  0.117779  0  0.989855  0
H  H45  1  0.38052509  0.89314813  0.60198414  1  0.101786  0  0.110687  0.117686  0  0.989888  0
H  H46  1  0.38052850  0.39801605  0.29116398  1  0.095256  0  0.110699  0.117741  0  0.989953  0
H  H47  1  0.38052508  0.70883574  0.10685139  1  0.091382  0  0.110686  0.117732  0  0.989873  0
H  H48  1  0.38052686  0.10684977  0.70883485  1  0.091366  0  0.110698  0.117725  0  0.989871  0
H  H49  1  0.38052682  0.60198475  0.89315028  1  0.101739  0  0.110697  0.117724  0  0.989853  0
H  H50  1  0.38052682  0.29116525  0.39801683  1  0.094419  0  0.110713  0.117743  0  0.989982  0
H  H51  1  0.88052716  0.89314934  0.29116488  1  0.093458  0  0.110689  0.117719  0  0.98992  0
H  H52  1  0.88052720  0.39801526  0.10684969  1  0.103794  0  0.110669  0.117674  0  0.989872  0
H  H53  1  0.88052804  0.70883477  0.60198314  1  0.09442  0  0.11071  0.117737  0  0.989994  0
H  H54  1  0.11947437  0.89314814  0.60198413  1  0.103855  0  0.110681  0.117689  0  0.989894  0
H  H55  1  0.11947186  0.39801606  0.29116398  1  0.093206  0  0.110705  0.117748  0  0.989934  0
H  H56  1  0.11947436  0.70883551  0.10685049  1  0.093431  0  0.110697  0.117731  0  0.989846  0
H  H57  1  0.61947314  0.10685190  0.39801583  1  0.103833  0  0.110687  0.117713  0  0.989861  0
H  H58  1  0.61947143  0.60198397  0.70883599  1  0.09525  0  0.110697  0.117732  0  0.989962  0
H  H59  1  0.61947315  0.29116428  0.89314857  1  0.093478  0  0.110699  0.117775  0  0.989869  0
H  H60  1  0.74999968  0.86531180  0.06422904  1  0.603155  0  0.326343  0.418031  0  0.861823  0
H  H61  1  0.74999975  0.19891580  0.13468567  1  0.566008  0  0.326359  0.418067  0  0.861819  0
H  H62  1  0.74999972  0.93576933  0.80108318  1  0.594892  0  0.326341  0.418082  0  0.86172  0
H  H63  1  0.25000024  0.13468790  0.93577126  1  0.603149  0  0.326345  0.418023  0  0.86184  0
H  H64  1  0.25000018  0.80108332  0.86531406  1  0.566  0  0.326313  0.418063  0  0.861874  0
H  H65  1  0.25000021  0.06423012  0.19891621  1  0.594925  0  0.326362  0.418043  0  0.861719  0
H  H66  1  0.74999976  0.13468650  0.19891711  1  0.565992  0  0.326368  0.418061  0  0.861815  0
H  H67  1  0.74999974  0.80108324  0.93577011  1  0.594884  0  0.326374  0.418063  0  0.86168  0
H  H68  1  0.74999980  0.06422925  0.86531204  1  0.603152  0  0.326347  0.418024  0  0.861832  0
H  H69  1  0.25000017  0.86531376  0.80108376  1  0.565993  0  0.326347  0.418031  0  0.861874  0
H  H70  1  0.25000019  0.19891646  0.06423018  1  0.594876  0  0.326366  0.418052  0  0.861731  0
H  H71  1  0.25000012  0.93577077  0.13468793  1  0.603148  0  0.326351  0.418034  0  0.86185  0
C  C72  1  0.56674221  0.78940032  0.31609969  1  -0.077217  0  -0.095584  -0.182536  0  4.003516  0
C  C73  1  0.56674307  0.52670171  0.21059857  1  0.034594  0  -0.095611  -0.182629  0  4.003235  0
C  C74  1  0.56674139  0.68389937  0.47329747  1  -0.115527  0  -0.095641  -0.182665  0  4.003477  0
C  C75  1  0.06674188  0.21059882  0.68390003  1  -0.077163  0  -0.095604  -0.182581  0  4.003519  0
C  C76  1  0.06674271  0.47329833  0.78940139  1  0.034587  0  -0.095608  -0.182609  0  4.003244  0
C  C77  1  0.06674186  0.31610157  0.52670274  1  -0.115515  0  -0.095609  -0.18262  0  4.003364  0
C  C78  1  0.93325726  0.21059936  0.52670134  1  0.034589  0  -0.095589  -0.182574  0  4.003231  0
C  C79  1  0.93325893  0.47329754  0.68389995  1  -0.115649  0  -0.095617  -0.182608  0  4.003432  0
C  C80  1  0.93325811  0.31609977  0.78940029  1  -0.07711  0  -0.095609  -0.182573  0  4.003407  0
C  C81  1  0.43325680  0.78940065  0.47329863  1  0.034584  0  -0.095553  -0.182517  0  4.003292  0
C  C82  1  0.43325851  0.52670214  0.31610036  1  -0.11564  0  -0.095611  -0.182608  0  4.003416  0
C  C83  1  0.43325764  0.68390000  0.21059878  1  -0.077144  0  -0.095609  -0.182536  0  4.003481  0
C  C84  1  0.43325771  0.21059880  0.68390004  1  -0.077048  0  -0.095602  -0.182585  0  4.003495  0
C  C85  1  0.43325685  0.47329832  0.78940139  1  0.034584  0  -0.095601  -0.182592  0  4.003229  0
C  C86  1  0.43325769  0.31610123  0.52670307  1  -0.115527  0  -0.09563  -0.182646  0  4.003397  0
C  C87  1  0.93325804  0.78940063  0.31609936  1  -0.077071  0  -0.095615  -0.182537  0  4.003575  0
C  C88  1  0.93325721  0.52670169  0.21059858  1  0.034599  0  -0.095625  -0.182643  0  4.003221  0
C  C89  1  0.93325890  0.68389902  0.47329780  1  -0.115717  0  -0.095604  -0.182636  0  4.003399  0
C  C90  1  0.06674351  0.78940067  0.47329863  1  0.034589  0  -0.095554  -0.182504  0  4.003283  0
C  C91  1  0.06674099  0.52670216  0.31610035  1  -0.115639  0  -0.095625  -0.182624  0  4.003383  0
C  C92  1  0.06674266  0.68390058  0.21059935  1  -0.07705  0  -0.095625  -0.182547  0  4.003478  0
C  C93  1  0.56674228  0.21059937  0.52670133  1  0.034592  0  -0.095603  -0.182639  0  4.00327  0
C  C94  1  0.56674057  0.47329755  0.68389994  1  -0.115637  0  -0.095611  -0.182603  0  4.003434  0
C  C95  1  0.56674228  0.31609979  0.78940028  1  -0.077067  0  -0.095614  -0.182584  0  4.00341  0
C  C96  1  0.56685273  0.83487217  0.26993287  1  -0.050562  0  -0.081963  -0.076148  0  3.99076  0
C  C97  1  0.56684854  0.43505717  0.16512753  1  -0.001935  0  -0.081875  -0.075938  0  3.990737  0
C  C98  1  0.56685444  0.73006792  0.56494175  1  0.028864  0  -0.081928  -0.076065  0  3.990498  0
C  C99  1  0.06684988  0.16512868  0.73006857  1  -0.050503  0  -0.08194  -0.076021  0  3.990842  0
C  C100  1  0.06684816  0.56494230  0.83487187  1  -0.001911  0  -0.081875  -0.075921  0  3.990701  0
C  C101  1  0.06685407  0.26993122  0.43505797  1  0.029  0  -0.081922  -0.07601  0  3.990536  0
C  C102  1  0.93315011  0.16512945  0.43505804  1  -0.001919  0  -0.081886  -0.076009  0  3.990749  0
C  C103  1  0.93314588  0.56494307  0.73006964  1  0.028846  0  -0.0819  -0.076047  0  3.990472  0
C  C104  1  0.93314675  0.26993080  0.83487065  1  -0.050551  0  -0.08193  -0.076115  0  3.990723  0
C  C105  1  0.43315134  0.83486998  0.56494135  1  -0.00193  0  -0.081895  -0.075956  0  3.990917  0
C  C106  1  0.43314630  0.43505694  0.26993033  1  0.028844  0  -0.081908  -0.076055  0  3.990469  0
C  C107  1  0.43314880  0.73006978  0.16512990  1  -0.050495  0  -0.081934  -0.076106  0  3.990872  0
C  C108  1  0.43314973  0.16512867  0.73006857  1  -0.050523  0  -0.081934  -0.075991  0  3.990855  0
C  C109  1  0.43315139  0.56494228  0.83487187  1  -0.001908  0  -0.081889  -0.075947  0  3.990725  0
C  C110  1  0.43314717  0.26993210  0.43505822  1  0.028852  0  -0.081926  -0.076009  0  3.99049  0
C  C111  1  0.93314751  0.83487215  0.26993287  1  -0.050553  0  -0.081939  -0.07609  0  3.990817  0
C  C112  1  0.93315176  0.43505715  0.16512753  1  -0.001913  0  -0.08184  -0.075862  0  3.990642  0
C  C113  1  0.93314585  0.73006791  0.56494175  1  0.029047  0  -0.081921  -0.076035  0  3.990493  0
C  C114  1  0.06684897  0.83487000  0.56494135  1  -0.001928  0  -0.081887  -0.075949  0  3.990922  0
C  C115  1  0.06685320  0.43505638  0.26992976  1  0.028841  0  -0.081912  -0.076042  0  3.990446  0
C  C116  1  0.06685148  0.73007036  0.16513046  1  -0.050507  0  -0.081903  -0.076035  0  3.990827  0
C  C117  1  0.56684942  0.16512947  0.43505804  1  -0.001921  0  -0.081845  -0.075877  0  3.990766  0
C  C118  1  0.56685362  0.56494309  0.73006964  1  0.028842  0  -0.081903  -0.07606  0  3.990474  0
C  C119  1  0.56685281  0.26993082  0.83487065  1  -0.050543  0  -0.081935  -0.076105  0  3.99077  0
C  C120  1  0.50000035  0.71328895  0.28671096  1  0.36468  0  0.095633  0.187263  0  4.037859  0
C  C121  1  0.49999868  0.57342150  0.28671101  1  0.264846  0  0.095679  0.187369  0  4.037968  0
C  C122  1  0.50000120  0.71328789  0.42657796  1  0.264867  0  0.095654  0.187328  0  4.038001  0
C  C123  1  0.00000001  0.28671019  0.71328877  1  0.364719  0  0.095619  0.187248  0  4.037921  0
C  C124  1  0.99999827  0.42657851  0.71328896  1  0.264826  0  0.095657  0.187287  0  4.038058  0
C  C125  1  0.00000169  0.28671125  0.57342176  1  0.26488  0  0.095637  0.187304  0  4.037917  0
C  C126  1  0.50000042  0.28671017  0.71328877  1  0.364675  0  0.095625  0.18726  0  4.03791  0
C  C127  1  0.50000125  0.42657853  0.71328895  1  0.264826  0  0.095649  0.187287  0  4.038058  0
C  C128  1  0.49999872  0.28671156  0.57342144  1  0.264867  0  0.095669  0.187342  0  4.037928  0
C  C129  1  0.99999991  0.71328951  0.28671153  1  0.364679  0  0.095635  0.187204  0  4.037936  0
C  C130  1  0.00000165  0.57342119  0.28671134  1  0.264832  0  0.095664  0.187314  0  4.038038  0
C  C131  1  0.99999823  0.71328787  0.42657796  1  0.264884  0  0.095633  0.187272  0  4.037916  0
C  C132  1  0.49999865  0.80583165  0.19416848  1  0.070848  0  -0.025236  -0.058995  0  3.993188  0
C  C133  1  0.50000122  0.38833757  0.19416615  1  0.025312  0  -0.025211  -0.059002  0  3.993361  0
C  C134  1  0.49999783  0.80583275  0.61166168  1  -0.024782  0  -0.025174  -0.058936  0  3.993388  0
C  C135  1  0.00000003  0.19416725  0.80583035  1  0.070831  0  -0.025219  -0.059052  0  3.99332  0
C  C136  1  0.00000168  0.61166247  0.80583382  1  -0.024799  0  -0.025198  -0.058978  0  3.993377  0
C  C137  1  0.99999828  0.19416881  0.38833788  1  -0.024944  0  -0.025167  -0.058972  0  3.993355  0
C  C138  1  0.50000043  0.19416756  0.80583002  1  0.070832  0  -0.025145  -0.058974  0  3.993262  0
C  C139  1  0.49999870  0.61166245  0.80583382  1  -0.0248  0  -0.025191  -0.058967  0  3.993363  0
C  C140  1  0.50000125  0.19416907  0.38833878  1  -0.024806  0  -0.025185  -0.059028  0  3.993434  0
C  C141  1  0.00000162  0.80583167  0.19416847  1  0.070784  0  -0.025239  -0.05902  0  3.993225  0
C  C142  1  0.99999909  0.38833722  0.19416648  1  0.025298  0  -0.025281  -0.05912  0  3.993478  0
C  C143  1  0.00000165  0.80583335  0.61166224  1  -0.02483  0  -0.025174  -0.058946  0  3.993391  0
C  C144  1  0.50000371  0.85490712  0.14509997  1  1.52221  0  0.225078  0.616626  0  4.160577  0
C  C145  1  0.49999532  0.29019286  0.14509843  1  1.520177  0  0.224906  0.616355  0  4.160571  0
C  C146  1  0.50000964  0.85489677  0.70980654  1  1.570271  0  0.224892  0.616213  0  4.160845  0
C  C147  1  0.99999746  0.14509746  0.85490457  1  1.522217  0  0.224997  0.616485  0  4.160714  0
C  C148  1  0.99999066  0.70980675  0.85489850  1  1.570263  0  0.22492  0.616318  0  4.160688  0
C  C149  1  0.00000422  0.14510056  0.29019270  1  1.570144  0  0.224968  0.616341  0  4.160771  0
C  C150  1  0.50000297  0.14509747  0.85490457  1  1.522224  0  0.224956  0.61637  0  4.160745  0
C  C151  1  0.50000882  0.70980677  0.85489850  1  1.570259  0  0.224905  0.616281  0  4.160677  0
C  C152  1  0.49999534  0.14510112  0.29019328  1  1.57015  0  0.224933  0.616294  0  4.160862  0
C  C153  1  0.99999567  0.85490710  0.14509998  1  1.522269  0  0.225087  0.616634  0  4.160581  0
C  C154  1  0.00000420  0.29019288  0.14509843  1  1.520153  0  0.225025  0.616568  0  4.160477  0
C  C155  1  0.99998980  0.85489676  0.70980654  1  1.570318  0  0.224889  0.616203  0  4.160847  0
N  N156  1  0.49999952  0.66666729  0.33333251  1  -1.197376  0  -0.25255  -0.158768  0  3.681807  0
N  N157  1  0.00000001  0.33333332  0.66666803  1  -1.197359  0  -0.252541  -0.158712  0  3.681757  0
N  N158  1  0.50000041  0.33333330  0.66666803  1  -1.197353  0  -0.252547  -0.158727  0  3.681752  0
N  N159  1  0.99999992  0.66666670  0.33333194  1  -1.197369  0  -0.252553  -0.158711  0  3.681813  0
O  O160  1  0.56878052  0.91878280  0.16999921  1  -1.139002  0  -0.344025  -0.585191  0  2.337825  0
O  O161  1  0.56878480  0.25121360  0.08121278  1  -1.139126  0  -0.344035  -0.585226  0  2.337275  0
O  O162  1  0.56877719  0.83000319  0.74878326  1  -1.144494  0  -0.343978  -0.584972  0  2.338124  0
O  O163  1  0.06878277  0.08121420  0.83000036  1  -1.13888  0  -0.344021  -0.58522  0  2.33756  0
O  O164  1  0.06878693  0.74878782  0.91878923  1  -1.139075  0  -0.344116  -0.585323  0  2.337057  0
O  O165  1  0.06878019  0.16999898  0.25121686  1  -1.144186  0  -0.344022  -0.585119  0  2.337929  0
O  O166  1  0.93121640  0.08121570  0.25121370  1  -1.139112  0  -0.3441  -0.585252  0  2.337415  0
O  O167  1  0.93122396  0.74878331  0.83000408  1  -1.144352  0  -0.343983  -0.585067  0  2.338152  0
O  O168  1  0.93121811  0.16999831  0.91878312  1  -1.138937  0  -0.344033  -0.585189  0  2.337786  0
O  O169  1  0.43121341  0.91878701  0.74878699  1  -1.138968  0  -0.344084  -0.585292  0  2.337138  0
O  O170  1  0.43122104  0.25121546  0.16999598  1  -1.144295  0  -0.344012  -0.585174  0  2.337963  0
O  O171  1  0.43121676  0.83000155  0.08121471  1  -1.138819  0  -0.344092  -0.585345  0  2.337411  0
O  O172  1  0.43121687  0.08121452  0.83000004  1  -1.138877  0  -0.34405  -0.585209  0  2.337553  0
O  O173  1  0.43121344  0.74878724  0.91878867  1  -1.139067  0  -0.344106  -0.585296  0  2.337055  0
O  O174  1  0.43122020  0.16999897  0.25121686  1  -1.144174  0  -0.344009  -0.585087  0  2.337972  0
O  O175  1  0.93121969  0.91878312  0.16999888  1  -1.139008  0  -0.344037  -0.585219  0  2.337868  0
O  O176  1  0.93121468  0.25121358  0.08121278  1  -1.13914  0  -0.344028  -0.585244  0  2.337238  0
O  O177  1  0.93122310  0.83000317  0.74878327  1  -1.14448  0  -0.343979  -0.584981  0  2.338147  0
O  O178  1  0.06878775  0.91878760  0.74878756  1  -1.13898  0  -0.344102  -0.585308  0  2.337104  0
O  O179  1  0.06877849  0.25121491  0.16999540  1  -1.144266  0  -0.344054  -0.585266  0  2.337911  0
O  O180  1  0.06878350  0.83000156  0.08121471  1  -1.138811  0  -0.344088  -0.585331  0  2.337389  0
O  O181  1  0.56878398  0.08121539  0.25121403  1  -1.139111  0  -0.344079  -0.585244  0  2.337418  0
O  O182  1  0.56877720  0.74878300  0.83000441  1  -1.14435  0  -0.343981  -0.585041  0  2.338126  0
O  O183  1  0.56878148  0.16999832  0.91878312  1  -1.138936  0  -0.344032  -0.585173  0  2.337846  0
O  O184  1  0.74999968  0.92915554  0.09546501  1  -1.149846  0  -0.659951  -0.914289  0  2.149312  0
O  O185  1  0.74999975  0.16630827  0.07084398  1  -1.088756  0  -0.659957  -0.914331  0  2.149337  0
O  O186  1  0.75000057  0.90453459  0.83368971  1  -1.132196  0  -0.65995  -0.914368  0  2.149251  0
O  O187  1  0.25000025  0.07084539  0.90453520  1  -1.149805  0  -0.659965  -0.914311  0  2.149339  0
O  O188  1  0.25000018  0.83369085  0.92915574  1  -1.079233  0  -0.659918  -0.914347  0  2.149392  0
O  O189  1  0.25000020  0.09546454  0.16631002  1  -1.132225  0  -0.65997  -0.914304  0  2.149231  0
O  O190  1  0.74999976  0.07084474  0.16630958  1  -1.079148  0  -0.659971  -0.91432  0  2.149333  0
O  O191  1  0.75000058  0.83369017  0.90453511  1  -1.107713  0  -0.65998  -0.914319  0  2.149183  0
O  O192  1  0.74999980  0.09546408  0.92915456  1  -1.149762  0  -0.65996  -0.914291  0  2.149318  0
O  O193  1  0.25000016  0.92915519  0.83369162  1  -1.088687  0  -0.659935  -0.914293  0  2.149381  0
O  O194  1  0.25000019  0.16631076  0.09546510  1  -1.107709  0  -0.659968  -0.914291  0  2.149213  0
O  O195  1  0.25000012  0.90453561  0.07084574  1  -1.149752  0  -0.659959  -0.914288  0  2.149311  0
O  O196  1  0.42610995  0.99999899  0.09735385  1  -1.096329  0  -0.720234  -1.151456  0  2.010814  0
O  O197  1  0.42610924  0.09735313  0.99999879  1  -1.096354  0  -0.720238  -1.151466  0  2.010823  0
O  O198  1  0.42610916  0.90264648  0.90264648  1  -1.096302  0  -0.720244  -1.15142  0  2.010796  0
O  O199  1  0.92611049  0.00000045  0.90264555  1  -1.095825  0  -0.720246  -1.151485  0  2.010847  0
O  O200  1  0.92611035  0.90264688  0.00000118  1  -1.096252  0  -0.720245  -1.151486  0  2.010841  0
O  O201  1  0.92610959  0.09735353  0.09735350  1  -1.096248  0  -0.720232  -1.151453  0  2.010795  0
O  O202  1  0.07389028  0.99999900  0.09735385  1  -1.095572  0  -0.720235  -1.151462  0  2.010815  0
O  O203  1  0.07389118  0.90264707  0.90264705  1  -1.096057  0  -0.72023  -1.151459  0  2.010817  0
O  O204  1  0.07389042  0.09735314  0.99999879  1  -1.096308  0  -0.720253  -1.151482  0  2.010808  0
O  O205  1  0.57388998  0.00000046  0.90264555  1  -1.095581  0  -0.720248  -1.151475  0  2.010876  0
O  O206  1  0.57389077  0.09735354  0.09735349  1  -1.096213  0  -0.720228  -1.151442  0  2.010807  0
O  O207  1  0.57388984  0.90264632  0.00000060  1  -1.095543  0  -0.72023  -1.151481  0  2.010865  0
