# generated using pymatgen
data_LaH12C15N2O7
_symmetry_space_group_name_H-M   'P 1'
_cell_length_a   10.78255357
_cell_length_b   11.85644090
_cell_length_c   16.63919874
_cell_angle_alpha   108.86025984
_cell_angle_beta   89.99451091
_cell_angle_gamma   117.05323550
_symmetry_Int_Tables_number   1
_chemical_formula_structural   LaH12C15N2O7
_chemical_formula_sum   'La4 H48 C60 N8 O28'
_cell_volume   1765.28251200
_cell_formula_units_Z   4
loop_
 _symmetry_equiv_pos_site_id
 _symmetry_equiv_pos_as_xyz
  1  'x, y, z'
loop_
 _atom_site_type_symbol
 _atom_site_label
 _atom_site_symmetry_multiplicity
 _atom_site_fract_x
 _atom_site_fract_y
 _atom_site_fract_z
 _atom_site_occupancy
 _atom_site_hle17_bader_spin_density
 _atom_site_hle17_ddec_charge
 _atom_site_hle17_ddec_spin_density
 _atom_site_hle17_ddec_sum_bond_order
 _atom_site_hle17_magmom
 _atom_site_hse06_10hf_bader_spin_density
 _atom_site_hse06_10hf_ddec_charge
 _atom_site_hse06_10hf_ddec_spin_density
 _atom_site_hse06_10hf_ddec_sum_bond_order
 _atom_site_hse06_10hf_magmom
 _atom_site_hse06_bader_spin_density
 _atom_site_hse06_ddec_charge
 _atom_site_hse06_ddec_spin_density
 _atom_site_hse06_ddec_sum_bond_order
 _atom_site_hse06_magmom
 _atom_site_pbe_bader_spin_density
 _atom_site_pbe_cm5_charge
 _atom_site_pbe_ddec_charge
 _atom_site_pbe_ddec_spin_density
 _atom_site_pbe_ddec_sum_bond_order
 _atom_site_pbe_magmom
La  La0  1  0.97323791  0.99650891  0.12663622  1  0  2.128709  0  1.813362  0  0  1.998517  0  2.351872  0  0  2.104279  0  2.246288  0  0  1.416575  1.919141  0  2.426225  0
La  La1  1  0.97658237  0.00331615  0.37329478  1  0  2.128991  0  1.812138  0  0  1.999054  0  2.35071  0  0  2.104872  0  2.245035  0  0  1.416222  1.91969  0  2.425033  0
La  La2  1  0.02676366  0.00349218  0.87336365  1  0  2.128679  0  1.813354  0  0  1.998486  0  2.351854  0  0  2.104249  0  2.246271  0  0  1.416566  1.919112  0  2.426207  0
La  La3  1  0.02342096  0.99668290  0.62670583  1  0  2.128988  0  1.812163  0  0  1.999051  0  2.350732  0  0  2.104869  0  2.24506  0  0  1.416216  1.919685  0  2.425059  0
H  H4  1  0.69284450  0.53848002  0.01261514  1  0  0.099811  0  0.946389  0  0  0.10921  0  1.006765  0  0  0.112974  0  1.004539  0  0  0.106244  0.106346  0  1.008693  0
H  H5  1  0.15455373  0.46173738  0.48746882  1  0  0.099468  0  0.94682  0  0  0.10879  0  1.007136  0  0  0.112671  0  1.004794  0  0  0.106049  0.105882  0  1.009094  0
H  H6  1  0.30715378  0.46152005  0.98738510  1  0  0.099786  0  0.946405  0  0  0.109186  0  1.006782  0  0  0.112949  0  1.004557  0  0  0.106224  0.106323  0  1.00871  0
H  H7  1  0.84544209  0.53825965  0.51253011  1  0  0.099476  0  0.9469  0  0  0.108811  0  1.007194  0  0  0.112692  0  1.004852  0  0  0.106047  0.105903  0  1.009151  0
H  H8  1  0.47195239  0.31346123  0.95123449  1  0  0.104736  0  0.94369  0  0  0.113613  0  1.003681  0  0  0.117049  0  1.002215  0  0  0.107312  0.110938  0  1.005092  0
H  H9  1  0.15883498  0.68682702  0.54892561  1  0  0.103956  0  0.944201  0  0  0.113121  0  1.003991  0  0  0.116557  0  1.002525  0  0  0.107326  0.110461  0  1.0054  0
H  H10  1  0.52804589  0.68653884  0.04876515  1  0  0.10473  0  0.943693  0  0  0.113609  0  1.003681  0  0  0.117045  0  1.002215  0  0  0.107299  0.110933  0  1.005092  0
H  H11  1  0.84116330  0.31317305  0.45107403  1  0  0.103993  0  0.944206  0  0  0.113146  0  1.004005  0  0  0.116583  0  1.002538  0  0  0.107338  0.110484  0  1.005414  0
H  H12  1  0.46914964  0.35715126  0.70539169  1  0  0.107683  0  0.937141  0  0  0.116784  0  0.995318  0  0  0.121113  0  0.992271  0  0  0.107433  0.113642  0  0.997524  0
H  H13  1  0.11145192  0.64269165  0.79462986  1  0  0.107662  0  0.93705  0  0  0.116984  0  0.994875  0  0  0.121312  0  0.991862  0  0  0.107391  0.113847  0  0.997071  0
H  H14  1  0.53085193  0.64284984  0.29460758  1  0  0.107712  0  0.937095  0  0  0.116811  0  0.995273  0  0  0.121141  0  0.992225  0  0  0.10745  0.113668  0  0.99748  0
H  H15  1  0.88854872  0.35730943  0.20537182  1  0  0.10765  0  0.937093  0  0  0.116986  0  0.994902  0  0  0.121316  0  0.991888  0  0  0.10739  0.113848  0  0.997099  0
H  H16  1  0.69269809  0.58245417  0.76628001  1  0  0.10559  0  0.957103  0  0  0.11235  0  1.021425  0  0  0.11617  0  1.018805  0  0  0.105563  0.109348  0  1.023716  0
H  H17  1  0.10972703  0.41745261  0.73370803  1  0  0.105326  0  0.957633  0  0  0.11194  0  1.022165  0  0  0.115815  0  1.019445  0  0  0.105547  0.108938  0  1.024504  0
H  H18  1  0.30730204  0.41754590  0.23372023  1  0  0.105592  0  0.957098  0  0  0.112357  0  1.021417  0  0  0.116188  0  1.018783  0  0  0.105563  0.109354  0  1.023711  0
H  H19  1  0.89027453  0.58254848  0.26629184  1  0  0.105311  0  0.957603  0  0  0.111925  0  1.022142  0  0  0.115799  0  1.019423  0  0  0.105551  0.10892  0  1.024483  0
H  H20  1  0.35269883  0.02991251  0.90147762  1  0  0.114568  0  0.971099  0  0  0.119715  0  1.038491  0  0  0.123811  0  1.035932  0  0  0.112679  0.116614  0  1.040675  0
H  H21  1  0.32259306  0.96981976  0.59840652  1  0  0.113986  0  0.972481  0  0  0.119275  0  1.039719  0  0  0.123273  0  1.037272  0  0  0.112724  0.116238  0  1.041828  0
H  H22  1  0.64730037  0.97008757  0.09852262  1  0  0.11458  0  0.971101  0  0  0.119724  0  1.038496  0  0  0.12382  0  1.035936  0  0  0.112686  0.116625  0  1.04068  0
H  H23  1  0.67740851  0.03018133  0.40159456  1  0  0.11397  0  0.97247  0  0  0.119255  0  1.039723  0  0  0.123252  0  1.037276  0  0  0.112708  0.116219  0  1.041832  0
H  H24  1  0.58450550  0.04363521  0.86859641  1  0  0.101556  0  0.943879  0  0  0.112559  0  1.000841  0  0  0.11654  0  0.998265  0  0  0.105275  0.109634  0  1.002843  0
H  H25  1  0.54051430  0.95588103  0.63124283  1  0  0.10213  0  0.943893  0  0  0.11281  0  1.001043  0  0  0.116785  0  0.998503  0  0  0.105309  0.109882  0  1.003039  0
H  H26  1  0.41549422  0.95636589  0.13140346  1  0  0.101531  0  0.943921  0  0  0.112539  0  1.000878  0  0  0.11652  0  0.998301  0  0  0.105253  0.109619  0  1.002875  0
H  H27  1  0.45948769  0.04411905  0.36875801  1  0  0.102123  0  0.943926  0  0  0.112804  0  1.001072  0  0  0.116779  0  0.998531  0  0  0.105308  0.109876  0  1.003072  0
H  H28  1  0.16822907  0.65869223  0.05846903  1  0  0.058704  0  0.912391  0  0  0.074822  0  0.971844  0  0  0.075419  0  0.972116  0  0  0.102119  0.074319  0  0.971718  0
H  H29  1  0.50928907  0.34137841  0.44145209  1  0  0.058454  0  0.911104  0  0  0.074718  0  0.971014  0  0  0.075383  0  0.971205  0  0  0.102041  0.074189  0  0.970908  0
H  H30  1  0.83177106  0.34130785  0.94153061  1  0  0.058729  0  0.912368  0  0  0.074846  0  0.971819  0  0  0.075444  0  0.97209  0  0  0.102128  0.074342  0  0.971693  0
H  H31  1  0.49071106  0.65862166  0.55854815  1  0  0.058445  0  0.911108  0  0  0.074708  0  0.971016  0  0  0.075373  0  0.971206  0  0  0.10204  0.074179  0  0.97091  0
H  H32  1  0.05319280  0.50934280  0.07949554  1  0  0.065819  0  0.922872  0  0  0.084248  0  0.97922  0  0  0.084433  0  0.979975  0  0  0.105844  0.084043  0  0.978719  0
H  H33  1  0.54341393  0.49069232  0.42043426  1  0  0.065226  0  0.923153  0  0  0.083955  0  0.979786  0  0  0.084107  0  0.980578  0  0  0.105653  0.083766  0  0.979276  0
H  H34  1  0.94680733  0.49065729  0.92050290  1  0  0.065836  0  0.922849  0  0  0.084248  0  0.97922  0  0  0.084434  0  0.979975  0  0  0.105836  0.084042  0  0.978721  0
H  H35  1  0.45658569  0.50930674  0.57956514  1  0  0.065215  0  0.923147  0  0  0.083942  0  0.97978  0  0  0.084095  0  0.980571  0  0  0.105648  0.083755  0  0.979269  0
H  H36  1  0.15543358  0.61138771  0.22923861  1  0  0.058907  0  0.923423  0  0  0.074678  0  0.983669  0  0  0.074655  0  0.984845  0  0  0.101232  0.074607  0  0.982877  0
H  H37  1  0.54389537  0.38876941  0.27069591  1  0  0.059472  0  0.922864  0  0  0.075135  0  0.983047  0  0  0.075186  0  0.984128  0  0  0.101326  0.075024  0  0.982306  0
H  H38  1  0.84456513  0.38861136  0.77075959  1  0  0.058895  0  0.923433  0  0  0.074661  0  0.983676  0  0  0.074638  0  0.984853  0  0  0.101229  0.074591  0  0.982887  0
H  H39  1  0.45610425  0.61122965  0.72930410  1  0  0.05947  0  0.922859  0  0  0.075135  0  0.983043  0  0  0.075183  0  0.984125  0  0  0.101331  0.075022  0  0.982303  0
H  H40  1  0.30462577  0.71844347  0.19372908  1  0  0.067221  0  0.945554  0  0  0.081414  0  1.008742  0  0  0.080999  0  1.010922  0  0  0.103903  0.081554  0  1.007346  0
H  H41  1  0.58623510  0.28187932  0.30626683  1  0  0.067709  0  0.945534  0  0  0.081642  0  1.008814  0  0  0.081225  0  1.01101  0  0  0.104099  0.081785  0  1.00741  0
H  H42  1  0.69537385  0.28155559  0.80627093  1  0  0.067214  0  0.945553  0  0  0.081404  0  1.008736  0  0  0.080989  0  1.010917  0  0  0.1039  0.081544  0  1.007341  0
H  H43  1  0.41376503  0.71812075  0.69373341  1  0  0.067712  0  0.945527  0  0  0.081641  0  1.008814  0  0  0.081221  0  1.011009  0  0  0.104102  0.081784  0  1.00741  0
H  H44  1  0.94236412  0.66988525  0.06994497  1  0  0.307223  0  0.920603  0  0  0.289875  0  0.986381  0  0  0.298165  0  0.979296  0  0  0.307624  0.283891  0  0.991627  0
H  H45  1  0.27207115  0.32986409  0.42986083  1  0  0.306617  0  0.922926  0  0  0.2899  0  0.987499  0  0  0.298177  0  0.980483  0  0  0.307482  0.283922  0  0.99273  0
H  H46  1  0.05763602  0.33011483  0.93005407  1  0  0.307195  0  0.920637  0  0  0.289841  0  0.986428  0  0  0.298131  0  0.979343  0  0  0.307603  0.283855  0  0.991674  0
H  H47  1  0.72792991  0.67013599  0.57013881  1  0  0.306596  0  0.922949  0  0  0.289865  0  0.987535  0  0  0.298141  0  0.980523  0  0  0.30747  0.283887  0  0.992767  0
H  H48  1  0.20961827  0.87188800  0.29600816  1  0  0.316926  0  0.926363  0  0  0.298048  0  0.988488  0  0  0.306214  0  0.98204  0  0  0.314794  0.292266  0  0.993137  0
H  H49  1  0.33782129  0.12809189  0.20390793  1  0  0.316921  0  0.926434  0  0  0.29766  0  0.989099  0  0  0.305856  0  0.982654  0  0  0.314823  0.291862  0  0.993687  0
H  H50  1  0.79038186  0.12811207  0.70399208  1  0  0.316924  0  0.926365  0  0  0.298042  0  0.98849  0  0  0.306208  0  0.982043  0  0  0.314794  0.292254  0  0.993142  0
H  H51  1  0.66217885  0.87190819  0.79609230  1  0  0.31693  0  0.926418  0  0  0.297666  0  0.989081  0  0  0.305864  0  0.982635  0  0  0.314827  0.291865  0  0.993672  0
C  C52  1  0.70529492  0.57409673  0.89314459  1  0  -0.069184  0  3.742915  0  0  -0.047782  0  3.973691  0  0  -0.054223  0  3.99498  0  0  -0.016649  -0.043699  0  3.959344  0
C  C53  1  0.13106022  0.42594771  0.60690623  1  0  -0.068918  0  3.741157  0  0  -0.047721  0  3.971919  0  0  -0.054062  0  3.993096  0  0  -0.017102  -0.043752  0  3.957717  0
C  C54  1  0.29470429  0.42590334  0.10685625  1  0  -0.069339  0  3.742979  0  0  -0.047905  0  3.973732  0  0  -0.054349  0  3.995024  0  0  -0.016672  -0.04382  0  3.959376  0
C  C55  1  0.86894042  0.57405337  0.39309485  1  0  -0.068979  0  3.741097  0  0  -0.047794  0  3.971886  0  0  -0.054134  0  3.993059  0  0  -0.017137  -0.043825  0  3.957686  0
C  C56  1  0.64541820  0.49697510  0.94484811  1  0  -0.076039  0  3.746343  0  0  -0.097766  0  3.99769  0  0  -0.099048  0  4.018462  0  0  -0.082928  -0.096666  0  3.983645  0
C  C57  1  0.14845422  0.50313942  0.55522270  1  0  -0.076218  0  3.745073  0  0  -0.097718  0  3.996642  0  0  -0.099145  0  4.017345  0  0  -0.082434  -0.096531  0  3.982644  0
C  C58  1  0.35458151  0.50302599  0.05515176  1  0  -0.075981  0  3.746335  0  0  -0.097721  0  3.997679  0  0  -0.099002  0  4.018451  0  0  -0.082926  -0.096623  0  3.983632  0
C  C59  1  0.85154406  0.49686065  0.44477754  1  0  -0.076201  0  3.745157  0  0  -0.097707  0  3.996717  0  0  -0.099133  0  4.017418  0  0  -0.082395  -0.096518  0  3.982719  0
C  C60  1  0.52235820  0.37229594  0.91099368  1  0  -0.077378  0  3.739632  0  0  -0.100008  0  3.990815  0  0  -0.1013  0  4.011316  0  0  -0.081727  -0.099177  0  3.977256  0
C  C61  1  0.15006621  0.62780751  0.58909275  1  0  -0.075607  0  3.738617  0  0  -0.098541  0  3.989646  0  0  -0.099816  0  4.010158  0  0  -0.08221  -0.097745  0  3.976102  0
C  C62  1  0.47764193  0.62770414  0.08900596  1  0  -0.077421  0  3.739669  0  0  -0.100054  0  3.990862  0  0  -0.101345  0  4.011362  0  0  -0.081744  -0.099224  0  3.977303  0
C  C63  1  0.84992971  0.37219155  0.41090665  1  0  -0.075584  0  3.738647  0  0  -0.098505  0  3.989668  0  0  -0.099779  0  4.01018  0  0  -0.082188  -0.097707  0  3.976122  0
C  C64  1  0.45762727  0.32340348  0.82502053  1  0  -0.057119  0  3.738659  0  0  -0.035657  0  3.968262  0  0  -0.041539  0  3.988718  0  0  -0.012303  -0.032001  0  3.954925  0
C  C65  1  0.13404746  0.67660767  0.67503735  1  0  -0.059122  0  3.740621  0  0  -0.037235  0  3.970182  0  0  -0.043152  0  3.990635  0  0  -0.011899  -0.033554  0  3.956836  0
C  C66  1  0.54237379  0.67659660  0.17497910  1  0  -0.057086  0  3.738677  0  0  -0.035616  0  3.968266  0  0  -0.041499  0  3.988723  0  0  -0.012279  -0.031959  0  3.954929  0
C  C67  1  0.86595174  0.32339240  0.32496289  1  0  -0.059189  0  3.740664  0  0  -0.037308  0  3.970236  0  0  -0.043227  0  3.99069  0  0  -0.011942  -0.033629  0  3.956892  0
C  C68  1  0.52075586  0.39794952  0.77224629  1  0  -0.082004  0  3.747681  0  0  -0.104401  0  3.997113  0  0  -0.10543  0  4.016226  0  0  -0.084688  -0.103387  0  3.984096  0
C  C69  1  0.12241785  0.60197268  0.72778754  1  0  -0.082259  0  3.747632  0  0  -0.104915  0  3.997028  0  0  -0.105962  0  4.016176  0  0  -0.084967  -0.103903  0  3.983998  0
C  C70  1  0.47924386  0.60205158  0.22775299  1  0  -0.08204  0  3.74763  0  0  -0.104436  0  3.997073  0  0  -0.105465  0  4.016187  0  0  -0.084701  -0.10342  0  3.984054  0
C  C71  1  0.87758228  0.39802739  0.27221270  1  0  -0.082256  0  3.74767  0  0  -0.104921  0  3.997061  0  0  -0.10597  0  4.016212  0  0  -0.084959  -0.103904  0  3.98403  0
C  C72  1  0.64369883  0.52222028  0.80597581  1  0  -0.07602  0  3.738919  0  0  -0.097411  0  3.988177  0  0  -0.097998  0  4.00778  0  0  -0.085255  -0.096758  0  3.974958  0
C  C73  1  0.12111305  0.47772418  0.69404498  1  0  -0.075047  0  3.737526  0  0  -0.096171  0  3.986706  0  0  -0.096818  0  4.006232  0  0  -0.084836  -0.095513  0  3.973533  0
C  C74  1  0.35630037  0.47777979  0.19402502  1  0  -0.075918  0  3.738872  0  0  -0.097327  0  3.988127  0  0  -0.097922  0  4.007726  0  0  -0.085209  -0.096675  0  3.974906  0
C  C75  1  0.87888616  0.52227590  0.30595526  1  0  -0.074976  0  3.737466  0  0  -0.0961  0  3.986658  0  0  -0.096746  0  4.006182  0  0  -0.08483  -0.095444  0  3.973483  0
C  C76  1  0.82794087  0.71542654  0.93097170  1  0  0.684797  0  3.880192  0  0  0.639932  0  4.173602  0  0  0.676824  0  4.164238  0  0  0.229544  0.61479  0  4.179025  0
C  C77  1  0.11249887  0.28465274  0.56903049  1  0  0.684804  0  3.881562  0  0  0.640297  0  4.174672  0  0  0.677164  0  4.165298  0  0  0.229795  0.615184  0  4.180111  0
C  C78  1  0.17205731  0.28457150  0.06902807  1  0  0.684879  0  3.880173  0  0  0.64  0  4.173595  0  0  0.676893  0  4.164229  0  0  0.229543  0.614861  0  4.179019  0
C  C79  1  0.88750126  0.71534733  0.43096974  1  0  0.684732  0  3.881642  0  0  0.640222  0  4.174758  0  0  0.67709  0  4.165385  0  0  0.229739  0.615109  0  4.180199  0
C  C80  1  0.31713131  0.19647192  0.79053589  1  0  0.686173  0  3.883092  0  0  0.642942  0  4.174667  0  0  0.679948  0  4.16552  0  0  0.229524  0.617613  0  4.179964  0
C  C81  1  0.12044036  0.80349942  0.70947906  1  0  0.689315  0  3.881258  0  0  0.645477  0  4.173541  0  0  0.68254  0  4.164281  0  0  0.229812  0.62013  0  4.178888  0
C  C82  1  0.68286976  0.80352816  0.20946374  1  0  0.68614  0  3.883197  0  0  0.642904  0  4.174779  0  0  0.679912  0  4.165632  0  0  0.229482  0.617575  0  4.18008  0
C  C83  1  0.87955884  0.19650065  0.29052118  1  0  0.689318  0  3.881249  0  0  0.645483  0  4.173534  0  0  0.682546  0  4.164273  0  0  0.229809  0.620136  0  4.178883  0
C  C84  1  0.37085607  0.99276612  0.01868246  1  0  -0.064205  0  3.75337  0  0  -0.042302  0  3.9828  0  0  -0.049093  0  4.00431  0  0  -0.01285  -0.038188  0  3.968606  0
C  C85  1  0.37812302  0.00725474  0.48129940  1  0  -0.063056  0  3.753611  0  0  -0.041891  0  3.983855  0  0  -0.048597  0  4.005266  0  0  -0.012835  -0.037835  0  3.969733  0
C  C86  1  0.62914406  0.00723395  0.98131778  1  0  -0.064222  0  3.753405  0  0  -0.042325  0  3.982837  0  0  -0.049117  0  4.004347  0  0  -0.012861  -0.038208  0  3.968642  0
C  C87  1  0.62187854  0.99274635  0.51870167  1  0  -0.062974  0  3.753514  0  0  -0.041858  0  3.983795  0  0  -0.048564  0  4.005206  0  0  -0.012808  -0.037797  0  3.969671  0
C  C88  1  0.41728380  0.01651929  0.94411058  1  0  -0.062357  0  3.711208  0  0  -0.085056  0  3.958607  0  0  -0.085827  0  3.978034  0  0  -0.075853  -0.084344  0  3.945701  0
C  C89  1  0.40065662  0.98332343  0.55582243  1  0  -0.061847  0  3.71375  0  0  -0.084086  0  3.960521  0  0  -0.0848  0  3.979985  0  0  -0.075661  -0.083411  0  3.947576  0
C  C90  1  0.58271633  0.98348079  0.05588906  1  0  -0.062367  0  3.711212  0  0  -0.085063  0  3.958621  0  0  -0.085832  0  3.978045  0  0  -0.075857  -0.084354  0  3.945715  0
C  C91  1  0.59934402  0.01667767  0.44417804  1  0  -0.061816  0  3.713657  0  0  -0.084044  0  3.960443  0  0  -0.084758  0  3.979908  0  0  -0.075638  -0.083371  0  3.9475  0
C  C92  1  0.54606410  0.02395003  0.92585912  1  0  -0.079284  0  3.735051  0  0  -0.09971  0  3.980514  0  0  -0.101079  0  4.000728  0  0  -0.084538  -0.098682  0  3.966828  0
C  C93  1  0.52195739  0.97584678  0.57408312  1  0  -0.080465  0  3.738483  0  0  -0.100489  0  3.983687  0  0  -0.101883  0  4.00387  0  0  -0.084712  -0.099436  0  3.970015  0
C  C94  1  0.45393603  0.97605004  0.07414112  1  0  -0.079256  0  3.735063  0  0  -0.099687  0  3.980528  0  0  -0.101057  0  4.000741  0  0  -0.08452  -0.098663  0  3.966846  0
C  C95  1  0.47804325  0.02415431  0.42591735  1  0  -0.080411  0  3.738521  0  0  -0.100444  0  3.983701  0  0  -0.101837  0  4.003884  0  0  -0.084685  -0.099393  0  3.970031  0
C  C96  1  0.23488287  0.98812387  0.04085785  1  0  0.682821  0  3.876019  0  0  0.637092  0  4.163641  0  0  0.674133  0  4.154822  0  0  0.230303  0.612177  0  4.168035  0
C  C97  1  0.24674940  0.01182810  0.45911329  1  0  0.68268  0  3.876403  0  0  0.636726  0  4.164584  0  0  0.673744  0  4.155738  0  0  0.230213  0.611829  0  4.169006  0
C  C98  1  0.76511634  0.01187621  0.95914239  1  0  0.682804  0  3.875961  0  0  0.637081  0  4.163575  0  0  0.674125  0  4.154756  0  0  0.230267  0.612166  0  4.167968  0
C  C99  1  0.75325166  0.98817197  0.54088694  1  0  0.682614  0  3.876506  0  0  0.6367  0  4.164655  0  0  0.673719  0  4.155809  0  0  0.230216  0.6118  0  4.169081  0
C  C100  1  0.04842604  0.78082627  0.19308961  1  0  0.752721  0  3.863645  0  0  0.683056  0  4.172019  0  0  0.719962  0  4.165324  0  0  0.348448  0.657775  0  4.176032  0
C  C101  1  0.26746326  0.21895647  0.30676984  1  0  0.753965  0  3.864421  0  0  0.686379  0  4.169989  0  0  0.723348  0  4.163171  0  0  0.349976  0.661036  0  4.174083  0
C  C102  1  0.95157409  0.21917381  0.80691003  1  0  0.752619  0  3.863716  0  0  0.682939  0  4.172119  0  0  0.719844  0  4.165427  0  0  0.348413  0.65765  0  4.17613  0
C  C103  1  0.73253636  0.78104259  0.69323016  1  0  0.753951  0  3.864361  0  0  0.686358  0  4.169937  0  0  0.72333  0  4.163114  0  0  0.349922  0.661009  0  4.174029  0
C  C104  1  0.10280609  0.62058694  0.10436055  1  0  0.043771  0  3.618313  0  0  -0.016529  0  3.893805  0  0  -0.012818  0  3.905298  0  0  -0.052317  -0.018896  0  3.885626  0
C  C105  1  0.48192676  0.37944060  0.39554682  1  0  0.046232  0  3.614985  0  0  -0.015573  0  3.892333  0  0  -0.011882  0  3.903838  0  0  -0.05166  -0.017927  0  3.884157  0
C  C106  1  0.89719455  0.37941415  0.89563932  1  0  0.043721  0  3.61825  0  0  -0.016576  0  3.89373  0  0  -0.012867  0  3.905224  0  0  -0.052311  -0.018944  0  3.885558  0
C  C107  1  0.51807338  0.62055948  0.60445282  1  0  0.046268  0  3.614986  0  0  -0.015526  0  3.892317  0  0  -0.011837  0  3.90382  0  0  -0.05165  -0.017881  0  3.884143  0
C  C108  1  0.19188169  0.68385869  0.19543738  1  0  0.045117  0  3.622673  0  0  -0.015201  0  3.888622  0  0  -0.011259  0  3.901007  0  0  -0.049874  -0.017532  0  3.879883  0
C  C109  1  0.50793593  0.31628527  0.30448745  1  0  0.042797  0  3.623214  0  0  -0.016562  0  3.889144  0  0  -0.012625  0  3.901518  0  0  -0.050689  -0.018919  0  3.880418  0
C  C110  1  0.80811794  0.31614037  0.80456202  1  0  0.045135  0  3.622658  0  0  -0.015167  0  3.88858  0  0  -0.011225  0  3.900967  0  0  -0.049871  -0.017509  0  3.879846  0
C  C111  1  0.49206513  0.68371481  0.69551218  1  0  0.042818  0  3.623289  0  0  -0.016544  0  3.88921  0  0  -0.012598  0  3.901577  0  0  -0.050669  -0.018905  0  3.880481  0
N  N112  1  0.99737147  0.66773004  0.11937562  1  0  -0.499526  0  3.153457  0  0  -0.446615  0  3.409806  0  0  -0.46618  0  3.411272  0  0  -0.435531  -0.43325  0  3.408795  0
N  N113  1  0.32931945  0.33207543  0.38046797  1  0  -0.500154  0  3.156007  0  0  -0.44738  0  3.411246  0  0  -0.466986  0  3.412744  0  0  -0.435733  -0.434018  0  3.410261  0
N  N114  1  0.00262867  0.33227004  0.88062401  1  0  -0.499451  0  3.153485  0  0  -0.446528  0  3.409828  0  0  -0.466094  0  3.411298  0  0  -0.435513  -0.433163  0  3.408819  0
N  N115  1  0.67068017  0.66792363  0.61953203  1  0  -0.500134  0  3.155968  0  0  -0.447352  0  3.411233  0  0  -0.466959  0  3.412729  0  0  -0.435707  -0.433994  0  3.410252  0
N  N116  1  0.16376252  0.79654362  0.23646783  1  0  -0.471864  0  3.230822  0  0  -0.411907  0  3.481207  0  0  -0.4319  0  3.483969  0  0  -0.422165  -0.398437  0  3.479337  0
N  N117  1  0.36720772  0.20345087  0.26342452  1  0  -0.471331  0  3.230567  0  0  -0.412127  0  3.480853  0  0  -0.432284  0  3.483732  0  0  -0.422322  -0.398496  0  3.478876  0
N  N118  1  0.83623618  0.20345544  0.76353217  1  0  -0.471828  0  3.230791  0  0  -0.41186  0  3.481159  0  0  -0.431848  0  3.48391  0  0  -0.422155  -0.398367  0  3.479275  0
N  N119  1  0.63279148  0.79654921  0.73657512  1  0  -0.471364  0  3.230615  0  0  -0.412156  0  3.4809  0  0  -0.432316  0  3.483774  0  0  -0.422339  -0.398505  0  3.478904  0
O  O120  1  0.86317582  0.78411725  0.88232235  1  0  -0.681862  0  2.055347  0  0  -0.638523  0  2.314492  0  0  -0.672337  0  2.305785  0  0  -0.381457  -0.614552  0  2.319817  0
O  O121  1  0.07927459  0.21599358  0.61769672  1  0  -0.681877  0  2.055775  0  0  -0.638715  0  2.314948  0  0  -0.672481  0  2.30615  0  0  -0.381471  -0.614766  0  2.320317  0
O  O122  1  0.13682523  0.21588282  0.11767909  1  0  -0.681851  0  2.055376  0  0  -0.638504  0  2.314514  0  0  -0.672322  0  2.305812  0  0  -0.381446  -0.614537  0  2.319841  0
O  O123  1  0.92072410  0.78400548  0.38230328  1  0  -0.681859  0  2.055809  0  0  -0.638689  0  2.314973  0  0  -0.672455  0  2.306176  0  0  -0.381464  -0.61474  0  2.320343  0
O  O124  1  0.88625132  0.75953122  0.00966550  1  0  -0.706738  0  2.007562  0  0  -0.658755  0  2.257899  0  0  -0.690962  0  2.247822  0  0  -0.362886  -0.635545  0  2.263662  0
O  O125  1  0.12654851  0.24052695  0.49030482  1  0  -0.706662  0  2.007711  0  0  -0.659366  0  2.258466  0  0  -0.691603  0  2.248458  0  0  -0.362935  -0.636144  0  2.264197  0
O  O126  1  0.11374780  0.24046683  0.99033427  1  0  -0.706783  0  2.007548  0  0  -0.658788  0  2.257881  0  0  -0.690995  0  2.2478  0  0  -0.362879  -0.635575  0  2.26364  0
O  O127  1  0.87344875  0.75947109  0.50969494  1  0  -0.706625  0  2.007772  0  0  -0.659316  0  2.258512  0  0  -0.691551  0  2.248496  0  0  -0.362895  -0.636088  0  2.264225  0
O  O128  1  0.25966894  0.13724808  0.84266494  1  0  -0.703879  0  2.042901  0  0  -0.66132  0  2.305245  0  0  -0.695501  0  2.295059  0  0  -0.387722  -0.636407  0  2.311396  0
O  O129  1  0.12223180  0.86269827  0.65733211  1  0  -0.705078  0  2.041713  0  0  -0.662489  0  2.304667  0  0  -0.696714  0  2.294473  0  0  -0.388171  -0.637575  0  2.310863  0
O  O130  1  0.74033119  0.86275200  0.15733470  1  0  -0.703895  0  2.042916  0  0  -0.661334  0  2.30526  0  0  -0.695517  0  2.295078  0  0  -0.387724  -0.63642  0  2.311412  0
O  O131  1  0.87776926  0.13730181  0.34266813  1  0  -0.705096  0  2.041694  0  0  -0.662497  0  2.304623  0  0  -0.696722  0  2.294431  0  0  -0.388163  -0.637584  0  2.310818  0
O  O132  1  0.26343884  0.15838068  0.71249339  1  0  -0.674812  0  2.020315  0  0  -0.633626  0  2.272735  0  0  -0.666442  0  2.263015  0  0  -0.37554  -0.609912  0  2.278413  0
O  O133  1  0.10474466  0.84154770  0.78750412  1  0  -0.675809  0  2.0202  0  0  -0.634481  0  2.272992  0  0  -0.667313  0  2.263262  0  0  -0.375425  -0.610764  0  2.278671  0
O  O134  1  0.73656222  0.84161941  0.28750564  1  0  -0.674761  0  2.020385  0  0  -0.63358  0  2.272809  0  0  -0.666393  0  2.263089  0  0  -0.375494  -0.609868  0  2.27849  0
O  O135  1  0.89525496  0.15845135  0.21249589  1  0  -0.675802  0  2.020193  0  0  -0.634488  0  2.273001  0  0  -0.667317  0  2.263267  0  0  -0.375428  -0.610768  0  2.278681  0
O  O136  1  0.15433971  0.99427519  0.98837166  1  0  -0.725937  0  2.098384  0  0  -0.67415  0  2.364712  0  0  -0.711628  0  2.355228  0  0  -0.392546  -0.647013  0  2.3704  0
O  O137  1  0.16008122  0.00571666  0.51163745  1  0  -0.72643  0  2.098224  0  0  -0.674618  0  2.36497  0  0  -0.712121  0  2.355486  0  0  -0.392492  -0.647464  0  2.370651  0
O  O138  1  0.84566042  0.00572489  0.01162858  1  0  -0.72593  0  2.098345  0  0  -0.674136  0  2.364647  0  0  -0.711614  0  2.355163  0  0  -0.392549  -0.647  0  2.370334  0
O  O139  1  0.83991934  0.99428240  0.48836195  1  0  -0.726382  0  2.098294  0  0  -0.674582  0  2.365033  0  0  -0.71208  0  2.355534  0  0  -0.392474  -0.647429  0  2.370716  0
O  O140  1  0.20402283  0.98057706  0.11369643  1  0  -0.680412  0  2.028739  0  0  -0.630669  0  2.272595  0  0  -0.661225  0  2.263689  0  0  -0.354373  -0.608537  0  2.277367  0
O  O141  1  0.22334756  0.01925036  0.38623786  1  0  -0.680477  0  2.0291  0  0  -0.630668  0  2.273165  0  0  -0.661229  0  2.26426  0  0  -0.354298  -0.608529  0  2.27795  0
O  O142  1  0.79597586  0.01942200  0.88630358  1  0  -0.68042  0  2.028722  0  0  -0.630674  0  2.272567  0  0  -0.661233  0  2.263662  0  0  -0.354341  -0.608542  0  2.277341  0
O  O143  1  0.77665350  0.98074971  0.61376238  1  0  -0.680493  0  2.029128  0  0  -0.630694  0  2.273194  0  0  -0.661259  0  2.264289  0  0  -0.354316  -0.608554  0  2.277979  0
O  O144  1  0.99304479  0.85797914  0.21640117  1  0  -0.744543  0  2.054076  0  0  -0.691414  0  2.321775  0  0  -0.726887  0  2.313278  0  0  -0.383147  -0.665646  0  2.326601  0
O  O145  1  0.13495958  0.14157441  0.28345378  1  0  -0.745071  0  2.05498  0  0  -0.693191  0  2.322886  0  0  -0.72858  0  2.314113  0  0  -0.384014  -0.667472  0  2.3279  0
O  O146  1  0.00695441  0.14202093  0.78359907  1  0  -0.744492  0  2.054082  0  0  -0.691372  0  2.321817  0  0  -0.726844  0  2.31332  0  0  -0.383135  -0.665608  0  2.326646  0
O  O147  1  0.86503953  0.85842363  0.71654598  1  0  -0.74507  0  2.054957  0  0  -0.693181  0  2.32286  0  0  -0.72857  0  2.314086  0  0  -0.38401  -0.667465  0  2.327877  0
