# generated using pymatgen
data_AgH12C7(NO)5
_symmetry_space_group_name_H-M   'P 1'
_cell_length_a   7.90953346
_cell_length_b   10.67480625
_cell_length_c   12.60066067
_cell_angle_alpha   89.99987142
_cell_angle_beta   89.99984668
_cell_angle_gamma   89.99993090
_symmetry_Int_Tables_number   1
_chemical_formula_structural   AgH12C7(NO)5
_chemical_formula_sum   'Ag4 H48 C28 N20 O20'
_cell_volume   1063.90827081
_cell_formula_units_Z   4
loop_
 _symmetry_equiv_pos_site_id
 _symmetry_equiv_pos_as_xyz
  1  'x, y, z'
loop_
 _atom_site_type_symbol
 _atom_site_label
 _atom_site_symmetry_multiplicity
 _atom_site_fract_x
 _atom_site_fract_y
 _atom_site_fract_z
 _atom_site_occupancy
 _atom_site_hle17_bader_spin_density
 _atom_site_hle17_ddec_charge
 _atom_site_hle17_ddec_spin_density
 _atom_site_hle17_ddec_sum_bond_order
 _atom_site_hle17_magmom
 _atom_site_hse06_10hf_bader_spin_density
 _atom_site_hse06_10hf_ddec_charge
 _atom_site_hse06_10hf_ddec_spin_density
 _atom_site_hse06_10hf_ddec_sum_bond_order
 _atom_site_hse06_10hf_magmom
 _atom_site_hse06_bader_spin_density
 _atom_site_hse06_ddec_charge
 _atom_site_hse06_ddec_spin_density
 _atom_site_hse06_ddec_sum_bond_order
 _atom_site_hse06_magmom
 _atom_site_pbe_bader_spin_density
 _atom_site_pbe_cm5_charge
 _atom_site_pbe_ddec_charge
 _atom_site_pbe_ddec_spin_density
 _atom_site_pbe_ddec_sum_bond_order
 _atom_site_pbe_magmom
Ag  Ag0  1  0.46028052  0.79305128  0.63767177  1  0  0.547356  0  1.272338  0  0  0.400415  0  1.676156  0  0  0.432995  0  1.630699  0  0  0.450912  0.378625  0  1.707093  0
Ag  Ag1  1  0.03971743  0.20694969  0.13767350  1  0  0.547278  0  1.272321  0  0  0.400423  0  1.676075  0  0  0.433004  0  1.63062  0  0  0.450898  0.378628  0  1.707012  0
Ag  Ag2  1  0.96028159  0.70695056  0.36232952  1  0  0.547277  0  1.272383  0  0  0.400407  0  1.676142  0  0  0.432987  0  1.630686  0  0  0.450909  0.378614  0  1.70708  0
Ag  Ag3  1  0.53971750  0.29305124  0.86232786  1  0  0.547337  0  1.272303  0  0  0.400415  0  1.676105  0  0  0.432996  0  1.630652  0  0  0.450904  0.378623  0  1.707043  0
H  H4  1  0.00717743  0.11835459  0.53950096  1  0  0.096705  0  0.947251  0  0  0.102677  0  1.022471  0  0  0.104621  0  1.020558  0  0  0.109388  0.101246  0  1.023886  0
H  H5  1  0.49282346  0.88164664  0.03950144  1  0  0.09672  0  0.947225  0  0  0.102669  0  1.022462  0  0  0.104607  0  1.020567  0  0  0.109392  0.101247  0  1.02386  0
H  H6  1  0.50717780  0.38164543  0.46049887  1  0  0.096729  0  0.947242  0  0  0.102689  0  1.022474  0  0  0.104634  0  1.020562  0  0  0.109391  0.10126  0  1.023888  0
H  H7  1  0.99282213  0.61835611  0.96049821  1  0  0.096732  0  0.947234  0  0  0.102683  0  1.022456  0  0  0.104621  0  1.020558  0  0  0.109392  0.101255  0  1.023864  0
H  H8  1  0.03603476  0.26728928  0.60210545  1  0  0.093816  0  0.923836  0  0  0.103869  0  0.991707  0  0  0.105457  0  0.990159  0  0  0.110545  0.102745  0  0.992872  0
H  H9  1  0.46396713  0.73271085  0.10210388  1  0  0.093812  0  0.923835  0  0  0.103858  0  0.991698  0  0  0.105446  0  0.99015  0  0  0.110543  0.102735  0  0.992863  0
H  H10  1  0.53603564  0.23271165  0.39789513  1  0  0.093829  0  0.923833  0  0  0.103864  0  0.99172  0  0  0.105453  0  0.990171  0  0  0.110541  0.102741  0  0.992882  0
H  H11  1  0.96396583  0.76729099  0.89789424  1  0  0.093817  0  0.923841  0  0  0.10386  0  0.991709  0  0  0.105449  0  0.990159  0  0  0.110536  0.102735  0  0.992874  0
H  H12  1  0.15425070  0.92477166  0.77203073  1  0  0.090097  0  0.937046  0  0  0.100496  0  1.007325  0  0  0.102298  0  1.005049  0  0  0.109341  0.099227  0  1.008973  0
H  H13  1  0.34575047  0.07522614  0.27203220  1  0  0.090057  0  0.937041  0  0  0.100439  0  1.007321  0  0  0.102239  0  1.005042  0  0  0.109315  0.099169  0  1.008974  0
H  H14  1  0.65425129  0.57522858  0.22796870  1  0  0.090066  0  0.93707  0  0  0.100471  0  1.007344  0  0  0.102274  0  1.005066  0  0  0.109333  0.099203  0  1.008991  0
H  H15  1  0.84574963  0.42477358  0.72796706  1  0  0.090052  0  0.937032  0  0  0.100432  0  1.007321  0  0  0.102233  0  1.005043  0  0  0.109309  0.099163  0  1.008973  0
H  H16  1  0.07861062  0.91718954  0.63873065  1  0  0.102402  0  0.929953  0  0  0.113247  0  0.997  0  0  0.114081  0  0.997152  0  0  0.113051  0.112574  0  0.997025  0
H  H17  1  0.42139112  0.08280862  0.13873277  1  0  0.102454  0  0.929906  0  0  0.113265  0  0.996955  0  0  0.114101  0  0.997104  0  0  0.113064  0.112593  0  0.996982  0
H  H18  1  0.57860937  0.58280984  0.36126891  1  0  0.102429  0  0.929897  0  0  0.113282  0  0.996938  0  0  0.114119  0  0.997085  0  0  0.113054  0.112611  0  0.996963  0
H  H19  1  0.92139225  0.41719103  0.86126875  1  0  0.102445  0  0.9299  0  0  0.113269  0  0.996937  0  0  0.114105  0  0.997086  0  0  0.113061  0.112597  0  0.996962  0
H  H20  1  0.14156270  0.27926766  0.78875508  1  0  0.097461  0  0.923892  0  0  0.107941  0  0.991842  0  0  0.108603  0  0.992307  0  0  0.114096  0.107454  0  0.991646  0
H  H21  1  0.35843713  0.72073010  0.28875689  1  0  0.097461  0  0.923867  0  0  0.107972  0  0.991795  0  0  0.108633  0  0.992262  0  0  0.114096  0.107486  0  0.991596  0
H  H22  1  0.64156313  0.22073224  0.21124452  1  0  0.097462  0  0.923902  0  0  0.107936  0  0.991864  0  0  0.108598  0  0.992328  0  0  0.1141  0.107449  0  0.991667  0
H  H23  1  0.85843660  0.77926996  0.71124220  1  0  0.097493  0  0.923816  0  0  0.107961  0  0.99178  0  0  0.108623  0  0.992246  0  0  0.114086  0.107475  0  0.991577  0
H  H24  1  0.18891690  0.14078634  0.86255686  1  0  0.092776  0  0.925909  0  0  0.104634  0  0.992737  0  0  0.105475  0  0.992625  0  0  0.111995  0.103944  0  0.993004  0
H  H25  1  0.31108388  0.85921123  0.36255848  1  0  0.092771  0  0.925945  0  0  0.104631  0  0.992778  0  0  0.105473  0  0.992666  0  0  0.112  0.103943  0  0.993046  0
H  H26  1  0.68891868  0.35921352  0.13744267  1  0  0.092775  0  0.925902  0  0  0.104633  0  0.992739  0  0  0.105474  0  0.992628  0  0  0.111994  0.103944  0  0.993008  0
H  H27  1  0.81108262  0.64078888  0.63744148  1  0  0.0928  0  0.92595  0  0  0.104646  0  0.992779  0  0  0.105488  0  0.992665  0  0  0.111995  0.103957  0  0.993049  0
H  H28  1  0.31731164  0.34114337  0.64146736  1  0  0.087738  0  0.92446  0  0  0.098622  0  0.991566  0  0  0.09939  0  0.990335  0  0  0.120709  0.098072  0  0.992551  0
H  H29  1  0.18268756  0.65885572  0.14146879  1  0  0.087736  0  0.924454  0  0  0.098608  0  0.991581  0  0  0.099379  0  0.990344  0  0  0.120704  0.098059  0  0.992563  0
H  H30  1  0.81731154  0.15885731  0.35853274  1  0  0.087741  0  0.924466  0  0  0.098626  0  0.991566  0  0  0.099392  0  0.99034  0  0  0.120708  0.098074  0  0.992551  0
H  H31  1  0.68268757  0.84114450  0.85853059  1  0  0.087744  0  0.924426  0  0  0.09861  0  0.991552  0  0  0.099377  0  0.99033  0  0  0.120702  0.09806  0  0.992535  0
H  H32  1  0.49695576  0.24617487  0.60728020  1  0  0.083177  0  0.911979  0  0  0.097657  0  0.975022  0  0  0.097995  0  0.974503  0  0  0.123619  0.097337  0  0.975505  0
H  H33  1  0.00304612  0.75382525  0.10728254  1  0  0.083199  0  0.911997  0  0  0.097681  0  0.97503  0  0  0.098019  0  0.974512  0  0  0.123604  0.097361  0  0.97551  0
H  H34  1  0.99695536  0.25382472  0.39271880  1  0  0.083195  0  0.911995  0  0  0.097673  0  0.975027  0  0  0.098012  0  0.974508  0  0  0.123615  0.097354  0  0.975507  0
H  H35  1  0.50304486  0.74617607  0.89271793  1  0  0.083203  0  0.912008  0  0  0.097682  0  0.975044  0  0  0.098022  0  0.974524  0  0  0.123606  0.097361  0  0.975525  0
H  H36  1  0.56016297  0.06189315  0.70260866  1  0  0.087076  0  0.958675  0  0  0.094475  0  1.034376  0  0  0.095515  0  1.032522  0  0  0.119554  0.093706  0  1.035801  0
H  H37  1  0.93983806  0.93810439  0.20260992  1  0  0.087058  0  0.958697  0  0  0.094457  0  1.034413  0  0  0.095496  0  1.03256  0  0  0.119568  0.093684  0  1.035836  0
H  H38  1  0.06016312  0.43810683  0.29739029  1  0  0.087074  0  0.958694  0  0  0.094478  0  1.034404  0  0  0.095518  0  1.032551  0  0  0.119581  0.093709  0  1.035828  0
H  H39  1  0.43983668  0.56189653  0.79738983  1  0  0.08708  0  0.958675  0  0  0.09446  0  1.034401  0  0  0.095499  0  1.032547  0  0  0.119585  0.093687  0  1.035822  0
H  H40  1  0.42742171  0.01118770  0.80897309  1  0  0.081993  0  0.92195  0  0  0.097199  0  0.985607  0  0  0.097677  0  0.984651  0  0  0.119323  0.096785  0  0.986349  0
H  H41  1  0.07257804  0.98881001  0.30897566  1  0  0.081942  0  0.921952  0  0  0.097161  0  0.98561  0  0  0.097635  0  0.984666  0  0  0.119318  0.096755  0  0.986337  0
H  H42  1  0.92742179  0.48881195  0.19102604  1  0  0.081952  0  0.922  0  0  0.097175  0  0.985651  0  0  0.097652  0  0.984697  0  0  0.119313  0.096763  0  0.986385  0
H  H43  1  0.57257803  0.51119031  0.69102470  1  0  0.081977  0  0.921938  0  0  0.097177  0  0.985595  0  0  0.097653  0  0.984644  0  0  0.119326  0.096771  0  0.986321  0
H  H44  1  0.45784001  0.04951195  0.52092225  1  0  0.07997  0  0.93493  0  0  0.090038  0  1.005199  0  0  0.091072  0  1.00363  0  0  0.117361  0.089235  0  1.006446  0
H  H45  1  0.04216096  0.95048746  0.02092495  1  0  0.080014  0  0.934926  0  0  0.090076  0  1.005187  0  0  0.09111  0  1.003619  0  0  0.117361  0.08927  0  1.006433  0
H  H46  1  0.95783893  0.45048955  0.47907682  1  0  0.079968  0  0.934947  0  0  0.090037  0  1.005218  0  0  0.09107  0  1.00365  0  0  0.117372  0.089235  0  1.006465  0
H  H47  1  0.54215966  0.54951288  0.97907546  1  0  0.080021  0  0.934904  0  0  0.090092  0  1.005157  0  0  0.091127  0  1.00359  0  0  0.117382  0.089288  0  1.006403  0
H  H48  1  0.24628953  0.99299992  0.49681089  1  0  0.078846  0  0.920843  0  0  0.092509  0  0.986656  0  0  0.093215  0  0.985261  0  0  0.118636  0.091914  0  0.987832  0
H  H49  1  0.25371069  0.00700010  0.99681259  1  0  0.078854  0  0.920861  0  0  0.092516  0  0.986663  0  0  0.093223  0  0.985267  0  0  0.118637  0.091925  0  0.987832  0
H  H50  1  0.74628906  0.50700024  0.50318917  1  0  0.078843  0  0.920826  0  0  0.092501  0  0.986649  0  0  0.093207  0  0.985253  0  0  0.118635  0.091913  0  0.98782  0
H  H51  1  0.75371156  0.49300252  0.00318683  1  0  0.07891  0  0.920828  0  0  0.092576  0  0.98663  0  0  0.093284  0  0.985235  0  0  0.118654  0.091992  0  0.987792  0
C  C52  1  0.07970223  0.10573678  0.70491446  1  0  0.079025  0  3.504648  0  0  0.080412  0  3.747791  0  0  0.07989  0  3.76201  0  0  0.076662  0.080755  0  3.738392  0
C  C53  1  0.42029923  0.89426214  0.20491583  1  0  0.078984  0  3.504681  0  0  0.080354  0  3.74778  0  0  0.079831  0  3.761997  0  0  0.07667  0.080698  0  3.738386  0
C  C54  1  0.57970328  0.39426318  0.29508605  1  0  0.078971  0  3.504757  0  0  0.080529  0  3.747599  0  0  0.080011  0  3.761813  0  0  0.07667  0.080871  0  3.738204  0
C  C55  1  0.92029735  0.60573787  0.79508474  1  0  0.079071  0  3.504621  0  0  0.080522  0  3.747575  0  0  0.080007  0  3.761779  0  0  0.076674  0.080863  0  3.738184  0
C  C56  1  0.08500613  0.17145802  0.59577011  1  0  -0.083545  0  3.628561  0  0  -0.14193  0  3.883349  0  0  -0.138957  0  3.894099  0  0  -0.070602  -0.143955  0  3.875931  0
C  C57  1  0.41499452  0.82854213  0.09577083  1  0  -0.08356  0  3.628491  0  0  -0.141853  0  3.883136  0  0  -0.138883  0  3.893882  0  0  -0.070614  -0.143887  0  3.875736  0
C  C58  1  0.58500683  0.32854287  0.40422959  1  0  -0.083578  0  3.628591  0  0  -0.141989  0  3.883384  0  0  -0.139019  0  3.894136  0  0  -0.070605  -0.144015  0  3.875974  0
C  C59  1  0.91499334  0.67145976  0.90422816  1  0  -0.083599  0  3.628506  0  0  -0.14196  0  3.883248  0  0  -0.138989  0  3.893994  0  0  -0.070617  -0.143991  0  3.875842  0
C  C60  1  0.15305227  0.97272018  0.69516488  1  0  -0.088287  0  3.616924  0  0  -0.152763  0  3.869827  0  0  -0.14982  0  3.882251  0  0  -0.076339  -0.154647  0  3.861295  0
C  C61  1  0.34694923  0.02727783  0.19516723  1  0  -0.08826  0  3.616828  0  0  -0.152648  0  3.869677  0  0  -0.149699  0  3.882093  0  0  -0.076285  -0.15454  0  3.861158  0
C  C62  1  0.65305135  0.52728007  0.30483455  1  0  -0.088301  0  3.61692  0  0  -0.152789  0  3.86974  0  0  -0.149847  0  3.882162  0  0  -0.076347  -0.15467  0  3.861206  0
C  C63  1  0.84694798  0.47272189  0.80483283  1  0  -0.088285  0  3.616856  0  0  -0.152689  0  3.869669  0  0  -0.149744  0  3.882087  0  0  -0.076297  -0.154577  0  3.861144  0
C  C64  1  0.18942908  0.18297082  0.78311337  1  0  -0.07246  0  3.587447  0  0  -0.132313  0  3.835771  0  0  -0.129618  0  3.849138  0  0  -0.065089  -0.134297  0  3.826827  0
C  C65  1  0.31057205  0.81702696  0.28311507  1  0  -0.072441  0  3.587418  0  0  -0.132341  0  3.835769  0  0  -0.129648  0  3.849136  0  0  -0.065099  -0.134324  0  3.826827  0
C  C66  1  0.68942932  0.31702905  0.21688695  1  0  -0.072455  0  3.587461  0  0  -0.132334  0  3.835751  0  0  -0.12964  0  3.849116  0  0  -0.065089  -0.134317  0  3.826809  0
C  C67  1  0.81057038  0.68297314  0.71688489  1  0  -0.072585  0  3.587529  0  0  -0.13241  0  3.835759  0  0  -0.12972  0  3.849126  0  0  -0.065107  -0.134391  0  3.826817  0
C  C68  1  0.36521847  0.24506387  0.63469951  1  0  0.067213  0  3.607542  0  0  -0.003982  0  3.871048  0  0  0.004779  0  3.880704  0  0  0.018941  -0.00998  0  3.864046  0
C  C69  1  0.13478328  0.75493524  0.13470084  1  0  0.06719  0  3.60756  0  0  -0.004018  0  3.871097  0  0  0.004748  0  3.880737  0  0  0.018941  -0.010017  0  3.864093  0
C  C70  1  0.86521945  0.25493584  0.36530130  1  0  0.067189  0  3.607545  0  0  -0.004003  0  3.871069  0  0  0.004762  0  3.880711  0  0  0.018945  -0.009999  0  3.864066  0
C  C71  1  0.63478215  0.74506596  0.86529942  1  0  0.067177  0  3.607519  0  0  -0.004034  0  3.871077  0  0  0.004731  0  3.880712  0  0  0.018934  -0.010032  0  3.864073  0
C  C72  1  0.42978734  0.05686263  0.73106601  1  0  0.052064  0  3.6111  0  0  -0.026253  0  3.874095  0  0  -0.017474  0  3.884526  0  0  0.006075  -0.032249  0  3.866824  0
C  C73  1  0.07021401  0.94313528  0.23106788  1  0  0.052147  0  3.610923  0  0  -0.026206  0  3.873989  0  0  -0.017429  0  3.884418  0  0  0.006046  -0.032197  0  3.866713  0
C  C74  1  0.92978589  0.44313795  0.26893231  1  0  0.052099  0  3.611042  0  0  -0.026228  0  3.874042  0  0  -0.017451  0  3.884474  0  0  0.006064  -0.032224  0  3.866771  0
C  C75  1  0.57021359  0.55686504  0.76893248  1  0  0.052066  0  3.610941  0  0  -0.026232  0  3.873932  0  0  -0.017454  0  3.884361  0  0  0.006003  -0.032219  0  3.866655  0
C  C76  1  0.32729749  0.04741919  0.55042796  1  0  0.067003  0  3.620143  0  0  -0.007035  0  3.885502  0  0  0.001987  0  3.894259  0  0  0.014514  -0.013313  0  3.879503  0
C  C77  1  0.17270336  0.95258014  0.05042964  1  0  0.06682  0  3.620287  0  0  -0.007172  0  3.885589  0  0  0.001849  0  3.894346  0  0  0.014499  -0.013445  0  3.879575  0
C  C78  1  0.82729652  0.45258149  0.44957133  1  0  0.067029  0  3.620098  0  0  -0.007008  0  3.885467  0  0  0.002014  0  3.894225  0  0  0.014534  -0.013292  0  3.879472  0
C  C79  1  0.67270219  0.54741821  0.94957135  1  0  0.066808  0  3.620205  0  0  -0.007227  0  3.885568  0  0  0.001789  0  3.894332  0  0  0.014457  -0.013506  0  3.879559  0
N  N80  1  0.28874874  0.60290946  0.49200434  1  0  0.683119  0  4.165748  0  0  0.714637  0  4.457102  0  0  0.74324  0  4.46449  0  0  0.087122  0.695404  0  4.451449  0
N  N81  1  0.21124896  0.39708964  0.99200378  1  0  0.6831  0  4.165797  0  0  0.714617  0  4.457178  0  0  0.743219  0  4.464563  0  0  0.087089  0.695384  0  4.451521  0
N  N82  1  0.78874762  0.89708879  0.50799566  1  0  0.683128  0  4.165739  0  0  0.714675  0  4.457069  0  0  0.743278  0  4.464455  0  0  0.087108  0.695442  0  4.451417  0
N  N83  1  0.71124918  0.10290927  0.00799571  1  0  0.683182  0  4.16569  0  0  0.714628  0  4.45715  0  0  0.743231  0  4.464535  0  0  0.08709  0.695396  0  4.451496  0
N  N84  1  0.90372925  0.10100465  0.74815119  1  0  0.517148  0  3.799079  0  0  0.535177  0  4.112337  0  0  0.557722  0  4.117594  0  0  0.051896  0.519551  0  4.109592  0
N  N85  1  0.59627032  0.89899558  0.24815389  1  0  0.517047  0  3.799149  0  0  0.535137  0  4.112327  0  0  0.557684  0  4.117583  0  0  0.051911  0.519509  0  4.109585  0
N  N86  1  0.40372965  0.39899595  0.25184877  1  0  0.517087  0  3.799218  0  0  0.535117  0  4.112424  0  0  0.557661  0  4.117681  0  0  0.051872  0.519495  0  4.109675  0
N  N87  1  0.09626781  0.60100378  0.75184564  1  0  0.51704  0  3.798958  0  0  0.535104  0  4.11214  0  0  0.557646  0  4.117398  0  0  0.051888  0.519474  0  4.1094  0
N  N88  1  0.26154127  0.17461496  0.55942028  1  0  -0.227433  0  3.152314  0  0  -0.164407  0  3.418727  0  0  -0.180492  0  3.436632  0  0  -0.341554  -0.152285  0  3.405237  0
N  N89  1  0.23846080  0.82538435  0.05942209  1  0  -0.227355  0  3.152336  0  0  -0.164357  0  3.418735  0  0  -0.180442  0  3.43664  0  0  -0.341507  -0.152238  0  3.405246  0
N  N90  1  0.76154055  0.32538578  0.44057912  1  0  -0.227435  0  3.15232  0  0  -0.16442  0  3.418752  0  0  -0.180505  0  3.436658  0  0  -0.341563  -0.152298  0  3.405265  0
N  N91  1  0.73845946  0.67461676  0.94057799  1  0  -0.227335  0  3.152232  0  0  -0.164323  0  3.418625  0  0  -0.180406  0  3.436531  0  0  -0.341481  -0.152202  0  3.405137  0
N  N92  1  0.32890722  0.98162617  0.65518110  1  0  -0.234873  0  3.243692  0  0  -0.129341  0  3.489429  0  0  -0.149709  0  3.508513  0  0  -0.352271  -0.115089  0  3.475772  0
N  N93  1  0.17109318  0.01837289  0.15518297  1  0  -0.234782  0  3.243573  0  0  -0.129304  0  3.489328  0  0  -0.149672  0  3.508408  0  0  -0.352291  -0.115056  0  3.47567  0
N  N94  1  0.82890741  0.51837392  0.34481803  1  0  -0.234836  0  3.243623  0  0  -0.129318  0  3.489392  0  0  -0.149686  0  3.508475  0  0  -0.352272  -0.115067  0  3.475737  0
N  N95  1  0.67109175  0.48162699  0.84481817  1  0  -0.234816  0  3.243633  0  0  -0.129326  0  3.489368  0  0  -0.149692  0  3.508449  0  0  -0.352267  -0.115076  0  3.475714  0
N  N96  1  0.36376688  0.18592729  0.74209394  1  0  -0.227392  0  3.227676  0  0  -0.129215  0  3.47419  0  0  -0.150285  0  3.49448  0  0  -0.344734  -0.113947  0  3.459276  0
N  N97  1  0.13623442  0.81407060  0.24209594  1  0  -0.227458  0  3.227644  0  0  -0.129261  0  3.474151  0  0  -0.150327  0  3.494435  0  0  -0.344735  -0.113993  0  3.459236  0
N  N98  1  0.86376822  0.31407148  0.25790609  1  0  -0.227392  0  3.227607  0  0  -0.129233  0  3.474171  0  0  -0.150299  0  3.494452  0  0  -0.344742  -0.113968  0  3.459259  0
N  N99  1  0.63623257  0.68592966  0.75790510  1  0  -0.227376  0  3.227658  0  0  -0.129206  0  3.474139  0  0  -0.150274  0  3.494435  0  0  -0.344698  -0.113938  0  3.459224  0
O  O100  1  0.81069339  0.19238717  0.73068939  1  0  -0.363027  0  1.799426  0  0  -0.334414  0  2.034975  0  0  -0.3453  0  2.02743  0  0  -0.116911  -0.328565  0  2.04105  0
O  O101  1  0.68930373  0.80760561  0.23069449  1  0  -0.362987  0  1.7993  0  0  -0.334434  0  2.034882  0  0  -0.345313  0  2.027317  0  0  -0.116975  -0.32859  0  2.040963  0
O  O102  1  0.31069513  0.30761071  0.26931152  1  0  -0.363059  0  1.799487  0  0  -0.33444  0  2.035017  0  0  -0.34533  0  2.027483  0  0  -0.116934  -0.328587  0  2.04109  0
O  O103  1  0.18930732  0.69239273  0.76930805  1  0  -0.363015  0  1.799146  0  0  -0.334411  0  2.034704  0  0  -0.345287  0  2.027131  0  0  -0.116966  -0.328564  0  2.040787  0
O  O104  1  0.86188983  0.00792469  0.80122075  1  0  -0.361709  0  1.764992  0  0  -0.340057  0  1.987314  0  0  -0.351302  0  1.983709  0  0  -0.126089  -0.333931  0  1.990705  0
O  O105  1  0.63810825  0.99207165  0.30122161  1  0  -0.361553  0  1.765007  0  0  -0.340007  0  1.987422  0  0  -0.351253  0  1.983816  0  0  -0.126059  -0.333873  0  1.990802  0
O  O106  1  0.36189031  0.49207314  0.19878087  1  0  -0.361563  0  1.764989  0  0  -0.340012  0  1.987399  0  0  -0.351259  0  1.983794  0  0  -0.126053  -0.333903  0  1.990806  0
O  O107  1  0.13810612  0.50792954  0.69877784  1  0  -0.361565  0  1.76509  0  0  -0.340034  0  1.987494  0  0  -0.351278  0  1.983889  0  0  -0.126047  -0.333906  0  1.990896  0
O  O108  1  0.43436154  0.59688393  0.53543290  1  0  -0.47582  0  1.819795  0  0  -0.448292  0  2.059034  0  0  -0.46647  0  2.050228  0  0  -0.201959  -0.435469  0  2.064771  0
O  O109  1  0.06563684  0.40311918  0.03543342  1  0  -0.475731  0  1.819793  0  0  -0.448313  0  2.059138  0  0  -0.466492  0  2.050337  0  0  -0.201959  -0.435489  0  2.064869  0
O  O110  1  0.93436186  0.90311700  0.46456765  1  0  -0.475722  0  1.819727  0  0  -0.448308  0  2.059058  0  0  -0.466489  0  2.050257  0  0  -0.201951  -0.435484  0  2.064793  0
O  O111  1  0.56563679  0.09688173  0.96456552  1  0  -0.475841  0  1.819814  0  0  -0.448282  0  2.059066  0  0  -0.466462  0  2.050266  0  0  -0.201951  -0.435459  0  2.0648  0
O  O112  1  0.19555982  0.69804938  0.50918041  1  0  -0.486034  0  1.79923  0  0  -0.468455  0  2.048613  0  0  -0.485914  0  2.038645  0  0  -0.20458  -0.456195  0  2.055315  0
O  O113  1  0.30443615  0.30194819  0.00917913  1  0  -0.485988  0  1.799171  0  0  -0.46841  0  2.048578  0  0  -0.485867  0  2.038611  0  0  -0.204535  -0.456148  0  2.055275  0
O  O114  1  0.69556019  0.80194989  0.49081974  1  0  -0.486035  0  1.799199  0  0  -0.468434  0  2.048564  0  0  -0.485892  0  2.038595  0  0  -0.204561  -0.456175  0  2.055268  0
O  O115  1  0.80443961  0.19804782  0.99081940  1  0  -0.486041  0  1.799163  0  0  -0.468455  0  2.048595  0  0  -0.485912  0  2.038626  0  0  -0.204552  -0.456196  0  2.055295  0
O  O116  1  0.24018476  0.51573421  0.43192190  1  0  -0.464432  0  1.770883  0  0  -0.455527  0  1.996486  0  0  -0.470655  0  1.990855  0  0  -0.193602  -0.444632  0  2.000112  0
O  O117  1  0.25981699  0.48426505  0.93192109  1  0  -0.464511  0  1.770922  0  0  -0.455561  0  1.996508  0  0  -0.470691  0  1.990876  0  0  -0.193616  -0.44467  0  2.000134  0
O  O118  1  0.74018071  0.98426502  0.56807818  1  0  -0.464491  0  1.770904  0  0  -0.455562  0  1.996487  0  0  -0.47069  0  1.990854  0  0  -0.193611  -0.44467  0  2.000116  0
O  O119  1  0.75981330  0.01573288  0.06807911  1  0  -0.464461  0  1.770842  0  0  -0.455542  0  1.996476  0  0  -0.47067  0  1.990845  0  0  -0.193602  -0.444651  0  2.000103  0
