# generated using pymatgen
data_Cu3H6C9I2N3O2
_symmetry_space_group_name_H-M   'P 1'
_cell_length_a   9.79678387
_cell_length_b   10.83752374
_cell_length_c   13.02531873
_cell_angle_alpha   94.88238820
_cell_angle_beta   90.00013752
_cell_angle_gamma   90.00020988
_symmetry_Int_Tables_number   1
_chemical_formula_structural   Cu3H6C9I2N3O2
_chemical_formula_sum   'Cu12 H24 C36 I8 N12 O8'
_cell_volume   1377.91759809
_cell_formula_units_Z   4
loop_
 _symmetry_equiv_pos_site_id
 _symmetry_equiv_pos_as_xyz
  1  'x, y, z'
loop_
 _atom_site_type_symbol
 _atom_site_label
 _atom_site_symmetry_multiplicity
 _atom_site_fract_x
 _atom_site_fract_y
 _atom_site_fract_z
 _atom_site_occupancy
 _atom_site_hle17_bader_spin_density
 _atom_site_hle17_ddec_charge
 _atom_site_hle17_ddec_spin_density
 _atom_site_hle17_ddec_sum_bond_order
 _atom_site_hle17_magmom
 _atom_site_hse06_10hf_bader_spin_density
 _atom_site_hse06_10hf_ddec_charge
 _atom_site_hse06_10hf_ddec_spin_density
 _atom_site_hse06_10hf_ddec_sum_bond_order
 _atom_site_hse06_10hf_magmom
 _atom_site_hse06_bader_spin_density
 _atom_site_hse06_ddec_charge
 _atom_site_hse06_ddec_spin_density
 _atom_site_hse06_ddec_sum_bond_order
 _atom_site_hse06_magmom
 _atom_site_pbe_bader_spin_density
 _atom_site_pbe_cm5_charge
 _atom_site_pbe_ddec_charge
 _atom_site_pbe_ddec_spin_density
 _atom_site_pbe_ddec_sum_bond_order
 _atom_site_pbe_magmom
Cu  Cu0  1  0.32215250  0.52618474  0.53570990  1  0  0.281046  0  2.193218  0  0  0.193839  0  2.682187  0  0  0.200589  0  2.628535  0  0  0.359502  0.191211  0  2.719216  0
Cu  Cu1  1  0.82215900  0.47381509  0.96428510  1  0  0.281027  0  2.193313  0  0  0.193762  0  2.682311  0  0  0.200531  0  2.628661  0  0  0.35945  0.191136  0  2.719341  0
Cu  Cu2  1  0.67784146  0.47381342  0.46428318  1  0  0.281115  0  2.193236  0  0  0.193815  0  2.682227  0  0  0.200589  0  2.628575  0  0  0.359442  0.19118  0  2.719266  0
Cu  Cu3  1  0.17784620  0.52618304  0.03571334  1  0  0.281071  0  2.193238  0  0  0.193825  0  2.682218  0  0  0.200602  0  2.628574  0  0  0.359488  0.191197  0  2.719246  0
Cu  Cu4  1  0.06223365  0.61377181  0.50381520  1  0  0.238798  0  2.211289  0  0  0.193492  0  2.660597  0  0  0.207931  0  2.596996  0  0  0.218306  0.185086  0  2.702779  0
Cu  Cu5  1  0.56223888  0.38622615  0.99618225  1  0  0.238811  0  2.211255  0  0  0.193492  0  2.660581  0  0  0.207909  0  2.596969  0  0  0.218319  0.185096  0  2.702763  0
Cu  Cu6  1  0.93775929  0.38622447  0.49618311  1  0  0.238809  0  2.211273  0  0  0.193495  0  2.660605  0  0  0.207937  0  2.596992  0  0  0.218331  0.18509  0  2.702785  0
Cu  Cu7  1  0.43776223  0.61377752  0.00382045  1  0  0.238781  0  2.211292  0  0  0.193472  0  2.660616  0  0  0.207881  0  2.596997  0  0  0.218324  0.185075  0  2.702798  0
Cu  Cu8  1  0.10217427  0.48235254  0.64493058  1  0  0.31584  0  2.011509  0  0  0.226744  0  2.49132  0  0  0.253706  0  2.418611  0  0  0.230632  0.209338  0  2.541566  0
Cu  Cu9  1  0.60218162  0.51765200  0.85507358  1  0  0.315772  0  2.011566  0  0  0.22667  0  2.491381  0  0  0.253663  0  2.418672  0  0  0.230609  0.20926  0  2.541637  0
Cu  Cu10  1  0.89781765  0.51764468  0.35506626  1  0  0.315797  0  2.011531  0  0  0.226669  0  2.491353  0  0  0.253633  0  2.418644  0  0  0.230616  0.209285  0  2.541559  0
Cu  Cu11  1  0.39782460  0.48235258  0.14493072  1  0  0.31583  0  2.011507  0  0  0.226742  0  2.491319  0  0  0.253725  0  2.418618  0  0  0.23063  0.209339  0  2.541563  0
H  H12  1  0.12193777  0.17423718  0.30150965  1  0  0.101968  0  0.990498  0  0  0.111624  0  1.057352  0  0  0.114208  0  1.05653  0  0  0.090814  0.109189  0  1.058977  0
H  H13  1  0.62192850  0.82576097  0.19848152  1  0  0.10191  0  0.990464  0  0  0.111628  0  1.057271  0  0  0.114211  0  1.056451  0  0  0.090798  0.109193  0  1.058896  0
H  H14  1  0.87807150  0.82576000  0.69849256  1  0  0.101907  0  0.990487  0  0  0.111597  0  1.05734  0  0  0.114177  0  1.056517  0  0  0.090787  0.109162  0  1.058966  0
H  H15  1  0.37806240  0.17423994  0.80151713  1  0  0.101981  0  0.990439  0  0  0.111679  0  1.057238  0  0  0.114265  0  1.056419  0  0  0.090819  0.109243  0  1.058864  0
H  H16  1  0.11590082  0.98570751  0.39836499  1  0  0.102162  0  0.936056  0  0  0.11463  0  0.990978  0  0  0.117888  0  0.988661  0  0  0.106397  0.11194  0  0.993365  0
H  H17  1  0.61588904  0.01429153  0.10162701  1  0  0.102155  0  0.93596  0  0  0.114615  0  0.990901  0  0  0.117869  0  0.988589  0  0  0.106438  0.111925  0  0.993287  0
H  H18  1  0.88410744  0.01428690  0.60163472  1  0  0.102136  0  0.936115  0  0  0.114634  0  0.991  0  0  0.117891  0  0.988685  0  0  0.106392  0.111943  0  0.993386  0
H  H19  1  0.38410288  0.98571030  0.89837171  1  0  0.102149  0  0.935954  0  0  0.114654  0  0.990843  0  0  0.117911  0  0.988527  0  0  0.106446  0.111965  0  0.993229  0
H  H20  1  0.88045607  0.79521342  0.15580267  1  0  0.103608  0  0.956529  0  0  0.112578  0  1.020151  0  0  0.115494  0  1.01864  0  0  0.096982  0.109836  0  1.022597  0
H  H21  1  0.38045641  0.20478285  0.34419344  1  0  0.103636  0  0.956597  0  0  0.112621  0  1.020187  0  0  0.115537  0  1.018678  0  0  0.096989  0.109883  0  1.022631  0
H  H22  1  0.11954708  0.20478655  0.84419668  1  0  0.103577  0  0.956614  0  0  0.112549  0  1.020228  0  0  0.115465  0  1.018722  0  0  0.096971  0.109834  0  1.022647  0
H  H23  1  0.61953755  0.79521805  0.65580675  1  0  0.103611  0  0.956581  0  0  0.112596  0  1.020172  0  0  0.115511  0  1.018662  0  0  0.096985  0.109861  0  1.022613  0
H  H24  1  0.88780258  0.98287933  0.05665947  1  0  0.103408  0  0.947502  0  0  0.114395  0  1.007454  0  0  0.117446  0  1.006322  0  0  0.104988  0.112012  0  1.008776  0
H  H25  1  0.38779738  0.01711420  0.44333491  1  0  0.103363  0  0.947485  0  0  0.114342  0  1.007447  0  0  0.117392  0  1.006317  0  0  0.104949  0.111957  0  1.008773  0
H  H26  1  0.11220568  0.01711973  0.94333904  1  0  0.103394  0  0.947516  0  0  0.114386  0  1.00747  0  0  0.117437  0  1.006339  0  0  0.104978  0.112002  0  1.008793  0
H  H27  1  0.61219863  0.98288760  0.55666919  1  0  0.103327  0  0.947598  0  0  0.114291  0  1.007563  0  0  0.117341  0  1.006433  0  0  0.104938  0.111907  0  1.008888  0
H  H28  1  0.80097867  0.20645219  0.05838300  1  0  0.123691  0  0.938773  0  0  0.129293  0  1.006847  0  0  0.133388  0  1.00157  0  0  0.139432  0.126193  0  1.011005  0
H  H29  1  0.30097757  0.79354474  0.44160994  1  0  0.123685  0  0.938753  0  0  0.129252  0  1.006858  0  0  0.133347  0  1.001581  0  0  0.139399  0.126167  0  1.010999  0
H  H30  1  0.19902755  0.79354410  0.94161377  1  0  0.123705  0  0.938797  0  0  0.129328  0  1.006858  0  0  0.133421  0  1.001584  0  0  0.13944  0.126245  0  1.010998  0
H  H31  1  0.69901844  0.20645339  0.55838851  1  0  0.123679  0  0.938743  0  0  0.129281  0  1.006807  0  0  0.133376  0  1.001531  0  0  0.139404  0.126161  0  1.010991  0
H  H32  1  0.21132218  0.27343760  0.15525679  1  0  0.120173  0  0.977071  0  0  0.126441  0  1.041336  0  0  0.129944  0  1.037518  0  0  0.135277  0.123969  0  1.044068  0
H  H33  1  0.71132420  0.72656450  0.34474636  1  0  0.120206  0  0.976998  0  0  0.12647  0  1.04129  0  0  0.129974  0  1.037469  0  0  0.135292  0.124004  0  1.044027  0
H  H34  1  0.78867893  0.72656697  0.84474905  1  0  0.120259  0  0.977062  0  0  0.126503  0  1.041368  0  0  0.130006  0  1.037549  0  0  0.135289  0.124026  0  1.044098  0
H  H35  1  0.28867590  0.27344470  0.65525983  1  0  0.120253  0  0.976914  0  0  0.126438  0  1.041293  0  0  0.12994  0  1.037475  0  0  0.135251  0.123966  0  1.044025  0
C  C36  1  0.00677104  0.08843691  0.17325675  1  0  0.183235  0  3.784537  0  0  0.17489  0  4.031835  0  0  0.18218  0  4.053123  0  0  0.09082  0.169883  0  4.01709  0
C  C37  1  0.50677067  0.91156265  0.32673969  1  0  0.18318  0  3.784541  0  0  0.174865  0  4.031747  0  0  0.18216  0  4.053036  0  0  0.090842  0.169863  0  4.016998  0
C  C38  1  0.99323620  0.91156676  0.82674518  1  0  0.183005  0  3.784683  0  0  0.174826  0  4.031795  0  0  0.182119  0  4.053082  0  0  0.090753  0.169824  0  4.01705  0
C  C39  1  0.49322840  0.08843826  0.67325896  1  0  0.183178  0  3.784426  0  0  0.174701  0  4.031855  0  0  0.181992  0  4.053147  0  0  0.090789  0.169698  0  4.017107  0
C  C40  1  0.07227738  0.08995823  0.26864622  1  0  -0.140363  0  3.738272  0  0  -0.159808  0  3.988038  0  0  -0.164788  0  4.008616  0  0  -0.091592  -0.156249  0  3.974877  0
C  C41  1  0.57227059  0.91003881  0.23134478  1  0  -0.140321  0  3.7382  0  0  -0.159818  0  3.987914  0  0  -0.164794  0  4.008476  0  0  -0.091591  -0.156267  0  3.974765  0
C  C42  1  0.92772884  0.91003896  0.73135369  1  0  -0.140091  0  3.738005  0  0  -0.159649  0  3.987767  0  0  -0.164627  0  4.008341  0  0  -0.091516  -0.156095  0  3.974608  0
C  C43  1  0.42772134  0.08995933  0.76865290  1  0  -0.14044  0  3.738044  0  0  -0.159874  0  3.987812  0  0  -0.164852  0  4.008376  0  0  -0.091654  -0.156322  0  3.974664  0
C  C44  1  0.06757464  0.98523669  0.32303666  1  0  -0.038717  0  3.719447  0  0  -0.061704  0  3.962226  0  0  -0.059393  0  3.98079  0  0  -0.078581  -0.063231  0  3.950573  0
C  C45  1  0.56756718  0.01476772  0.17695872  1  0  -0.038682  0  3.71959  0  0  -0.061685  0  3.96241  0  0  -0.059373  0  3.980974  0  0  -0.078628  -0.063213  0  3.950756  0
C  C46  1  0.93243260  0.01476328  0.67696346  1  0  -0.038813  0  3.719556  0  0  -0.061811  0  3.962373  0  0  -0.059501  0  3.980936  0  0  -0.078594  -0.063339  0  3.950722  0
C  C47  1  0.43242679  0.98523226  0.82304063  1  0  -0.038669  0  3.71951  0  0  -0.061705  0  3.962297  0  0  -0.059394  0  3.980861  0  0  -0.078629  -0.063235  0  3.950643  0
C  C48  1  0.99751322  0.87909515  0.28314509  1  0  -0.067923  0  3.761233  0  0  -0.04368  0  3.990035  0  0  -0.052915  0  4.013115  0  0  -0.021711  -0.038125  0  3.974743  0
C  C49  1  0.49751181  0.12090341  0.21684910  1  0  -0.067952  0  3.761385  0  0  -0.04373  0  3.990208  0  0  -0.052958  0  4.01328  0  0  -0.021761  -0.038172  0  3.974919  0
C  C50  1  0.00248585  0.12090114  0.71685245  1  0  -0.067842  0  3.761198  0  0  -0.043625  0  3.990014  0  0  -0.05285  0  4.013094  0  0  -0.021718  -0.038066  0  3.974729  0
C  C51  1  0.50248318  0.87909750  0.78315032  1  0  -0.067951  0  3.761201  0  0  -0.043707  0  3.99001  0  0  -0.052938  0  4.013084  0  0  -0.021747  -0.038149  0  3.974725  0
C  C52  1  0.93288880  0.87889825  0.18696002  1  0  -0.041933  0  3.723612  0  0  -0.066064  0  3.97304  0  0  -0.064401  0  3.993268  0  0  -0.082572  -0.067062  0  3.960551  0
C  C53  1  0.43288973  0.12109912  0.31303857  1  0  -0.042087  0  3.723693  0  0  -0.06621  0  3.973081  0  0  -0.064552  0  3.993311  0  0  -0.082606  -0.067215  0  3.960594  0
C  C54  1  0.06711639  0.12110171  0.81304240  1  0  -0.041977  0  3.723536  0  0  -0.066079  0  3.972944  0  0  -0.06442  0  3.99317  0  0  -0.08253  -0.067101  0  3.960449  0
C  C55  1  0.56710730  0.87890272  0.68696016  1  0  -0.042009  0  3.723525  0  0  -0.066152  0  3.972929  0  0  -0.064488  0  3.993148  0  0  -0.08257  -0.06716  0  3.960442  0
C  C56  1  0.93728016  0.98307717  0.13164328  1  0  -0.158036  0  3.74928  0  0  -0.179916  0  4.009856  0  0  -0.185188  0  4.029853  0  0  -0.095073  -0.176704  0  3.997136  0
C  C57  1  0.43727983  0.01691840  0.36834981  1  0  -0.157856  0  3.749346  0  0  -0.179726  0  4.00985  0  0  -0.185001  0  4.02985  0  0  -0.094986  -0.17651  0  3.99712  0
C  C58  1  0.06272606  0.01692095  0.86835747  1  0  -0.157878  0  3.749491  0  0  -0.179825  0  4.010022  0  0  -0.185099  0  4.030022  0  0  -0.095058  -0.176609  0  3.997296  0
C  C59  1  0.56271618  0.98308344  0.63164892  1  0  -0.157845  0  3.749534  0  0  -0.179649  0  4.010073  0  0  -0.184921  0  4.030072  0  0  -0.094986  -0.176438  0  3.997354  0
C  C60  1  0.90164037  0.24766200  0.06894225  1  0  0.163351  0  3.602492  0  0  0.100342  0  3.872785  0  0  0.11346  0  3.882743  0  0  0.15318  0.09187  0  3.866039  0
C  C61  1  0.40163908  0.75233712  0.43105411  1  0  0.16325  0  3.602462  0  0  0.100342  0  3.87267  0  0  0.113463  0  3.882625  0  0  0.153239  0.091859  0  3.865915  0
C  C62  1  0.09836686  0.75233612  0.93105773  1  0  0.163278  0  3.602356  0  0  0.10028  0  3.872651  0  0  0.113397  0  3.882614  0  0  0.153166  0.091791  0  3.865899  0
C  C63  1  0.59835795  0.24766284  0.56894678  1  0  0.163425  0  3.602449  0  0  0.100466  0  3.872657  0  0  0.113584  0  3.882623  0  0  0.153263  0.092011  0  3.865924  0
C  C64  1  0.11102801  0.28361556  0.12122398  1  0  0.156605  0  3.598177  0  0  0.096399  0  3.862918  0  0  0.109207  0  3.872878  0  0  0.150534  0.088276  0  3.855913  0
C  C65  1  0.61102805  0.71638619  0.37877589  1  0  0.156687  0  3.598235  0  0  0.096389  0  3.863014  0  0  0.109206  0  3.872983  0  0  0.15054  0.088255  0  3.856014  0
C  C66  1  0.88897515  0.71638716  0.87878019  1  0  0.156444  0  3.598424  0  0  0.096267  0  3.863146  0  0  0.109067  0  3.873102  0  0  0.150492  0.088151  0  3.856134  0
C  C67  1  0.38897306  0.28361933  0.62122618  1  0  0.156633  0  3.59816  0  0  0.096506  0  3.862874  0  0  0.109304  0  3.872831  0  0  0.150594  0.088385  0  3.855867  0
C  C68  1  0.99118754  0.76682119  0.34225227  1  0  0.629164  0  3.872733  0  0  0.576967  0  4.158786  0  0  0.61346  0  4.152762  0  0  0.198274  0.552074  0  4.162557  0
C  C69  1  0.49119048  0.23317918  0.15774511  1  0  0.629167  0  3.872739  0  0  0.577004  0  4.158767  0  0  0.613495  0  4.152746  0  0  0.198306  0.552111  0  4.162537  0
C  C70  1  0.00881153  0.23317694  0.65774617  1  0  0.629076  0  3.872701  0  0  0.576905  0  4.158743  0  0  0.613393  0  4.152728  0  0  0.198272  0.55201  0  4.162511  0
C  C71  1  0.50880757  0.76682357  0.84225522  1  0  0.629165  0  3.872669  0  0  0.576983  0  4.158733  0  0  0.613474  0  4.152711  0  0  0.198261  0.55209  0  4.162501  0
I  I72  1  0.83460151  0.57768250  0.61432768  1  0  -0.273046  0  1.86869  0  0  -0.237996  0  2.343389  0  0  -0.249213  0  2.293365  0  0  -0.115709  -0.230884  0  2.37986  0
I  I73  1  0.33460489  0.42232014  0.88567062  1  0  -0.27304  0  1.868656  0  0  -0.238001  0  2.343383  0  0  -0.249202  0  2.29333  0  0  -0.115693  -0.230889  0  2.379858  0
I  I74  1  0.16539245  0.42231286  0.38567055  1  0  -0.273027  0  1.868643  0  0  -0.238008  0  2.343383  0  0  -0.249219  0  2.293349  0  0  -0.115701  -0.230896  0  2.37985  0
I  I75  1  0.66539826  0.57768169  0.11432887  1  0  -0.273016  0  1.868697  0  0  -0.237956  0  2.343385  0  0  -0.249164  0  2.293343  0  0  -0.115682  -0.23085  0  2.37986  0
I  I76  1  0.22293477  0.68769994  0.67705281  1  0  -0.304746  0  1.691909  0  0  -0.260595  0  2.124054  0  0  -0.281706  0  2.08997  0  0  -0.157225  -0.243592  0  2.147405  0
I  I77  1  0.72293610  0.31230138  0.82294366  1  0  -0.304713  0  1.691929  0  0  -0.260555  0  2.124082  0  0  -0.281679  0  2.090005  0  0  -0.157216  -0.243554  0  2.147431  0
I  I78  1  0.77706226  0.31229448  0.32294613  1  0  -0.30471  0  1.691948  0  0  -0.260548  0  2.124111  0  0  -0.281658  0  2.090014  0  0  -0.157199  -0.243548  0  2.147459  0
I  I79  1  0.27706400  0.68770045  0.17705583  1  0  -0.304771  0  1.691938  0  0  -0.260629  0  2.124118  0  0  -0.281746  0  2.090036  0  0  -0.157243  -0.24363  0  2.14747  0
N  N80  1  0.00800627  0.19812224  0.12023660  1  0  -0.12398  0  3.591602  0  0  -0.033449  0  3.806613  0  0  -0.050484  0  3.829911  0  0  -0.219522  -0.021743  0  3.789794  0
N  N81  1  0.50800768  0.80187640  0.37975824  1  0  -0.123932  0  3.591572  0  0  -0.033405  0  3.806537  0  0  -0.050444  0  3.829848  0  0  -0.219552  -0.021698  0  3.78972  0
N  N82  1  0.99199790  0.80187957  0.87976520  1  0  -0.124019  0  3.591692  0  0  -0.033528  0  3.806656  0  0  -0.05056  0  3.829944  0  0  -0.219521  -0.021823  0  3.789844  0
N  N83  1  0.49199139  0.19812636  0.62024132  1  0  -0.124192  0  3.591667  0  0  -0.033597  0  3.806618  0  0  -0.050639  0  3.829934  0  0  -0.219602  -0.02189  0  3.789797  0
N  N84  1  0.07091802  0.37905286  0.07227854  1  0  -0.178318  0  3.240865  0  0  -0.125198  0  3.560304  0  0  -0.133043  0  3.56298  0  0  -0.269588  -0.121139  0  3.560254  0
N  N85  1  0.57091477  0.62094783  0.42771964  1  0  -0.178585  0  3.241081  0  0  -0.12533  0  3.56044  0  0  -0.133201  0  3.563138  0  0  -0.269599  -0.121263  0  3.560391  0
N  N86  1  0.92908514  0.62094710  0.92772311  1  0  -0.178187  0  3.240845  0  0  -0.125092  0  3.560339  0  0  -0.132913  0  3.563  0  0  -0.269565  -0.121034  0  3.560287  0
N  N87  1  0.42908328  0.37905493  0.57227839  1  0  -0.178305  0  3.240914  0  0  -0.125272  0  3.560451  0  0  -0.133076  0  3.563085  0  0  -0.269595  -0.121208  0  3.560404  0
N  N88  1  0.93836382  0.35622369  0.03927002  1  0  -0.179003  0  3.224365  0  0  -0.12636  0  3.536324  0  0  -0.134196  0  3.540171  0  0  -0.268764  -0.122761  0  3.535736  0
N  N89  1  0.43836116  0.64377650  0.46072572  1  0  -0.178815  0  3.224383  0  0  -0.12629  0  3.536367  0  0  -0.134112  0  3.540215  0  0  -0.268797  -0.122694  0  3.535784  0
N  N90  1  0.06164138  0.64377536  0.96073003  1  0  -0.17892  0  3.224237  0  0  -0.12634  0  3.536287  0  0  -0.13419  0  3.540145  0  0  -0.268764  -0.122734  0  3.535698  0
N  N91  1  0.56163484  0.35622258  0.53926972  1  0  -0.178951  0  3.224334  0  0  -0.126327  0  3.536337  0  0  -0.134174  0  3.540183  0  0  -0.268745  -0.12273  0  3.535749  0
O  O92  1  0.90993412  0.68082035  0.30639947  1  0  -0.562697  0  2.207341  0  0  -0.483641  0  2.487382  0  0  -0.513508  0  2.47062  0  0  -0.341147  -0.464211  0  2.500401  0
O  O93  1  0.40993547  0.31917787  0.19359760  1  0  -0.562615  0  2.207256  0  0  -0.483639  0  2.487357  0  0  -0.513509  0  2.470608  0  0  -0.34116  -0.464203  0  2.500373  0
O  O94  1  0.09006597  0.31917779  0.69359820  1  0  -0.562617  0  2.207282  0  0  -0.483611  0  2.487368  0  0  -0.513475  0  2.470611  0  0  -0.341162  -0.464174  0  2.500385  0
O  O95  1  0.59006462  0.68082579  0.80640510  1  0  -0.562588  0  2.207272  0  0  -0.483582  0  2.487361  0  0  -0.513456  0  2.470617  0  0  -0.341104  -0.464142  0  2.500368  0
O  O96  1  0.06351996  0.76442376  0.42321962  1  0  -0.554346  0  2.138207  0  0  -0.493167  0  2.40687  0  0  -0.520035  0  2.392283  0  0  -0.333639  -0.475134  0  2.41625  0
O  O97  1  0.56351715  0.23557599  0.07677771  1  0  -0.554335  0  2.138307  0  0  -0.493158  0  2.406956  0  0  -0.520022  0  2.392363  0  0  -0.333616  -0.475125  0  2.416332  0
O  O98  1  0.93647809  0.23557436  0.57678036  1  0  -0.554312  0  2.138194  0  0  -0.493137  0  2.406857  0  0  -0.520004  0  2.392274  0  0  -0.333619  -0.475099  0  2.416228  0
O  O99  1  0.43647681  0.76442306  0.92322234  1  0  -0.554313  0  2.138211  0  0  -0.493149  0  2.406887  0  0  -0.520015  0  2.39229  0  0  -0.333598  -0.475119  0  2.416266  0
