# generated using pymatgen
data_CuH10C6N3ClO2
_symmetry_space_group_name_H-M   'P 1'
_cell_length_a   3.95291830
_cell_length_b   9.07750264
_cell_length_c   24.88874154
_cell_angle_alpha   90.00019788
_cell_angle_beta   90.00012517
_cell_angle_gamma   90.00055008
_symmetry_Int_Tables_number   1
_chemical_formula_structural   CuH10C6N3ClO2
_chemical_formula_sum   'Cu4 H40 C24 N12 Cl4 O8'
_cell_volume   893.07341125
_cell_formula_units_Z   4
loop_
 _symmetry_equiv_pos_site_id
 _symmetry_equiv_pos_as_xyz
  1  'x, y, z'
loop_
 _atom_site_type_symbol
 _atom_site_label
 _atom_site_symmetry_multiplicity
 _atom_site_fract_x
 _atom_site_fract_y
 _atom_site_fract_z
 _atom_site_occupancy
 _atom_site_hle17_ddec_charge
 _atom_site_hle17_ddec_spin_density
 _atom_site_hle17_ddec_sum_bond_order
 _atom_site_hle17_magmom
 _atom_site_hse06_10hf_ddec_charge
 _atom_site_hse06_10hf_ddec_spin_density
 _atom_site_hse06_10hf_ddec_sum_bond_order
 _atom_site_hse06_10hf_magmom
 _atom_site_hse06_ddec_charge
 _atom_site_hse06_ddec_spin_density
 _atom_site_hse06_ddec_sum_bond_order
 _atom_site_hse06_magmom
 _atom_site_pbe_cm5_charge
 _atom_site_pbe_ddec_charge
 _atom_site_pbe_ddec_spin_density
 _atom_site_pbe_ddec_sum_bond_order
 _atom_site_pbe_magmom
Cu  Cu0  1  0.92928418  0.50075801  0.10305912  1  0.781698  0.650838  1.870723  0.481  0.761527  0.748609  2.278279  0.597  0.854409  0.811907  2.202037  0.68  0.639786  0.707035  0.707269  2.327631  0.547
Cu  Cu1  1  0.92929334  0.00075515  0.39694229  1  0.781823  0.650842  1.870657  0.481  0.761668  0.748608  2.278214  0.597  0.854574  0.811898  2.201928  0.68  0.639824  0.707164  0.707266  2.327555  0.547
Cu  Cu2  1  0.07070669  0.50075527  0.60305774  1  0.781755  0.65083  1.870638  0.481  0.761545  0.7486  2.278205  0.597  0.854446  0.81191  2.201961  0.68  0.63978  0.70707  0.70726  2.327561  0.547
Cu  Cu3  1  0.07070067  0.00076122  0.89694331  1  0.781733  0.650831  1.870702  0.481  0.761568  0.748607  2.278279  0.597  0.85446  0.811902  2.201999  0.68  0.639799  0.707062  0.707267  2.327628  0.547
H  H4  1  0.61762429  0.82570464  0.09814621  1  0.100916  0.000106  0.961053  0.0  0.107424  0.000277  1.03103  0.0  0.110742  0.000166  1.026513  0.0  0.135062  0.104779  0.000375  1.034609  0.0
H  H5  1  0.61763099  0.32570402  0.40185470  1  0.100893  0.000107  0.961094  0.0  0.107427  0.000277  1.031036  0.0  0.110744  0.000166  1.026521  0.0  0.135061  0.104782  0.000375  1.034611  0.0
H  H6  1  0.38236857  0.82570652  0.59814413  1  0.100888  0.000105  0.961123  0.0  0.107426  0.000277  1.031062  0.0  0.110744  0.000166  1.026547  0.0  0.135062  0.104783  0.000375  1.034634  0.0
H  H7  1  0.38236262  0.32570810  0.90185463  1  0.100921  0.000106  0.961114  0.0  0.10743  0.000277  1.031087  0.0  0.110749  0.000166  1.026569  0.0  0.135074  0.104783  0.000375  1.034664  0.0
H  H8  1  0.21175303  0.61599248  0.21597036  1  0.097612  -0.00014  0.990574  0.0  0.107495  9e-05  1.052426  0.0  0.109979  5.6e-05  1.051046  0.0  0.10655  0.105761  0.000128  1.053231  0.0
H  H9  1  0.21177584  0.11598854  0.28403376  1  0.097571  -0.000139  0.990484  0.0  0.107453  9e-05  1.052352  0.0  0.10994  5.6e-05  1.050958  0.0  0.106532  0.105721  0.000129  1.053158  0.0
H  H10  1  0.78823683  0.61598835  0.71596642  1  0.097573  -0.000139  0.990505  0.0  0.107441  9e-05  1.052391  0.0  0.10993  5.6e-05  1.050994  0.0  0.106511  0.10571  0.000128  1.053194  0.0
H  H11  1  0.78822422  0.11599213  0.78403142  1  0.097612  -0.000139  0.990456  0.0  0.107493  9e-05  1.052307  0.0  0.109971  5.6e-05  1.050947  0.0  0.106531  0.10576  0.000128  1.053108  0.0
H  H12  1  0.02756328  0.89300678  0.25343202  1  0.115002  0.000441  0.989949  0.001  0.123232  0.000548  1.056124  0.0  0.126814  0.000416  1.05299  0.0  0.109338  0.120683  0.000659  1.058405  0.0
H  H13  1  0.02757041  0.39299808  0.24656997  1  0.115  0.000441  0.990073  0.001  0.123254  0.000547  1.056203  0.0  0.126837  0.000416  1.053069  0.0  0.109341  0.120706  0.000659  1.05849  0.0
H  H14  1  0.97244073  0.89300013  0.75343015  1  0.11498  0.000442  0.990071  0.001  0.123238  0.000548  1.056198  0.0  0.126819  0.000416  1.053068  0.0  0.109353  0.120693  0.000659  1.058484  0.0
H  H15  1  0.97244027  0.39299914  0.74656689  1  0.115035  0.000444  0.989911  0.001  0.123266  0.000547  1.056083  0.0  0.126848  0.000416  1.05295  0.0  0.109362  0.120723  0.000659  1.058363  0.0
H  H16  1  0.50902054  0.06802043  0.13733813  1  0.124609  6.6e-05  0.960701  0.0  0.141253  0.000145  1.025993  0.0  0.144085  7.5e-05  1.023605  0.0  0.106787  0.139168  0.000215  1.027613  0.0
H  H17  1  0.50902754  0.56801695  0.36266242  1  0.124598  6.6e-05  0.960679  0.0  0.141183  0.000145  1.026043  0.0  0.144015  7.5e-05  1.023654  0.0  0.106759  0.139097  0.000215  1.027656  0.0
H  H18  1  0.49098914  0.06801946  0.63733770  1  0.124539  6.7e-05  0.960725  0.0  0.141187  0.000145  1.026031  0.0  0.144019  7.5e-05  1.023641  0.0  0.106755  0.139099  0.000215  1.027651  0.0
H  H19  1  0.49100120  0.56801708  0.86266037  1  0.124577  6.8e-05  0.96064  0.0  0.14121  0.000145  1.025984  0.0  0.144042  7.5e-05  1.023597  0.0  0.106759  0.139125  0.000215  1.027601  0.0
H  H20  1  0.48097844  0.06709645  0.20906695  1  0.098651  0.000133  0.954995  0.0  0.118736  0.000175  1.020856  0.0  0.119233  0.000132  1.020887  0.0  0.101131  0.118391  0.000217  1.020478  0.0
H  H21  1  0.48097941  0.56708898  0.29093359  1  0.098588  0.000134  0.95493  0.0  0.11864  0.000175  1.020831  0.0  0.119137  0.000132  1.020861  0.0  0.101075  0.118293  0.000217  1.020457  0.0
H  H22  1  0.51902713  0.06709450  0.70906652  1  0.098619  0.000135  0.95496  0.0  0.118705  0.000175  1.020837  0.0  0.119203  0.000132  1.020867  0.0  0.101125  0.11836  0.000217  1.020457  0.0
H  H23  1  0.51902557  0.56709364  0.79093076  1  0.098641  0.000135  0.954981  0.0  0.118736  0.000175  1.020852  0.0  0.119233  0.000132  1.020883  0.0  0.101154  0.118392  0.000217  1.020474  0.0
H  H24  1  0.85389331  0.13359224  0.17685249  1  0.108861  0.000243  0.94442  0.0  0.128511  0.000351  1.00932  0.0  0.129478  0.000265  1.009147  0.0  0.100143  0.128444  0.000434  1.008296  0.0
H  H25  1  0.85389472  0.63358838  0.32314786  1  0.108864  0.000244  0.944425  0.0  0.128513  0.000351  1.009308  0.0  0.129481  0.000265  1.009132  0.0  0.10016  0.128441  0.000434  1.008285  0.0
H  H26  1  0.14611834  0.13358982  0.67685113  1  0.108839  0.000244  0.944432  0.0  0.128497  0.000351  1.009334  0.0  0.129465  0.000266  1.009156  0.0  0.100134  0.128424  0.000434  1.00831  0.0
H  H27  1  0.14612227  0.63359147  0.82314851  1  0.108752  0.000244  0.9445  0.0  0.128451  0.000351  1.00937  0.0  0.129418  0.000266  1.009196  0.0  0.100123  0.128381  0.000434  1.00835  0.0
H  H28  1  0.13217401  0.26924419  0.05349064  1  0.300421  -0.00196  0.918065  -0.002  0.291636  -0.000441  0.972932  0.0  0.299268  -0.000657  0.96897  -0.001  0.28859  0.286267  -0.000188  0.976031  0.0
H  H29  1  0.13218973  0.76924040  0.44650962  1  0.300444  -0.001966  0.917937  -0.002  0.291653  -0.000441  0.972838  0.0  0.299285  -0.000658  0.968875  -0.001  0.288568  0.286286  -0.000188  0.975944  0.0
H  H30  1  0.86782123  0.26923489  0.55348913  1  0.300436  -0.001961  0.917935  -0.002  0.291651  -0.000441  0.972809  0.0  0.299273  -0.000658  0.96887  -0.001  0.28859  0.286283  -0.000188  0.975923  0.0
H  H31  1  0.86782177  0.76923551  0.94650932  1  0.300427  -0.001963  0.917973  -0.002  0.291642  -0.000441  0.97287  0.0  0.299273  -0.000658  0.968906  -0.001  0.288559  0.286273  -0.000188  0.975983  0.0
H  H32  1  0.72434914  0.26069908  0.06313245  1  0.303411  -0.001799  0.911114  -0.001  0.293401  -0.000305  0.969333  0.0  0.301068  -0.000548  0.965117  0.0  0.288903  0.287965  -8.9e-05  0.972731  0.0
H  H33  1  0.72436726  0.76069740  0.43686641  1  0.303441  -0.001804  0.911101  -0.001  0.29348  -0.000305  0.969242  0.0  0.301146  -0.000548  0.965027  0.0  0.28895  0.288043  -8.9e-05  0.972652  0.0
H  H34  1  0.27564099  0.26069830  0.56313355  1  0.30345  -0.001801  0.911063  -0.001  0.29345  -0.000305  0.969277  0.0  0.301116  -0.000548  0.965057  0.0  0.288928  0.288013  -8.9e-05  0.972686  0.0
H  H35  1  0.27564393  0.76070654  0.93686549  1  0.303505  -0.001803  0.911032  -0.001  0.293513  -0.000306  0.969233  0.0  0.301179  -0.000548  0.965017  0.0  0.288944  0.288076  -8.9e-05  0.972644  0.0
H  H36  1  0.08455602  0.39354145  0.97445492  1  0.095901  -0.000108  0.947566  0.0  0.110667  3e-06  1.011675  0.0  0.111801  -7e-06  1.011726  0.0  0.113197  0.109723  3e-06  1.012042  0.0
H  H37  1  0.08456352  0.89354028  0.52554583  1  0.095996  -0.000105  0.947439  0.0  0.110766  3e-06  1.011563  0.0  0.111938  -7e-06  1.011563  0.0  0.113254  0.109825  3e-06  1.011932  0.0
H  H38  1  0.91544763  0.39353092  0.47445349  1  0.095935  -0.000106  0.947486  0.0  0.110732  3e-06  1.011584  0.0  0.111892  -7e-06  1.011603  0.0  0.113248  0.109784  3e-06  1.011953  0.0
H  H39  1  0.91543490  0.89353305  0.02554601  1  0.096001  -0.000103  0.947411  0.0  0.110765  3e-06  1.011543  0.0  0.111937  -7e-06  1.011544  0.0  0.11326  0.109821  3e-06  1.011913  0.0
H  H40  1  0.68732491  0.30475840  0.97503997  1  0.101359  0.002322  0.949399  0.003  0.111887  0.001751  1.018181  0.002  0.114537  0.001277  1.015825  0.001  0.108762  0.109405  0.002083  1.02097  0.002
H  H41  1  0.68734000  0.80474950  0.52495927  1  0.10139  0.002325  0.949316  0.003  0.111947  0.001751  1.018067  0.002  0.114595  0.001276  1.015717  0.001  0.108817  0.109466  0.002083  1.020861  0.002
H  H42  1  0.31267428  0.30475083  0.47504074  1  0.101352  0.002325  0.949325  0.003  0.111936  0.001751  1.018069  0.002  0.114587  0.001277  1.015715  0.001  0.108803  0.109447  0.002083  1.020865  0.002
H  H43  1  0.31265900  0.80474855  0.02495964  1  0.101381  0.002325  0.949345  0.003  0.111948  0.001751  1.01809  0.002  0.114597  0.001277  1.01574  0.001  0.108818  0.109465  0.002083  1.020882  0.002
C  C44  1  0.75855057  0.80472136  0.13455545  1  0.164909  -0.005243  3.629582  -0.003  0.10845  -0.000971  3.893449  0.0  0.124692  -0.002327  3.906599  -0.001  0.141138  0.098371  -4.3e-05  3.884703  0.001
C  C45  1  0.75856183  0.30471820  0.36544628  1  0.164978  -0.005261  3.629591  -0.003  0.108512  -0.00097  3.893435  0.0  0.124752  -0.002326  3.906589  -0.001  0.14112  0.098433  -4.2e-05  3.88468  0.001
C  C46  1  0.24143979  0.80472044  0.63455332  1  0.164996  -0.00524  3.629626  -0.003  0.108516  -0.00097  3.893474  0.0  0.124757  -0.002327  3.906627  -0.001  0.141128  0.098434  -4.3e-05  3.884723  0.001
C  C47  1  0.24143588  0.30472168  0.86544536  1  0.164929  -0.005238  3.629633  -0.003  0.108479  -0.000971  3.893475  0.0  0.12472  -0.002328  3.906625  -0.001  0.141121  0.098402  -4.4e-05  3.884726  0.001
C  C48  1  0.05718195  0.70033244  0.19757291  1  -0.004858  -0.001672  3.763658  -0.001  -0.035736  -0.000198  4.031028  0.0  -0.032893  -0.001025  4.053414  0.0  -0.009387  -0.037139  0.000472  4.015301  0.001
C  C49  1  0.05719489  0.20032758  0.30243086  1  -0.004684  -0.001685  3.763426  -0.001  -0.035555  -0.000198  4.03079  0.0  -0.032706  -0.001025  4.053181  0.0  -0.009336  -0.036959  0.000471  4.01507  0.001
C  C50  1  0.94280950  0.70032787  0.69756942  1  -0.004689  -0.001663  3.763392  -0.001  -0.035548  -0.000199  4.030747  0.0  -0.032702  -0.001025  4.053138  0.0  -0.009351  -0.036954  0.000471  4.015023  0.001
C  C51  1  0.94280221  0.20033071  0.80242857  1  -0.004769  -0.001656  3.763493  -0.001  -0.035633  -0.000198  4.030859  0.0  -0.032794  -0.001024  4.053244  0.0  -0.009324  -0.037039  0.000472  4.015127  0.001
C  C52  1  0.97326880  0.83843411  0.21565483  1  -0.066385  0.003226  3.664924  0.003  -0.102348  0.001874  3.912452  0.002  -0.100481  0.001578  3.929521  0.002  -0.001562  -0.1034  0.002122  3.900765  0.002
C  C53  1  0.97327897  0.33843018  0.28434622  1  -0.066473  0.003234  3.6649  0.003  -0.102462  0.001874  3.912434  0.002  -0.100597  0.001578  3.9295  0.002  -0.001627  -0.103526  0.002122  3.900765  0.002
C  C54  1  0.02673098  0.83843009  0.71565303  1  -0.066488  0.003213  3.664997  0.003  -0.10249  0.001875  3.912529  0.002  -0.100622  0.001578  3.929596  0.002  -0.001644  -0.103554  0.002122  3.900857  0.002
C  C55  1  0.02672850  0.33842946  0.78434482  1  -0.066597  0.003206  3.664933  0.003  -0.102574  0.001875  3.912485  0.002  -0.100705  0.001578  3.929551  0.002  -0.001702  -0.10363  0.002122  3.900799  0.002
C  C56  1  0.64991399  0.05189643  0.17467792  1  -0.179766  0.001635  3.636478  0.001  -0.283221  0.001547  3.881242  0.001  -0.280089  0.00117  3.888916  0.001  -0.136464  -0.284982  0.001861  3.875309  0.001
C  C57  1  0.64991795  0.55189259  0.32532266  1  -0.179608  0.001632  3.636402  0.001  -0.282969  0.001547  3.881133  0.001  -0.279837  0.00117  3.888805  0.001  -0.136381  -0.28473  0.00186  3.875196  0.001
C  C58  1  0.35009078  0.05189486  0.67467704  1  -0.179602  0.00163  3.63641  0.001  -0.283064  0.001547  3.881178  0.001  -0.279929  0.00117  3.888846  0.001  -0.136421  -0.284821  0.00186  3.875239  0.001
C  C59  1  0.35009475  0.55189323  0.82532096  1  -0.179595  0.001626  3.636479  0.001  -0.283095  0.001547  3.881215  0.001  -0.279963  0.00117  3.888891  0.001  -0.136436  -0.284854  0.00186  3.875286  0.001
C  C60  1  0.84728117  0.38363846  0.99695397  1  -0.096031  -0.00095  3.644152  -0.003  -0.15294  0.001338  3.905838  -0.001  -0.152575  0.000229  3.915572  -0.001  -0.083722  -0.152989  0.002182  3.900577  0.0
C  C61  1  0.84729089  0.88363377  0.50304583  1  -0.096251  -0.000979  3.643921  -0.003  -0.15319  0.001338  3.905732  -0.001  -0.152847  0.000231  3.915437  -0.001  -0.083838  -0.15324  0.002183  3.900503  0.0
C  C62  1  0.15271752  0.38363022  0.49695388  1  -0.096109  -0.000972  3.64402  -0.003  -0.153092  0.001338  3.905846  -0.001  -0.152747  0.00023  3.915566  -0.001  -0.083847  -0.153121  0.002183  3.900591  0.0
C  C63  1  0.15270954  0.88363324  0.00304614  1  -0.096281  -0.000983  3.644107  -0.003  -0.153183  0.001337  3.905974  -0.001  -0.152854  0.000228  3.91568  -0.001  -0.083842  -0.153216  0.002182  3.900726  0.0
C  C64  1  0.68631062  0.53564579  0.99734659  1  0.659553  -0.004189  3.852463  -0.003  0.620213  0.000576  4.154649  0.001  0.654658  -6.3e-05  4.150435  0.0  0.203092  0.59641  0.00129  4.157136  0.001
C  C65  1  0.68630687  0.03563918  0.50265312  1  0.659838  -0.004187  3.851952  -0.003  0.62034  0.000577  4.154371  0.001  0.654783  -6.2e-05  4.150163  0.0  0.203126  0.596504  0.00129  4.1569  0.001
C  C66  1  0.31368887  0.53563933  0.49734735  1  0.659583  -0.004201  3.852146  -0.003  0.620084  0.000578  4.154597  0.001  0.654537  -6.2e-05  4.150382  0.0  0.203011  0.59625  0.00129  4.157106  0.001
C  C67  1  0.31368005  0.03563602  0.00265509  1  0.659764  -0.004183  3.851918  -0.003  0.620122  0.000574  4.154558  0.001  0.654595  -6.3e-05  4.15033  0.0  0.203032  0.596283  0.001289  4.157067  0.001
N  N68  1  0.92108743  0.68020844  0.14699075  1  -0.367172  0.058034  3.382164  0.074  -0.320468  0.041972  3.700934  0.056  -0.354443  0.035293  3.722999  0.05  -0.387842  -0.300122  0.045562  3.686888  0.058
N  N69  1  0.92109853  0.18020736  0.35301210  1  -0.367251  0.058035  3.382236  0.074  -0.320564  0.041968  3.701045  0.056  -0.354543  0.035291  3.723107  0.05  -0.387858  -0.300222  0.04556  3.686994  0.058
N  N70  1  0.07890543  0.68020904  0.64698775  1  -0.367204  0.058031  3.382208  0.074  -0.320497  0.041971  3.700977  0.056  -0.354476  0.035292  3.723051  0.05  -0.387783  -0.300155  0.045562  3.686936  0.058
N  N71  1  0.07888870  0.18020906  0.85301071  1  -0.367149  0.058029  3.382122  0.074  -0.320458  0.04197  3.700901  0.056  -0.35443  0.035293  3.72296  0.05  -0.387823  -0.300112  0.045562  3.686848  0.058
N  N72  1  0.78748497  0.90319584  0.17505375  1  -0.018331  0.00106  3.605689  0.002  0.084706  0.001077  3.815296  0.002  0.070584  0.000694  3.841798  0.001  -0.24487  0.093558  0.001369  3.797544  0.002
N  N73  1  0.78749063  0.40319229  0.32494772  1  -0.018438  0.001062  3.605711  0.002  0.084591  0.001077  3.815325  0.002  0.070468  0.000694  3.841827  0.001  -0.244837  0.093443  0.001369  3.797569  0.002
N  N74  1  0.21251568  0.90319480  0.67505201  1  -0.018405  0.001065  3.60567  0.002  0.084639  0.001077  3.815314  0.002  0.070515  0.000694  3.841816  0.001  -0.244854  0.09349  0.001369  3.797561  0.002
N  N75  1  0.21251628  0.40319455  0.82494638  1  -0.018284  0.001065  3.605665  0.002  0.084755  0.001076  3.81529  0.002  0.070633  0.000694  3.841792  0.001  -0.244816  0.093599  0.001369  3.797547  0.002
N  N76  1  0.91526955  0.33167600  0.05190617  1  -0.572811  0.095685  3.191436  0.121  -0.54912  0.062482  3.461642  0.082  -0.584399  0.049324  3.464861  0.07  -0.650858  -0.528192  0.069445  3.461735  0.087
N  N77  1  0.91528276  0.83167332  0.44809365  1  -0.572867  0.095706  3.191339  0.121  -0.549221  0.062483  3.46155  0.082  -0.58451  0.049326  3.464781  0.07  -0.650889  -0.528281  0.069444  3.461614  0.087
N  N78  1  0.08472199  0.33167001  0.55190519  1  -0.572827  0.095696  3.191346  0.121  -0.549153  0.062483  3.461586  0.082  -0.584456  0.049325  3.464849  0.07  -0.650867  -0.528224  0.069445  3.461663  0.087
N  N79  1  0.08471749  0.83167395  0.94809387  1  -0.572872  0.095699  3.191389  0.121  -0.54921  0.062484  3.461602  0.082  -0.584491  0.049327  3.464831  0.07  -0.650859  -0.52827  0.069443  3.461671  0.087
Cl  Cl80  1  0.34134549  0.38677522  0.15325514  1  -0.533113  0.112517  0.966404  0.141  -0.533193  0.074827  1.268007  0.099  -0.565791  0.055204  1.239674  0.08  -0.287133  -0.514626  0.087538  1.287304  0.109
Cl  Cl81  1  0.34134974  0.88677269  0.34674455  1  -0.533137  0.112521  0.96639  0.141  -0.533229  0.074831  1.268008  0.099  -0.565837  0.055207  1.239668  0.08  -0.287143  -0.514668  0.087543  1.287297  0.109
Cl  Cl82  1  0.65865621  0.38676945  0.65325436  1  -0.533125  0.112517  0.966403  0.141  -0.533183  0.074827  1.268014  0.099  -0.565783  0.055203  1.239688  0.08  -0.287122  -0.51464  0.087538  1.287319  0.109
Cl  Cl83  1  0.65864528  0.88677573  0.84674537  1  -0.533124  0.112518  0.966398  0.141  -0.533196  0.074829  1.268008  0.099  -0.565794  0.055205  1.23967  0.08  -0.287126  -0.514634  0.087539  1.287304  0.109
O  O84  1  0.67969968  0.60463930  0.04262580  1  -0.600876  0.072462  2.033708  0.101  -0.568129  0.054225  2.319389  0.082  -0.610313  0.041628  2.309682  0.069  -0.323871  -0.5408  0.061915  2.327765  0.089
O  O85  1  0.67967930  0.10462929  0.45737446  1  -0.601078  0.072459  2.033615  0.101  -0.568236  0.054224  2.319318  0.082  -0.610422  0.041629  2.309609  0.069  -0.323891  -0.540857  0.061915  2.327617  0.089
O  O86  1  0.32031288  0.60463210  0.54262490  1  -0.601003  0.072459  2.033668  0.101  -0.568146  0.054222  2.319355  0.082  -0.610332  0.041626  2.309648  0.069  -0.323868  -0.540789  0.061915  2.327686  0.089
O  O87  1  0.32029756  0.10463862  0.95737637  1  -0.601003  0.072467  2.033404  0.101  -0.568124  0.054229  2.319185  0.082  -0.610321  0.041631  2.309464  0.069  -0.323884  -0.540762  0.06192  2.327523  0.089
O  O88  1  0.57678423  0.58838233  0.95396353  1  -0.61358  0.017305  1.930092  0.022  -0.56402  0.010051  2.143574  0.013  -0.590409  0.005213  2.136471  0.007  -0.316776  -0.54374  0.015182  2.147129  0.019
O  O89  1  0.57678359  0.08837393  0.54603741  1  -0.613641  0.017307  1.929891  0.022  -0.564  0.010051  2.143404  0.013  -0.590381  0.005214  2.136294  0.007  -0.316778  -0.543716  0.015183  2.146982  0.019
O  O90  1  0.42321836  0.58837853  0.45396233  1  -0.613496  0.01732  1.92991  0.022  -0.563876  0.010053  2.143434  0.013  -0.590267  0.005214  2.136324  0.007  -0.316688  -0.543601  0.015187  2.147019  0.019
O  O91  1  0.42322025  0.08837564  0.04604022  1  -0.613576  0.017306  1.929833  0.022  -0.563865  0.010051  2.143368  0.013  -0.590264  0.005213  2.136256  0.007  -0.316709  -0.54358  0.015183  2.146945  0.019
