# generated using pymatgen
data_MnH9C12N8Cl
_symmetry_space_group_name_H-M   'P 1'
_cell_length_a   7.93709319
_cell_length_b   9.62603582
_cell_length_c   9.73614800
_cell_angle_alpha   72.98459928
_cell_angle_beta   78.65897628
_cell_angle_gamma   81.07154417
_symmetry_Int_Tables_number   1
_chemical_formula_structural   MnH9C12N8Cl
_chemical_formula_sum   'Mn2 H18 C24 N16 Cl2'
_cell_volume   693.62393374
_cell_formula_units_Z   2
loop_
 _symmetry_equiv_pos_site_id
 _symmetry_equiv_pos_as_xyz
  1  'x, y, z'
loop_
 _atom_site_type_symbol
 _atom_site_label
 _atom_site_symmetry_multiplicity
 _atom_site_fract_x
 _atom_site_fract_y
 _atom_site_fract_z
 _atom_site_occupancy
 _atom_site_hle17_ddec_charge
 _atom_site_hle17_ddec_spin_density
 _atom_site_hle17_ddec_sum_bond_order
 _atom_site_hle17_magmom
 _atom_site_hse06_10hf_ddec_charge
 _atom_site_hse06_10hf_ddec_spin_density
 _atom_site_hse06_10hf_ddec_sum_bond_order
 _atom_site_hse06_10hf_magmom
 _atom_site_hse06_ddec_charge
 _atom_site_hse06_ddec_spin_density
 _atom_site_hse06_ddec_sum_bond_order
 _atom_site_hse06_magmom
 _atom_site_pbe_cm5_charge
 _atom_site_pbe_ddec_charge
 _atom_site_pbe_ddec_spin_density
 _atom_site_pbe_ddec_sum_bond_order
 _atom_site_pbe_magmom
Mn  Mn0  1  0.15379894  0.57266098  0.54818143  1  0.975934  -4.741017  2.095498  -4.6  0.813152  -4.646039  2.62808  -4.439  0.867591  -4.713369  2.567134  -4.527  0.647386  0.768886  -4.573153  2.673523  -4.347
Mn  Mn1  1  0.84620474  0.42733648  0.45181645  1  0.975927  -4.741047  2.095465  -4.6  0.813163  -4.646071  2.628039  -4.439  0.867605  -4.713402  2.567081  -4.527  0.647389  0.768908  -4.573174  2.673462  -4.347
H  H2  1  0.85395550  0.44240013  0.81093290  1  0.075516  0.000345  0.965718  0.0  0.081535  -1.8e-05  1.033639  -0.001  0.083588  0.000204  1.032168  0.0  0.114975  0.079919  -0.00026  1.034748  -0.001
H  H3  1  0.14604287  0.55759957  0.18906734  1  0.075558  0.000343  0.965688  0.0  0.081585  -1.7e-05  1.033608  -0.001  0.083637  0.000204  1.032135  0.0  0.114993  0.079969  -0.00026  1.034711  -0.001
H  H4  1  0.70155005  0.49848192  0.04346009  1  0.098231  -0.000133  0.980515  0.0  0.099116  -0.000227  1.056519  0.0  0.102795  -8.6e-05  1.054733  0.0  0.09554  0.096466  -0.000312  1.05774  0.0
H  H5  1  0.29844682  0.50151999  0.95653980  1  0.098243  -0.000128  0.980511  0.0  0.099127  -0.000226  1.056524  0.0  0.102807  -8.6e-05  1.054737  0.0  0.095545  0.096476  -0.000312  1.057747  0.0
H  H6  1  0.75245637  0.72694984  0.09360613  1  0.094753  0.000141  0.961441  0.0  0.102737  -0.000164  1.026981  0.0  0.105041  -4.1e-05  1.025688  0.0  0.104933  0.100585  -0.000302  1.028577  0.0
H  H7  1  0.24754423  0.27305311  0.90639180  1  0.094762  0.000144  0.961406  0.0  0.102724  -0.000164  1.026966  0.0  0.105035  -4.2e-05  1.025666  0.0  0.10494  0.100573  -0.000302  1.028565  0.0
H  H8  1  0.94784143  0.89703926  0.90548086  1  0.117404  -0.000624  0.955755  0.0  0.123044  -0.001055  1.02415  0.0  0.126469  -0.000854  1.022113  0.0  0.107915  0.120364  -0.001048  1.025767  0.0
H  H9  1  0.05215954  0.10295936  0.09451614  1  0.11742  -0.000621  0.955767  0.0  0.123106  -0.001055  1.024125  0.0  0.12653  -0.000853  1.022089  0.0  0.107955  0.120429  -0.001048  1.025744  0.0
H  H10  1  0.13096028  0.95259533  0.67722273  1  0.074559  -0.000812  0.986892  0.0  0.080948  -0.001567  1.059937  0.0  0.083763  -0.001239  1.056084  0.0  0.112579  0.078934  -0.001626  1.062694  -0.001
H  H11  1  0.86903958  0.04740216  0.32277785  1  0.074505  -0.000811  0.986949  0.0  0.080884  -0.001567  1.060001  0.0  0.083698  -0.001239  1.056151  0.0  0.112566  0.078874  -0.001626  1.062759  -0.001
H  H12  1  0.24014532  0.10379117  0.51995622  1  0.103751  0.000362  0.967886  0.0  0.11496  0.000374  1.026933  0.0  0.116618  0.000387  1.027462  0.0  0.108295  0.113349  0.000325  1.026914  0.0
H  H13  1  0.75986565  0.89620046  0.48005534  1  0.103769  0.000366  0.967841  0.0  0.114984  0.000374  1.026886  0.0  0.116645  0.000387  1.02741  0.0  0.108257  0.113373  0.000325  1.026869  0.0
H  H14  1  0.42654710  0.26094475  0.32620384  1  0.112262  0.000204  0.956523  0.0  0.119515  0.000193  1.021031  0.0  0.122022  0.00025  1.020668  0.0  0.105481  0.11799  0.000171  1.021147  0.0
H  H15  1  0.57345572  0.73905038  0.67380407  1  0.112257  0.000198  0.956383  0.0  0.119509  0.000193  1.020902  0.0  0.122016  0.000251  1.020539  0.0  0.1055  0.117984  0.000171  1.021021  0.0
H  H16  1  0.56168590  0.92316039  0.10300674  1  0.103715  -6.3e-05  0.968356  0.0  0.112531  -0.000163  1.034007  0.0  0.115025  -0.000133  1.033006  0.0  0.100845  0.110442  -0.000205  1.03513  0.0
H  H17  1  0.43830409  0.07684501  0.89698826  1  0.103711  -5.9e-05  0.968378  0.0  0.112565  -0.000163  1.033966  0.0  0.115059  -0.000134  1.032966  0.0  0.100865  0.110472  -0.000205  1.035097  0.0
H  H18  1  0.36419017  0.76555158  0.29621769  1  0.097685  -0.000375  0.997881  0.0  0.104549  -0.000877  1.065749  0.0  0.107162  -0.000682  1.064844  0.0  0.104867  0.102829  -0.001019  1.066086  0.0
H  H19  1  0.63580263  0.23445157  0.70377846  1  0.097748  -0.000377  0.997843  0.0  0.104592  -0.000877  1.065743  0.0  0.107206  -0.000681  1.064841  0.0  0.104885  0.102872  -0.001019  1.066086  0.0
C  C20  1  0.87112521  0.54169900  0.83626481  1  0.142871  -0.002862  3.692576  -0.003  0.111142  -0.005082  3.945469  -0.004  0.117742  -0.004235  3.96367  -0.004  0.05532  0.106555  -0.006534  3.93367  -0.005
C  C21  1  0.12887192  0.45829968  0.16373388  1  0.142798  -0.00284  3.692494  -0.003  0.111074  -0.005081  3.945412  -0.004  0.117664  -0.004239  3.963612  -0.004  0.055306  0.106492  -0.006536  3.933607  -0.005
C  C22  1  0.78544448  0.57397618  0.96464981  1  -0.107388  0.001692  3.713019  0.001  -0.122917  0.000574  3.971023  0.0  -0.128143  0.001489  3.990527  0.001  -0.081992  -0.1192  -0.000772  3.958025  -0.001
C  C23  1  0.21455373  0.42602465  0.03534810  1  -0.107372  0.001632  3.712994  0.001  -0.122903  0.00057  3.970987  0.0  -0.128131  0.001498  3.990496  0.001  -0.081977  -0.119184  -0.000772  3.957989  -0.001
C  C24  1  0.81323378  0.70198948  0.99202475  1  -0.001615  -0.002745  3.72241  -0.002  -0.021838  -0.004378  3.976058  -0.003  -0.019185  -0.00376  3.994588  -0.003  -0.068761  -0.023944  -0.00561  3.964831  -0.004
C  C25  1  0.18676564  0.29801240  0.00797368  1  -0.001649  -0.002715  3.722404  -0.002  -0.021852  -0.004377  3.976085  -0.003  -0.019205  -0.003763  3.994611  -0.003  -0.068804  -0.023961  -0.005611  3.964863  -0.004
C  C26  1  0.92244568  0.79543520  0.88905994  1  -0.132843  0.001131  3.684104  0.001  -0.154628  -0.000418  3.934348  0.0  -0.160499  0.000457  3.956631  0.0  -0.073492  -0.151225  -0.001409  3.920084  -0.001
C  C27  1  0.07755650  0.20456447  0.11093759  1  -0.132921  0.001085  3.684055  0.001  -0.154768  -0.000421  3.934315  0.0  -0.160641  0.000451  3.956601  0.0  -0.073512  -0.151367  -0.001409  3.920055  -0.001
C  C28  1  0.00180399  0.75604241  0.76203093  1  0.183058  -0.002643  3.806945  -0.002  0.183979  -0.004984  4.047792  -0.004  0.187226  -0.004111  4.069631  -0.003  0.114703  0.181608  -0.005555  4.033164  -0.004
C  C29  1  0.99819714  0.24395507  0.23796841  1  0.183254  -0.002631  3.806709  -0.002  0.184199  -0.004981  4.047546  -0.004  0.187435  -0.004104  4.069384  -0.003  0.114775  0.18183  -0.005555  4.03292  -0.004
C  C30  1  0.11402420  0.85263158  0.65122746  1  0.106209  -0.00291  3.646388  -0.003  0.064516  -0.006924  3.907253  -0.005  0.077352  -0.005328  3.916214  -0.004  0.078635  0.055053  -0.009814  3.901864  -0.007
C  C31  1  0.88597835  0.14736477  0.34877297  1  0.106182  -0.002886  3.646403  -0.003  0.064521  -0.006926  3.907247  -0.005  0.077351  -0.005324  3.916208  -0.004  0.078624  0.055056  -0.009815  3.90186  -0.007
C  C32  1  0.29118494  0.92012737  0.42383571  1  0.198792  -0.000664  3.798373  -0.001  0.200568  -0.001208  4.043123  -0.001  0.203821  -0.000895  4.068465  -0.001  0.08649  0.198021  -0.001404  4.026526  -0.001
C  C33  1  0.70881516  0.07986792  0.57616646  1  0.198745  -0.000622  3.798384  -0.001  0.200484  -0.001213  4.043208  -0.001  0.203733  -0.000889  4.068548  -0.001  0.086536  0.197935  -0.001404  4.026611  -0.001
C  C34  1  0.30941490  0.06149282  0.43009522  1  -0.118068  -0.000144  3.698576  -0.001  -0.134779  -0.000503  3.943546  -0.001  -0.138492  -0.000133  3.966728  -0.001  -0.08419  -0.131855  -0.001366  3.927912  -0.002
C  C35  1  0.69059269  0.93850555  0.56990789  1  -0.118045  -0.00023  3.69864  -0.001  -0.134737  -0.000497  3.943614  -0.001  -0.13845  -0.000131  3.966794  -0.001  -0.084168  -0.131814  -0.001366  3.927982  -0.002
C  C36  1  0.41594944  0.15136891  0.32087701  1  -0.114735  -0.000103  3.74841  0.0  -0.136358  -5.5e-05  4.00015  0.0  -0.139243  -2.6e-05  4.022911  0.0  -0.093658  -0.134401  -0.000138  3.984561  0.0
C  C37  1  0.58405268  0.84863283  0.67912613  1  -0.11483  -2e-05  3.748287  0.0  -0.136466  -6e-05  4.00006  0.0  -0.139348  -3e-05  4.02282  0.0  -0.093752  -0.13451  -0.000138  3.984475  0.0
C  C38  1  0.50680966  0.10033394  0.20376422  1  0.129928  0.000462  3.803947  0.0  0.141734  -6.1e-05  4.068031  0.0  0.143322  0.000177  4.091632  0.0  0.014513  0.140679  -0.000877  4.052038  -0.001
C  C39  1  0.49318619  0.89966578  0.79623851  1  0.130048  0.000387  3.803895  0.0  0.141865  -5.7e-05  4.067968  0.0  0.143454  0.000174  4.091568  0.0  0.014567  0.140812  -0.000877  4.051973  -0.001
C  C40  1  0.49030642  0.96129624  0.19473022  1  -0.13056  -0.00037  3.78761  0.0  -0.153721  -0.000502  4.040799  0.0  -0.156467  -0.000453  4.063156  0.0  -0.097939  -0.151931  -0.000518  4.026152  0.0
C  C41  1  0.50968915  0.03870470  0.80526504  1  -0.130625  -0.000351  3.787774  0.0  -0.1538  -0.000505  4.040944  0.0  -0.156548  -0.000446  4.0633  0.0  -0.09794  -0.152011  -0.000518  4.026299  0.0
C  C42  1  0.38122439  0.87308111  0.30351687  1  -0.113478  -6.8e-05  3.709826  0.0  -0.132568  -0.00109  3.95642  -0.001  -0.136692  -0.000724  3.978971  -0.001  -0.08465  -0.130171  -0.001467  3.941476  -0.001
C  C43  1  0.61876975  0.12692096  0.69647729  1  -0.11347  -9.8e-05  3.709876  0.0  -0.132542  -0.001085  3.956483  -0.001  -0.136671  -0.00074  3.979044  -0.001  -0.084652  -0.130144  -0.001467  3.94154  -0.001
N  N44  1  0.97786171  0.62971506  0.73717963  1  -0.33783  -0.026771  3.227547  -0.016  -0.266938  -0.029739  3.487109  -0.016  -0.285984  -0.026015  3.504695  -0.013  -0.310246  -0.253907  -0.034149  3.475674  -0.02
N  N45  1  0.02213815  0.37028244  0.26282095  1  -0.337887  -0.026777  3.227424  -0.016  -0.267047  -0.029739  3.487062  -0.016  -0.286057  -0.026017  3.504603  -0.013  -0.310337  -0.254046  -0.03415  3.475677  -0.02
N  N46  1  0.18674627  0.82161690  0.53089717  1  -0.337564  -0.021597  3.173646  -0.012  -0.27735  -0.027804  3.447559  -0.015  -0.295274  -0.0247  3.461744  -0.013  -0.295256  -0.264962  -0.032049  3.438499  -0.019
N  N47  1  0.81325478  0.17838166  0.46910291  1  -0.337568  -0.021609  3.173524  -0.012  -0.277358  -0.027805  3.447445  -0.015  -0.295281  -0.024703  3.461641  -0.013  -0.295269  -0.264964  -0.032049  3.438376  -0.019
N  N48  1  0.04236616  0.36513367  0.59639652  1  -0.582957  -0.01352  2.824195  0.01  -0.543765  -0.031354  3.159861  0.002  -0.573203  -0.015328  3.161344  0.014  -0.301057  -0.518989  -0.047061  3.15678  -0.01
N  N49  1  0.95763691  0.63487033  0.40360069  1  -0.583005  -0.013656  2.824092  0.01  -0.543892  -0.031349  3.159727  0.002  -0.573328  -0.015464  3.161204  0.014  -0.301146  -0.519114  -0.047069  3.156643  -0.01
N  N50  1  0.06305486  0.25213955  0.68932369  1  0.398406  0.001946  4.191123  -0.001  0.432941  -0.015545  4.473357  -0.017  0.450191  -0.007603  4.502622  -0.01  0.093939  0.420313  -0.021096  4.45089  -0.021
N  N51  1  0.93694663  0.74786670  0.31067009  1  0.398357  0.001912  4.191278  -0.001  0.433022  -0.01554  4.473372  -0.017  0.450276  -0.00765  4.502633  -0.01  0.093993  0.420396  -0.021096  4.450901  -0.021
N  N52  1  0.08294898  0.14204644  0.77869113  1  -0.382717  -0.087175  2.404957  -0.086  -0.389023  -0.088313  2.641025  -0.08  -0.39547  -0.08347  2.649729  -0.077  -0.18661  -0.38162  -0.096352  2.633491  -0.087
N  N53  1  0.91705026  0.85795659  0.22130393  1  -0.382637  -0.08704  2.405275  -0.086  -0.38901  -0.088317  2.641299  -0.08  -0.395455  -0.083327  2.650002  -0.077  -0.186567  -0.381613  -0.096341  2.633769  -0.087
N  N54  1  0.34923022  0.50273732  0.68840038  1  -0.482454  -0.040846  2.650499  -0.025  -0.466646  -0.051569  2.945234  -0.028  -0.486416  -0.042089  2.951639  -0.021  -0.246075  -0.450667  -0.060652  2.940189  -0.035
N  N55  1  0.65077267  0.49726884  0.31159730  1  -0.482516  -0.040747  2.650643  -0.025  -0.46671  -0.051591  2.945387  -0.028  -0.486483  -0.042056  2.951791  -0.021  -0.246114  -0.450739  -0.060657  2.940356  -0.035
N  N56  1  0.50159780  0.49018105  0.65614630  1  0.405403  -0.013616  4.222153  -0.016  0.442498  -0.025546  4.494776  -0.029  0.460319  -0.020636  4.5258  -0.024  0.095789  0.429864  -0.030729  4.47173  -0.034
N  N57  1  0.49840563  0.50981963  0.34385382  1  0.405524  -0.013606  4.222106  -0.016  0.442607  -0.025546  4.494749  -0.029  0.460428  -0.020637  4.525773  -0.024  0.095842  0.429972  -0.030729  4.4717  -0.034
N  N58  1  0.65449650  0.47670958  0.62946472  1  -0.49513  -0.047289  2.675054  -0.032  -0.476592  -0.055814  2.970436  -0.032  -0.496192  -0.047044  2.97498  -0.026  -0.244441  -0.460778  -0.064636  2.966336  -0.04
N  N59  1  0.34550620  0.52328564  0.37053805  1  -0.49519  -0.0474  2.674948  -0.032  -0.476653  -0.055797  2.970366  -0.032  -0.496251  -0.047076  2.974906  -0.026  -0.24446  -0.460839  -0.064635  2.966268  -0.04
Cl  Cl60  1  0.63922727  0.21124565  0.06607457  1  -0.081108  0.000135  1.359356  0.0  -0.052298  -0.000126  1.587781  0.0  -0.058748  3.2e-05  1.586326  0.0  0.02616  -0.048151  -0.000369  1.588797  0.0
Cl  Cl61  1  0.36077224  0.78875616  0.93392797  1  -0.081121  0.000132  1.359361  0.0  -0.052318  -0.000125  1.587786  0.0  -0.058774  3.2e-05  1.586341  0.0  0.026162  -0.048173  -0.000369  1.588801  0.0
