# generated using pymatgen
data_ZnH10C11S(NO)4
_symmetry_space_group_name_H-M   'P 1'
_cell_length_a   4.95508062
_cell_length_b   16.21394163
_cell_length_c   16.52656443
_cell_angle_alpha   89.99998420
_cell_angle_beta   90.00009163
_cell_angle_gamma   90.00006618
_symmetry_Int_Tables_number   1
_chemical_formula_structural   ZnH10C11S(NO)4
_chemical_formula_sum   'Zn4 H40 C44 S4 N16 O16'
_cell_volume   1327.76712415
_cell_formula_units_Z   4
loop_
 _symmetry_equiv_pos_site_id
 _symmetry_equiv_pos_as_xyz
  1  'x, y, z'
loop_
 _atom_site_type_symbol
 _atom_site_label
 _atom_site_symmetry_multiplicity
 _atom_site_fract_x
 _atom_site_fract_y
 _atom_site_fract_z
 _atom_site_occupancy
 _atom_site_pbe_bader_charge
 _atom_site_pbe_bader_spin_density
 _atom_site_pbe_cm5_charge
 _atom_site_pbe_ddec_charge
 _atom_site_pbe_ddec_spin_density
 _atom_site_pbe_ddec_sum_bond_order
 _atom_site_pbe_magmom
Zn  Zn0  1  0.03928431  0.36014189  0.26680435  1  1.278808  0  0.725517  0.865455  0  2.361223  0
Zn  Zn1  1  0.46071423  0.63985611  0.76680489  1  1.27885  0  0.725491  0.865418  0  2.361189  0
Zn  Zn2  1  0.53928709  0.13985679  0.73319605  1  1.278822  0  0.725511  0.865468  0  2.361186  0
Zn  Zn3  1  0.96071517  0.86014262  0.23319377  1  1.278748  0  0.72545  0.865403  0  2.361233  0
H  H4  1  0.97797912  0.55266591  0.01736130  1  0.574137  0  0.307916  0.306406  0  0.984389  0
H  H5  1  0.52201593  0.44733295  0.51736167  1  0.575041  0  0.307932  0.306432  0  0.984391  0
H  H6  1  0.47798049  0.94733344  0.98263979  1  0.57412  0  0.307921  0.306417  0  0.984409  0
H  H7  1  0.02202121  0.05266634  0.48263812  1  0.574146  0  0.307947  0.306465  0  0.984359  0
H  H8  1  0.30818642  0.71531715  0.13984876  1  0.186832  0  0.150138  0.129139  0  0.966023  0
H  H9  1  0.19181547  0.28468211  0.63984927  1  0.186839  0  0.150146  0.129128  0  0.966068  0
H  H10  1  0.80818438  0.78468152  0.86015103  1  0.186838  0  0.150136  0.129117  0  0.96602  0
H  H11  1  0.69181655  0.21531724  0.36015061  1  0.186836  0  0.150092  0.129089  0  0.965946  0
H  H12  1  0.74608695  0.70599005  0.33188273  1  0.110474  0  0.120526  0.116773  0  1.036233  0
H  H13  1  0.75390575  0.29401181  0.83188084  1  0.110508  0  0.120532  0.116755  0  1.036321  0
H  H14  1  0.24609414  0.79401169  0.66811945  1  0.110502  0  0.120546  0.116804  0  1.036274  0
H  H15  1  0.25390791  0.20598941  0.16811785  1  0.110484  0  0.120534  0.116764  0  1.036257  0
H  H16  1  0.90043520  0.54691710  0.29466332  1  0.198953  0  0.126403  0.132975  0  1.050456  0
H  H17  1  0.59956537  0.45308230  0.79466313  1  0.199  0  0.126387  0.132946  0  1.0505  0
H  H18  1  0.40043309  0.95308161  0.70533652  1  0.19899  0  0.126401  0.132964  0  1.050476  0
H  H19  1  0.09956713  0.04691764  0.20533671  1  0.198965  0  0.126384  0.132934  0  1.050491  0
H  H20  1  0.38350487  0.50616320  0.21083574  1  0.153378  0  0.123503  0.129363  0  1.009349  0
H  H21  1  0.11649337  0.49383481  0.71083493  1  0.153313  0  0.123504  0.129368  0  1.009365  0
H  H22  1  0.88350122  0.99383550  0.78916530  1  0.153401  0  0.123493  0.129357  0  1.009399  0
H  H23  1  0.61649529  0.00616452  0.28916490  1  0.153404  0  0.123483  0.129345  0  1.009394  0
H  H24  1  0.40378291  0.56386356  0.11859394  1  0.103343  0  0.129998  0.131001  0  0.956463  0
H  H25  1  0.09621484  0.43613571  0.61859496  1  0.103337  0  0.130009  0.130989  0  0.956488  0
H  H26  1  0.90378357  0.93613515  0.88140530  1  0.103336  0  0.129999  0.130982  0  0.956474  0
H  H27  1  0.59621949  0.06386361  0.38140548  1  0.1035  0  0.130006  0.130991  0  0.956464  0
H  H28  1  0.61297584  0.27468283  0.16092708  1  0.097266  0  0.101093  0.106299  0  1.048554  0
H  H29  1  0.88701999  0.72531722  0.66092695  1  0.09726  0  0.101081  0.106276  0  1.04858  0
H  H30  1  0.11297964  0.22531711  0.83907154  1  0.097234  0  0.101071  0.106263  0  1.048568  0
H  H31  1  0.38702534  0.77468210  0.33907288  1  0.097245  0  0.101088  0.106306  0  1.048528  0
H  H32  1  0.27358244  0.25506449  0.04906346  1  0.081958  0  0.093539  0.090794  0  1.049628  0
H  H33  1  0.22641090  0.74493480  0.54906325  1  0.081991  0  0.093525  0.090774  0  1.049699  0
H  H34  1  0.77358477  0.24493613  0.95093463  1  0.081945  0  0.093527  0.090761  0  1.049663  0
H  H35  1  0.72642068  0.75506384  0.45093590  1  0.081934  0  0.093527  0.090786  0  1.049599  0
H  H36  1  0.22549095  0.35852038  0.94073818  1  0.077031  0  0.099546  0.105475  0  1.012035  0
H  H37  1  0.27450448  0.64147880  0.44073828  1  0.076928  0  0.099561  0.105503  0  1.012014  0
H  H38  1  0.72549619  0.14148083  0.05926111  1  0.076952  0  0.099567  0.105495  0  1.012  0
H  H39  1  0.77450918  0.85852110  0.55926089  1  0.077011  0  0.09954  0.105479  0  1.012011  0
H  H40  1  0.51820285  0.48255073  0.93536325  1  0.138914  0  0.107451  0.134786  0  1.041909  0
H  H41  1  0.98179242  0.51744924  0.43536349  1  0.138909  0  0.107485  0.134811  0  1.041882  0
H  H42  1  0.01820778  0.01745164  0.06463715  1  0.138729  0  0.107443  0.134782  0  1.041892  0
H  H43  1  0.48179573  0.98255011  0.56463518  1  0.138935  0  0.107451  0.134799  0  1.041886  0
C  C44  1  0.17521591  0.69231038  0.18689723  1  0.960316  0  0.152696  0.09731  0  3.876643  0
C  C45  1  0.32478220  0.30769010  0.68689658  1  0.96027  0  0.152699  0.097349  0  3.876723  0
C  C46  1  0.67521572  0.80768948  0.81310310  1  0.96029  0  0.152713  0.097375  0  3.876637  0
C  C47  1  0.82478294  0.19230929  0.31310275  1  0.960311  0  0.152736  0.097346  0  3.876574  0
C  C48  1  0.88345085  0.68443702  0.28584477  1  0.37653  0  -0.000127  -0.035001  0  3.981054  0
C  C49  1  0.61654564  0.31556300  0.78584583  1  0.376529  0  -0.000105  -0.034914  0  3.981032  0
C  C50  1  0.38345029  0.81556291  0.71415446  1  0.376514  0  -0.000119  -0.034998  0  3.980982  0
C  C51  1  0.11654393  0.18443818  0.21415340  1  0.376475  0  -8.1e-05  -0.034895  0  3.980929  0
C  C52  1  0.95797820  0.60531500  0.26796873  1  0.32663  0  0.010619  -0.074293  0  3.871624  0
C  C53  1  0.54201618  0.39468625  0.76796731  1  0.326383  0  0.010582  -0.07437  0  3.871789  0
C  C54  1  0.45797803  0.89468681  0.73203356  1  0.326384  0  0.010564  -0.074323  0  3.871698  0
C  C55  1  0.04202032  0.10531551  0.23203128  1  0.326689  0  0.010594  -0.074315  0  3.871696  0
C  C56  1  0.26695978  0.54048797  0.16545846  1  0.302876  0  -0.034808  -0.171424  0  3.87649  0
C  C57  1  0.23304225  0.45951129  0.66545832  1  0.302948  0  -0.034767  -0.171353  0  3.876545  0
C  C58  1  0.76696028  0.95951254  0.83454132  1  0.302841  0  -0.034783  -0.171354  0  3.876483  0
C  C59  1  0.73304656  0.04048808  0.33454096  1  0.302768  0  -0.034768  -0.171345  0  3.876474  0
C  C60  1  0.05564920  0.48633022  0.12866916  1  1.004803  0  0.2355  0.346422  0  3.962066  0
C  C61  1  0.44434860  0.51366904  0.62866851  1  1.0048  0  0.235481  0.346424  0  3.961992  0
C  C62  1  0.55564821  0.01366969  0.87133126  1  1.004841  0  0.235504  0.346457  0  3.961949  0
C  C63  1  0.94435278  0.98632968  0.37133135  1  1.004808  0  0.235489  0.346425  0  3.961919  0
C  C64  1  0.75842461  0.38852933  0.10863977  1  0.353859  0  0.082452  0.140705  0  4.051483  0
C  C65  1  0.74157094  0.61147073  0.60863899  1  0.353868  0  0.082454  0.140696  0  4.051474  0
C  C66  1  0.25842826  0.11147189  0.89136135  1  0.354294  0  0.082458  0.140729  0  4.051543  0
C  C67  1  0.24157902  0.88852792  0.39136077  1  0.353878  0  0.082495  0.140724  0  4.051531  0
C  C68  1  0.59381768  0.31855372  0.11150664  1  0.009096  0  -0.101129  -0.167888  0  3.999953  0
C  C69  1  0.90617789  0.68144634  0.61150713  1  0.009342  0  -0.101104  -0.167846  0  3.999872  0
C  C70  1  0.09382157  0.18144683  0.88849198  1  0.009367  0  -0.101108  -0.167821  0  3.999805  0
C  C71  1  0.40618770  0.81855237  0.38849392  1  0.008876  0  -0.101094  -0.167781  0  3.999731  0
C  C72  1  0.40621005  0.30864679  0.04965405  1  -0.096382  0  -0.101833  -0.098487  0  4.035751  0
C  C73  1  0.09378329  0.69135311  0.54965379  1  -0.096607  0  -0.101812  -0.09845  0  4.035802  0
C  C74  1  0.90622025  0.19135510  0.95034653  1  -0.096571  0  -0.101838  -0.098465  0  4.03584  0
C  C75  1  0.59378722  0.80864487  0.45034771  1  -0.096206  0  -0.101862  -0.098579  0  4.035865  0
C  C76  1  0.37949463  0.36704270  0.98696621  1  -0.001127  0  -0.096562  -0.084234  0  4.017722  0
C  C77  1  0.12049902  0.63295770  0.48696564  1  -0.001003  0  -0.096569  -0.084265  0  4.017841  0
C  C78  1  0.87949758  0.13296042  0.01303315  1  -0.001145  0  -0.096584  -0.084267  0  4.017879  0
C  C79  1  0.62050553  0.86704214  0.51303346  1  -0.001109  0  -0.096526  -0.084128  0  4.017808  0
C  C80  1  0.54285032  0.43665381  0.98285165  1  -0.038912  0  -0.092799  -0.161473  0  3.948532  0
C  C81  1  0.95714924  0.56334615  0.48285247  1  -0.038941  0  -0.092832  -0.161525  0  3.948601  0
C  C82  1  0.04284912  0.06334919  0.01714876  1  -0.038712  0  -0.092739  -0.161408  0  3.948577  0
C  C83  1  0.45714809  0.93665257  0.51714739  1  -0.038904  0  -0.092819  -0.161589  0  3.94873  0
C  C84  1  0.73470949  0.44557346  0.04421681  1  0.314565  0  0.094002  0.144006  0  4.019406  0
C  C85  1  0.76528773  0.55442663  0.54421606  1  0.314562  0  0.093995  0.144039  0  4.01945  0
C  C86  1  0.23471529  0.05442776  0.95578551  1  0.314368  0  0.094005  0.143975  0  4.019445  0
C  C87  1  0.26529233  0.94557327  0.45578311  1  0.314523  0  0.094031  0.144105  0  4.019538  0
S  S88  1  0.53550869  0.42043760  0.36180667  1  3.780571  0  0.554136  1.398878  0  6.388788  0
S  S89  1  0.96449225  0.57956178  0.86180722  1  3.780772  0  0.554206  1.399081  0  6.388705  0
S  S90  1  0.03550683  0.07956293  0.63819313  1  3.780522  0  0.554171  1.398994  0  6.388669  0
S  S91  1  0.46449304  0.92043757  0.13819265  1  3.780555  0  0.554151  1.398922  0  6.388629  0
N  N92  1  0.02049412  0.73822947  0.23537611  1  -1.238386  0  -0.35986  -0.29535  0  3.616515  0
N  N93  1  0.47950223  0.26177038  0.73537494  1  -1.238415  0  -0.359829  -0.295373  0  3.616507  0
N  N94  1  0.52049552  0.76177034  0.76462476  1  -1.238442  0  -0.359836  -0.295346  0  3.616397  0
N  N95  1  0.97950086  0.23823092  0.26462507  1  -1.238459  0  -0.359859  -0.295356  0  3.616478  0
N  N96  1  0.14182987  0.61145958  0.20542196  1  -1.230292  0  -0.234017  0.059235  0  3.762652  0
N  N97  1  0.35816632  0.38854028  0.70542130  1  -1.230133  0  -0.234071  0.059209  0  3.762859  0
N  N98  1  0.64183191  0.88854027  0.79458018  1  -1.230085  0  -0.234064  0.059142  0  3.762752  0
N  N99  1  0.85817271  0.11145974  0.29457866  1  -1.230346  0  -0.234061  0.059187  0  3.762787  0
N  N100  1  0.95946492  0.41627647  0.16106148  1  -1.218451  0  -0.353593  -0.412891  0  3.491268  0
N  N101  1  0.54053494  0.58372358  0.66106122  1  -1.218446  0  -0.353582  -0.412867  0  3.491164  0
N  N102  1  0.45946415  0.08372544  0.83893913  1  -1.218647  0  -0.353591  -0.412912  0  3.491264  0
N  N103  1  0.04054083  0.91627500  0.33893845  1  -1.218415  0  -0.353639  -0.412989  0  3.491325  0
N  N104  1  0.92504560  0.50610288  0.05931678  1  -1.275868  0  -0.364868  -0.310183  0  3.555169  0
N  N105  1  0.57495372  0.49389720  0.55931595  1  -1.276792  0  -0.3649  -0.310266  0  3.555237  0
N  N106  1  0.42504692  0.99389645  0.94068428  1  -1.275864  0  -0.364907  -0.310249  0  3.555244  0
N  N107  1  0.07495860  0.00610272  0.44068265  1  -1.275862  0  -0.364909  -0.310289  0  3.55529  0
O  O108  1  0.84094264  0.41490538  0.35437325  1  -1.320798  0  -0.372707  -0.664382  0  2.365014  0
O  O109  1  0.65906229  0.58509153  0.85437366  1  -1.320806  0  -0.372667  -0.664357  0  2.364987  0
O  O110  1  0.34094084  0.08509402  0.64562669  1  -1.32077  0  -0.372707  -0.664419  0  2.364984  0
O  O111  1  0.15905907  0.91490647  0.14562607  1  -1.320818  0  -0.372691  -0.664376  0  2.365004  0
O  O112  1  0.42755860  0.36619538  0.29384213  1  -1.33133  0  -0.377173  -0.686056  0  2.354946  0
O  O113  1  0.07244210  0.63380322  0.79384308  1  -1.331488  0  -0.377194  -0.686101  0  2.355086  0
O  O114  1  0.92755920  0.13380405  0.70615665  1  -1.331332  0  -0.377184  -0.686067  0  2.355011  0
O  O115  1  0.57243889  0.86619537  0.20615720  1  -1.331318  0  -0.377174  -0.686067  0  2.354991  0
O  O116  1  0.45566957  0.38572239  0.44090900  1  -1.334789  0  -0.368135  -0.634956  0  2.115965  0
O  O117  1  0.04432990  0.61427679  0.94090934  1  -1.334803  0  -0.36815  -0.635011  0  2.115937  0
O  O118  1  0.95566729  0.11427767  0.55909101  1  -1.33477  0  -0.368119  -0.634973  0  2.115975  0
O  O119  1  0.54433001  0.88572179  0.05909033  1  -1.334784  0  -0.368107  -0.634937  0  2.115853  0
O  O120  1  0.44973625  0.50610152  0.35049817  1  -1.343945  0  -0.357421  -0.63841  0  2.14318  0
O  O121  1  0.05026677  0.49389830  0.85049855  1  -1.344  0  -0.357464  -0.638505  0  2.14312  0
O  O122  1  0.94973387  0.99389905  0.64950229  1  -1.343946  0  -0.357466  -0.638474  0  2.143033  0
O  O123  1  0.55026593  0.00610162  0.14950186  1  -1.343947  0  -0.357423  -0.638419  0  2.143164  0
