# generated using pymatgen
data_ZnH7C16Br2NO4
_symmetry_space_group_name_H-M   'P 1'
_cell_length_a   11.06121034
_cell_length_b   11.70899422
_cell_length_c   13.12931117
_cell_angle_alpha   90.59074485
_cell_angle_beta   88.79503593
_cell_angle_gamma   82.24686241
_symmetry_Int_Tables_number   1
_chemical_formula_structural   ZnH7C16Br2NO4
_chemical_formula_sum   'Zn2 H14 C32 Br4 N2 O8'
_cell_volume   1684.38563993
_cell_formula_units_Z   2
loop_
 _symmetry_equiv_pos_site_id
 _symmetry_equiv_pos_as_xyz
  1  'x, y, z'
loop_
 _atom_site_type_symbol
 _atom_site_label
 _atom_site_symmetry_multiplicity
 _atom_site_fract_x
 _atom_site_fract_y
 _atom_site_fract_z
 _atom_site_occupancy
 _atom_site_pbe_bader_charge
 _atom_site_pbe_bader_spin_density
 _atom_site_pbe_cm5_charge
 _atom_site_pbe_ddec_charge
 _atom_site_pbe_ddec_spin_density
 _atom_site_pbe_ddec_sum_bond_order
 _atom_site_pbe_magmom
Zn  Zn0  1  0.48747983  0.61697862  0.51578831  1  1.281636  0  0.665207  0.823045  0  2.419834  0
Zn  Zn1  1  0.52113638  0.38090882  0.48700412  1  1.286601  0  0.671576  0.82225  0  2.405826  0
H  H2  1  0.14531773  0.32463621  0.47258508  1  0.117361  0  0.102825  0.121084  0  1.011343  0
H  H3  1  0.05079032  0.90606566  0.52172503  1  0.074699  0  0.098719  0.111087  0  1.002523  0
H  H4  1  0.75675378  0.70813531  0.58127235  1  0.123802  0  0.104671  0.131862  0  1.02554  0
H  H5  1  0.55754439  0.35288256  0.17011109  1  0.09384  0  0.104407  0.11156  0  1.004147  0
H  H6  1  0.44520641  0.71779776  0.19236126  1  0.082274  0  0.101227  0.105958  0  1.005394  0
H  H7  1  0.58195479  0.25613164  0.99848351  1  0.105715  0  0.103507  0.117426  0  0.997235  0
H  H8  1  0.43633544  0.73057565  0.00269487  1  0.07655  0  0.102049  0.101871  0  0.997268  0
H  H9  1  0.46555304  0.63300080  0.83204546  1  0.125468  0  0.096058  0.099332  0  1.049686  0
H  H10  1  0.58760708  0.78919983  0.41009368  1  0.161344  0  0.136311  0.118759  0  0.969515  0
H  H11  1  0.66474233  0.97330951  0.33635039  1  0.120511  0  0.124408  0.135772  0  0.963452  0
H  H12  1  0.33750024  0.03098747  0.66798532  1  0.139373  0  0.123067  0.144913  0  0.973172  0
H  H13  1  0.65826473  0.18858757  0.35150937  1  0.120775  0  0.126391  0.104631  0  0.978741  0
H  H14  1  0.41351326  0.21180210  0.59630517  1  0.152168  0  0.130105  0.113741  0  0.989775  0
H  H15  1  0.18730713  0.72662909  0.47652808  1  0.092011  0  0.103523  0.118406  0  1.025029  0
C  C16  1  0.50604399  0.46928994  0.69595038  1  1.601612  0  0.211294  0.607044  0  4.14868  0
C  C17  1  0.54830215  0.34521433  0.85806465  1  -0.035455  0  -0.0107  0.101524  0  3.932357  0
C  C18  1  0.48867951  0.55080974  0.87005144  1  -0.110131  0  -0.07708  -0.120528  0  3.922139  0
C  C19  1  0.26916229  0.49863564  0.49114454  1  1.57859  0  0.217929  0.60292  0  4.139972  0
C  C20  1  0.49163409  0.54765492  0.97734364  1  0.03911  0  -0.00603  0.075842  0  4.008074  0
C  C21  1  0.52579234  0.43886542  0.02497953  1  0.051418  0  -0.003325  0.093101  0  4.00764  0
C  C22  1  0.53138090  0.43474244  0.13242649  1  -0.014426  0  -0.076171  -0.128555  0  3.915192  0
C  C23  1  0.46806543  0.64148614  0.14396995  1  0.044284  0  -0.089124  -0.101059  0  4.003965  0
C  C24  1  0.46289249  0.64810398  0.03950228  1  -0.114184  0  -0.088524  -0.128619  0  3.99673  0
C  C25  1  0.60708992  0.02298935  0.39396528  1  -0.000192  0  -0.06656  -0.150402  0  3.95879  0
C  C26  1  0.60441005  0.14056258  0.40177741  1  0.44892  0  0.048625  0.078979  0  3.923619  0
C  C27  1  0.05186369  0.61283791  0.50369264  1  -0.023323  0  -0.000586  0.055664  0  3.931019  0
C  C28  1  0.46610305  0.15564999  0.53974748  1  0.586423  0  0.080556  0.081714  0  3.834628  0
C  C29  1  0.46293589  0.03518775  0.53843149  1  -0.009217  0  0.010052  0.068456  0  4.008105  0
C  C30  1  0.53551084  0.96717485  0.46332206  1  -0.012531  0  0.006478  0.041205  0  4.025226  0
C  C31  1  0.50793398  0.52623876  0.30500692  1  1.563583  0  0.215258  0.596516  0  4.157605  0
C  C32  1  0.53356804  0.84681739  0.46480607  1  0.529417  0  0.08412  0.096823  0  3.821546  0
C  C33  1  0.39883272  0.86264629  0.60444961  1  0.429281  0  0.113396  0.227105  0  3.98159  0
C  C34  1  0.39332052  0.98092120  0.60960322  1  0.018426  0  -0.074813  -0.205149  0  3.94859  0
C  C35  1  0.73789884  0.50049905  0.50704280  1  1.589959  0  0.214717  0.608799  0  4.141123  0
C  C36  1  0.09321379  0.72260308  0.49943023  1  -0.033202  0  -0.091427  -0.107281  0  3.985549  0
C  C37  1  0.01799356  0.82248355  0.52528442  1  0.028308  0  -0.107825  -0.155461  0  4.058945  0
C  C38  1  0.13193228  0.50679407  0.48987296  1  0.037072  0  -0.005198  -0.043391  0  3.898907  0
C  C39  1  0.89840156  0.81372297  0.56022642  1  -0.160188  0  -0.02259  0.115739  0  4.007283  0
C  C40  1  0.85041327  0.71130888  0.55678571  1  0.025029  0  -0.102507  -0.193777  0  3.955082  0
C  C41  1  0.92389967  0.60816252  0.52197031  1  0.027391  0  0.006615  0.092684  0  3.90155  0
C  C42  1  0.08335682  0.40446546  0.48332644  1  -0.057013  0  -0.092129  -0.153675  0  3.995403  0
C  C43  1  0.95655338  0.40171189  0.48929271  1  -0.066029  0  -0.004889  0.111268  0  3.925298  0
C  C44  1  0.87409326  0.50101035  0.50812261  1  0.045498  0  -0.010856  -0.116368  0  3.846955  0
C  C45  1  0.50329468  0.53387763  0.19128372  1  -0.077189  0  -0.016947  -0.02684  0  3.974174  0
C  C46  1  0.51511252  0.45267507  0.80901535  1  -0.014698  0  -0.0176  -0.065454  0  3.926902  0
C  C47  1  0.55405935  0.33880752  0.96269624  1  -0.081058  0  -0.096629  -0.193153  0  3.982322  0
Br  Br48  1  0.59515874  0.20352659  0.78458748  1  -0.076735  0  0.002096  -0.088395  0  1.4457  0
Br  Br49  1  0.30655261  0.78923828  0.69989315  1  0.023034  0  0.103993  0.013701  0  1.4721  0
Br  Br50  1  0.80311670  0.94996551  0.61483251  1  -0.10062  0  -0.000184  -0.098691  0  1.426235  0
Br  Br51  1  0.91281446  0.25080962  0.46798282  1  -0.057028  0  0.008152  -0.08255  0  1.456233  0
N  N52  1  0.46786948  0.79667638  0.53301478  1  -1.221692  0  -0.308108  -0.227719  0  3.482914  0
N  N53  1  0.53440116  0.20509679  0.47412705  1  -1.239975  0  -0.308993  -0.17554  0  3.520145  0
O  O54  1  0.52518902  0.56755086  0.66327721  1  -1.164152  0  -0.319984  -0.5524  0  2.342143  0
O  O55  1  0.47798931  0.38701229  0.64120087  1  -1.170436  0  -0.316765  -0.55094  0  2.378217  0
O  O56  1  0.31289403  0.58514229  0.52816642  1  -1.163727  0  -0.315687  -0.555406  0  2.434411  0
O  O57  1  0.33184727  0.40558898  0.45972216  1  -1.168357  0  -0.315413  -0.539566  0  2.278147  0
O  O58  1  0.46887882  0.61667977  0.35704924  1  -1.165311  0  -0.319951  -0.55189  0  2.295738  0
O  O59  1  0.55017190  0.42850290  0.34146802  1  -1.16405  0  -0.321679  -0.551662  0  2.335409  0
O  O60  1  0.67259999  0.59470775  0.48382914  1  -1.1664  0  -0.314793  -0.547701  0  2.359056  0
O  O61  1  0.69617264  0.40727234  0.52682631  1  -1.154162  0  -0.314263  -0.538605  0  2.386377  0
