# generated using pymatgen
data_Cd3H16C16S2N4O15
_symmetry_space_group_name_H-M   'P 1'
_cell_length_a   6.62230631
_cell_length_b   13.10145353
_cell_length_c   13.59330000
_cell_angle_alpha   104.25147125
_cell_angle_beta   96.63258376
_cell_angle_gamma   97.66309954
_symmetry_Int_Tables_number   1
_chemical_formula_structural   Cd3H16C16S2N4O15
_chemical_formula_sum   'Cd6 H32 C32 S4 N8 O30'
_cell_volume   1119.28704088
_cell_formula_units_Z   2
loop_
 _symmetry_equiv_pos_site_id
 _symmetry_equiv_pos_as_xyz
  1  'x, y, z'
loop_
 _atom_site_type_symbol
 _atom_site_label
 _atom_site_symmetry_multiplicity
 _atom_site_fract_x
 _atom_site_fract_y
 _atom_site_fract_z
 _atom_site_occupancy
 _atom_site_hle17_bader_spin_density
 _atom_site_hle17_ddec_charge
 _atom_site_hle17_ddec_spin_density
 _atom_site_hle17_ddec_sum_bond_order
 _atom_site_hle17_magmom
 _atom_site_hse06_10hf_bader_spin_density
 _atom_site_hse06_10hf_ddec_charge
 _atom_site_hse06_10hf_ddec_spin_density
 _atom_site_hse06_10hf_ddec_sum_bond_order
 _atom_site_hse06_10hf_magmom
 _atom_site_hse06_bader_spin_density
 _atom_site_hse06_ddec_charge
 _atom_site_hse06_ddec_spin_density
 _atom_site_hse06_ddec_sum_bond_order
 _atom_site_hse06_magmom
 _atom_site_pbe_bader_charge
 _atom_site_pbe_bader_spin_density
 _atom_site_pbe_cm5_charge
 _atom_site_pbe_ddec_charge
 _atom_site_pbe_ddec_spin_density
 _atom_site_pbe_ddec_sum_bond_order
 _atom_site_pbe_magmom
Cd  Cd0  1  0.60788706  0.48005556  0.36951926  1  0  1.33408  0  1.504915  0  0  1.165346  0  1.933237  0  0  1.222295  0  1.87438  0  1.37478  0  0.80055  1.124012  0  1.974081  0
Cd  Cd1  1  0.39211195  0.51994316  0.63047980  1  0  1.334057  0  1.504948  0  0  1.165331  0  1.933273  0  0  1.22228  0  1.874417  0  1.374785  0  0.800534  1.123991  0  1.974121  0
Cd  Cd2  1  0.84544051  0.24382321  0.31310646  1  0  1.272443  0  1.596424  0  0  1.102138  0  2.034096  0  0  1.151911  0  1.981461  0  1.334399  0  0.802004  1.066304  0  2.070504  0
Cd  Cd3  1  0.15455875  0.75617630  0.68689353  1  0  1.272442  0  1.596433  0  0  1.10215  0  2.034107  0  0  1.151923  0  1.981473  0  1.33443  0  0.801991  1.066313  0  2.070516  0
Cd  Cd4  1  0.17595859  0.31965199  0.10818933  1  0  1.304842  0  1.531904  0  0  1.131722  0  1.967659  0  0  1.184914  0  1.913515  0  1.369374  0  0.815179  1.093199  0  2.005235  0
Cd  Cd5  1  0.82403764  0.68034753  0.89181049  1  0  1.304792  0  1.531956  0  0  1.131664  0  1.967722  0  0  1.184859  0  1.913577  0  1.369389  0  0.815164  1.09314  0  2.005297  0
H  H6  1  0.94438835  0.56780747  0.08238162  1  0  0.110688  0  0.968485  0  0  0.12223  0  1.026387  0  0  0.124041  0  1.023481  0  0.217255  0  0.142798  0.120826  0  1.028488  0
H  H7  1  0.05560965  0.43219284  0.91761922  1  0  0.110653  0  0.968482  0  0  0.122203  0  1.026374  0  0  0.12401  0  1.023477  0  0.217235  0  0.14279  0.120799  0  1.028476  0
H  H8  1  0.05352060  0.94058034  0.03873479  1  0  0.118586  0  0.97158  0  0  0.126044  0  1.039581  0  0  0.129782  0  1.036179  0  0.127439  0  0.10497  0.123296  0  1.042146  0
H  H9  1  0.94648222  0.05942077  0.96126431  1  0  0.118578  0  0.971619  0  0  0.126035  0  1.039623  0  0  0.129773  0  1.036221  0  0.127467  0  0.104956  0.123287  0  1.042189  0
H  H10  1  0.20555824  0.06513030  0.36763359  1  0  0.090369  0  0.970597  0  0  0.102724  0  1.030923  0  0  0.105673  0  1.028594  0  0.073362  0  0.098327  0.100565  0  1.032699  0
H  H11  1  0.79444306  0.93487081  0.63236616  1  0  0.090356  0  0.970622  0  0  0.102708  0  1.030943  0  0  0.105656  0  1.028617  0  0.073391  0  0.098335  0.10055  0  1.032715  0
H  H12  1  0.16120631  0.88001638  0.39232820  1  0  0.108857  0  0.961206  0  0  0.119506  0  1.02096  0  0  0.122512  0  1.019654  0  0.083494  0  0.10225  0.117256  0  1.022179  0
H  H13  1  0.83879348  0.11998473  0.60767220  1  0  0.108855  0  0.961208  0  0  0.119501  0  1.020966  0  0  0.122507  0  1.019658  0  0.08349  0  0.102247  0.117251  0  1.022185  0
H  H14  1  0.66931853  0.88522502  0.48321484  1  0  0.089996  0  0.976146  0  0  0.101152  0  1.037927  0  0  0.104057  0  1.035969  0  0.077145  0  0.099925  0.099051  0  1.039382  0
H  H15  1  0.33068099  0.11477530  0.51678536  1  0  0.090012  0  0.976128  0  0  0.101167  0  1.037916  0  0  0.104072  0  1.035957  0  0.077143  0  0.099936  0.099066  0  1.03937  0
H  H16  1  0.71684551  0.06414609  0.44602987  1  0  0.112762  0  0.963818  0  0  0.123912  0  1.022395  0  0  0.127001  0  1.020711  0  0.111723  0  0.104846  0.12169  0  1.023704  0
H  H17  1  0.28315376  0.93585343  0.55397012  1  0  0.1128  0  0.963925  0  0  0.123945  0  1.022489  0  0  0.127033  0  1.020807  0  0.111709  0  0.104862  0.121722  0  1.023798  0
H  H18  1  0.54630113  0.72315420  0.15918679  1  0  0.131929  0  0.937934  0  0  0.140869  0  0.998499  0  0  0.144415  0  0.995543  0  0.134102  0  0.114692  0.138262  0  1.000692  0
H  H19  1  0.45369913  0.27684372  0.84081435  1  0  0.131898  0  0.93798  0  0  0.140827  0  0.998556  0  0  0.14438  0  0.995589  0  0.134107  0  0.114693  0.13822  0  1.000745  0
H  H20  1  0.06055870  0.65920143  0.26981512  1  0  0.325927  0  0.912428  0  0  0.305788  0  0.970508  0  0  0.313904  0  0.964498  0  0.543001  0  0.316365  0.300113  0  0.974763  0
H  H21  1  0.93944260  0.34079968  0.73018537  1  0  0.325924  0  0.912469  0  0  0.305806  0  0.970533  0  0  0.313909  0  0.964526  0  0.543  0  0.316377  0.300131  0  0.974787  0
H  H22  1  0.56131529  0.87075188  0.04038780  1  0  0.337105  0  0.896249  0  0  0.316453  0  0.958524  0  0  0.325065  0  0.951145  0  0.548243  0  0.319399  0.310368  0  0.963766  0
H  H23  1  0.43868041  0.12924604  0.95961161  1  0  0.337171  0  0.896202  0  0  0.316581  0  0.958391  0  0  0.325192  0  0.95101  0  0.548247  0  0.319429  0.310494  0  0.963638  0
H  H24  1  0.65360397  0.07969451  0.07938420  1  0  0.09715  0  0.9316  0  0  0.10792  0  0.992942  0  0  0.110251  0  0.989535  0  0.15464  0  0.140477  0.106146  0  0.995428  0
H  H25  1  0.34639199  0.92030421  0.92061542  1  0  0.097127  0  0.931661  0  0  0.107898  0  0.993002  0  0  0.11023  0  0.989593  0  0.154638  0  0.140469  0.106123  0  0.995488  0
H  H26  1  0.11188699  0.24878420  0.49204630  1  0  0.427009  0  0.871971  0  0  0.395727  0  0.936819  0  0  0.40645  0  0.921353  0  0.650738  0  0.291362  0.388112  0  0.947785  0
H  H27  1  0.88811076  0.75121532  0.50795287  1  0  0.426949  0  0.872077  0  0  0.395698  0  0.936863  0  0  0.406421  0  0.921397  0  0.650731  0  0.291352  0.388083  0  0.947829  0
H  H28  1  0.92017486  0.29530801  0.52441991  1  0  0.434134  0  0.867004  0  0  0.402978  0  0.929992  0  0  0.413475  0  0.914913  0  0.6602  0  0.291831  0.395576  0  0.940589  0
H  H29  1  0.07982466  0.70469231  0.47557955  1  0  0.434162  0  0.866967  0  0  0.403004  0  0.929958  0  0  0.413501  0  0.914879  0  0.660202  0  0.291831  0.395601  0  0.940558  0
H  H30  1  0.31845429  0.52574535  0.02650679  1  0  0.432017  0  0.85992  0  0  0.402289  0  0.921741  0  0  0.412428  0  0.906709  0  0.632324  0  0.295106  0.395027  0  0.932515  0
H  H31  1  0.68154549  0.47425576  0.97349361  1  0  0.431994  0  0.859942  0  0  0.402263  0  0.921766  0  0  0.412402  0  0.906735  0  0.632338  0  0.295085  0.395001  0  0.93254  0
H  H32  1  0.40590739  0.53629204  0.14424922  1  0  0.44062  0  0.843763  0  0  0.410158  0  0.908284  0  0  0.420643  0  0.89288  0  0.64505  0  0.297632  0.402701  0  0.919258  0
H  H33  1  0.59409061  0.46370828  0.85575089  1  0  0.440627  0  0.843744  0  0  0.410169  0  0.908263  0  0  0.420654  0  0.892859  0  0.64505  0  0.297635  0.402712  0  0.919236  0
H  H34  1  0.50183433  0.30397416  0.45551805  1  0  0.445573  0  0.845553  0  0  0.413466  0  0.909509  0  0  0.424317  0  0.893985  0  0.654253  0  0.298428  0.405746  0  0.920527  0
H  H35  1  0.49816620  0.69602456  0.54448109  1  0  0.445572  0  0.845552  0  0  0.413464  0  0.909508  0  0  0.424316  0  0.893983  0  0.654249  0  0.298412  0.405745  0  0.920526  0
H  H36  1  0.40566997  0.26472246  0.33831521  1  0  0.439334  0  0.859275  0  0  0.406136  0  0.9264  0  0  0.416989  0  0.910794  0  0.640836  0  0.292844  0.398485  0  0.937377  0
H  H37  1  0.59432955  0.73527786  0.66168499  1  0  0.439275  0  0.859362  0  0  0.406087  0  0.926474  0  0  0.41694  0  0.910867  0  0.64081  0  0.292807  0.398435  0  0.937451  0
C  C38  1  0.98469740  0.65356860  0.11217326  1  0  0.289923  0  3.628217  0  0  0.223592  0  3.902742  0  0  0.242785  0  3.911774  0  1.034215  0  0.167142  0.211021  0  3.896228  0
C  C39  1  0.01530238  0.34643252  0.88782788  1  0  0.290046  0  3.628095  0  0  0.223747  0  3.902619  0  0  0.242919  0  3.911636  0  1.034175  0  0.167214  0.211177  0  3.896104  0
C  C40  1  0.08082004  0.92745171  0.11477426  1  0  -0.125439  0  3.681735  0  0  -0.162713  0  3.942299  0  0  -0.160693  0  3.958313  0  -0.009972  0  -0.089879  -0.163875  0  3.931809  0
C  C41  1  0.91918126  0.07254941  0.88522548  1  0  -0.125464  0  3.681797  0  0  -0.162711  0  3.942372  0  0  -0.160692  0  3.958383  0  -0.01003  0  -0.089877  -0.16388  0  3.931879  0
C  C42  1  0.04832188  0.82473536  0.12812880  1  0  0.145862  0  3.798152  0  0  0.144625  0  4.046078  0  0  0.147195  0  4.068874  0  0.385022  0  0.08325  0.142642  0  4.030844  0
C  C43  1  0.95167612  0.17526496  0.87187131  1  0  0.145948  0  3.798052  0  0  0.144659  0  4.046073  0  0  0.147226  0  4.068877  0  0.385044  0  0.083272  0.142693  0  4.030816  0
C  C44  1  0.16564388  0.99547392  0.30193503  1  0  -0.065723  0  3.762009  0  0  -0.094954  0  4.01991  0  0  -0.093916  0  4.041401  0  0.040533  0  -0.094471  -0.095404  0  4.005527  0
C  C45  1  0.83435768  0.00452800  0.69806493  1  0  -0.065719  0  3.762049  0  0  -0.094946  0  4.019939  0  0  -0.09391  0  4.041431  0  0.040541  0  -0.094489  -0.095396  0  4.005555  0
C  C46  1  0.14141235  0.89365630  0.31632035  1  0  -0.150355  0  3.767869  0  0  -0.168527  0  4.024315  0  0  -0.173733  0  4.046169  0  -0.025182  0  -0.094138  -0.165109  0  4.009951  0
C  C47  1  0.85858895  0.10634482  0.68368014  1  0  -0.150348  0  3.767857  0  0  -0.168493  0  4.024295  0  0  -0.173699  0  4.046154  0  -0.025283  0  -0.094122  -0.165076  0  4.009934  0
C  C48  1  0.08521674  0.80880828  0.22799646  1  0  0.160443  0  3.796346  0  0  0.150484  0  4.040741  0  0  0.156351  0  4.062725  0  0.321679  0  0.100994  0.146641  0  4.026117  0
C  C49  1  0.91478456  0.19119284  0.77200402  1  0  0.160398  0  3.796188  0  0  0.150443  0  4.040669  0  0  0.156286  0  4.062649  0  0.321735  0  0.100958  0.146594  0  4.026044  0
C  C50  1  0.14000745  0.01320932  0.20305991  1  0  -0.09736  0  3.791469  0  0  -0.077513  0  4.037961  0  0  -0.08803  0  4.063475  0  -0.059365  0  -0.036949  -0.070778  0  4.021201  0
C  C51  1  0.85999538  0.98679179  0.79693993  1  0  -0.097353  0  3.791429  0  0  -0.077494  0  4.037901  0  0  -0.088008  0  4.06341  0  -0.059366  0  -0.036901  -0.070759  0  4.021142  0
C  C52  1  0.65220460  0.89093055  0.40431433  1  0  -0.070593  0  3.750488  0  0  -0.098405  0  4.005148  0  0  -0.098157  0  4.027296  0  -0.083548  0  -0.089706  -0.098247  0  3.990091  0
C  C53  1  0.34779618  0.10906897  0.59568648  1  0  -0.070597  0  3.750457  0  0  -0.098404  0  4.005115  0  0  -0.098154  0  4.027262  0  -0.083545  0  -0.089691  -0.098246  0  3.990058  0
C  C54  1  0.60396933  0.69087025  0.35042325  1  0  0.652659  0  3.892839  0  0  0.596629  0  4.187302  0  0  0.632286  0  4.180371  0  1.507017  0  0.205554  0.572502  0  4.191045  0
C  C55  1  0.39603119  0.30912847  0.64957662  1  0  0.652704  0  3.892929  0  0  0.596666  0  4.187405  0  0  0.632325  0  4.180475  0  1.506962  0  0.205563  0.572538  0  4.191148  0
C  C56  1  0.60785258  0.79466987  0.32447182  1  0  -0.082295  0  3.78187  0  0  -0.062063  0  4.027396  0  0  -0.072144  0  4.051618  0  0.069515  0  -0.026549  -0.055613  0  4.011329  0
C  C57  1  0.39214820  0.20532965  0.67552826  1  0  -0.082269  0  3.78184  0  0  -0.062056  0  4.027385  0  0  -0.07214  0  4.051614  0  0.069551  0  -0.02656  -0.055606  0  4.011317  0
C  C58  1  0.67694638  0.99043145  0.38463582  1  0  -0.141531  0  3.737241  0  0  -0.157671  0  3.986126  0  0  -0.162831  0  4.007454  0  -0.009754  0  -0.091302  -0.154205  0  3.971706  0
C  C59  1  0.32305414  0.00956727  0.61536331  1  0  -0.141608  0  3.737231  0  0  -0.157725  0  3.98614  0  0  -0.16288  0  4.007456  0  -0.009727  0  -0.091354  -0.154259  0  3.971721  0
C  C60  1  0.57943229  0.79621249  0.22134064  1  0  -0.112595  0  3.674621  0  0  -0.14809  0  3.931232  0  0  -0.146135  0  3.948265  0  -0.032321  0  -0.074415  -0.149229  0  3.920066  0
C  C61  1  0.42057002  0.20378703  0.77866026  1  0  -0.112536  0  3.674575  0  0  -0.148008  0  3.931164  0  0  -0.146055  0  3.948191  0  -0.032302  0  -0.074392  -0.149145  0  3.919996  0
C  C62  1  0.60222849  0.89614078  0.20210944  1  0  0.151653  0  3.7714  0  0  0.148388  0  4.009093  0  0  0.150034  0  4.032463  0  0.370606  0  0.101068  0.147091  0  3.993768  0
C  C63  1  0.39777507  0.10385794  0.79789060  1  0  0.151568  0  3.771465  0  0  0.148346  0  4.009149  0  0  0.14999  0  4.032522  0  0.370594  0  0.101041  0.147051  0  3.993817  0
C  C64  1  0.65431737  0.99253407  0.28160807  1  0  0.161742  0  3.825009  0  0  0.160744  0  4.061736  0  0  0.166236  0  4.085746  0  0.406243  0  0.096366  0.157053  0  4.045689  0
C  C65  1  0.34568493  0.00746544  0.71839282  1  0  0.161773  0  3.824924  0  0  0.1607  0  4.061725  0  0  0.166192  0  4.085735  0  0.40627  0  0.096368  0.157008  0  4.045679  0
C  C66  1  0.16867203  0.12505596  0.19377837  1  0  0.651701  0  3.893353  0  0  0.59855  0  4.187475  0  0  0.63327  0  4.180951  0  1.532254  0  0.201398  0.574964  0  4.191161  0
C  C67  1  0.83132749  0.87494436  0.80622109  1  0  0.65171  0  3.893265  0  0  0.598556  0  4.187382  0  0  0.633274  0  4.18086  0  1.532248  0  0.201377  0.57497  0  4.191068  0
C  C68  1  0.64121312  0.03369955  0.13536436  1  0  0.289198  0  3.644436  0  0  0.221707  0  3.927094  0  0  0.240296  0  3.937028  0  1.050644  0  0.168644  0.209606  0  3.920017  0
C  C69  1  0.35878563  0.96629837  0.86463522  1  0  0.289286  0  3.644327  0  0  0.221795  0  3.926994  0  0  0.240385  0  3.936925  0  1.05055  0  0.168674  0.209695  0  3.919916  0
S  S70  1  0.66073472  0.33418903  0.11406844  1  0  1.571484  0  5.83206  0  0  1.447317  0  6.367985  0  0  1.503545  0  6.334109  0  3.811071  0  0.548317  1.40822  0  6.390184  0
S  S71  1  0.33926455  0.66581049  0.88593155  1  0  1.571509  0  5.831936  0  0  1.447353  0  6.367838  0  0  1.503576  0  6.333972  0  3.811155  0  0.54829  1.408258  0  6.390039  0
S  S72  1  0.12721074  0.49424510  0.36324564  1  0  1.621983  0  5.777549  0  0  1.487489  0  6.317222  0  0  1.545469  0  6.281611  0  3.836387  0  0.575056  1.447266  0  6.340694  0
S  S73  1  0.87278878  0.50575522  0.63675529  1  0  1.621844  0  5.77773  0  0  1.487358  0  6.317388  0  0  1.545341  0  6.281776  0  3.836421  0  0.575041  1.447137  0  6.340853  0
N  N74  1  0.98138650  0.72504513  0.05775750  1  0  -0.463728  0  3.16585  0  0  -0.392496  0  3.448775  0  0  -0.417625  0  3.464613  0  -1.217027  0  -0.354427  -0.375114  0  3.437445  0
N  N75  1  0.01861328  0.27495599  0.94224290  1  0  -0.463935  0  3.165858  0  0  -0.392683  0  3.448813  0  0  -0.417814  0  3.464654  0  -1.217032  0  -0.354522  -0.375307  0  3.43748  0
N  N76  1  0.04591539  0.69983038  0.21382722  1  0  -0.329154  0  3.361595  0  0  -0.266112  0  3.59858  0  0  -0.284627  0  3.609992  0  -1.282716  0  -0.375743  -0.253695  0  3.590662  0
N  N77  1  0.95408617  0.30017153  0.78617347  1  0  -0.329092  0  3.361372  0  0  -0.266126  0  3.598447  0  0  -0.28457  0  3.609801  0  -1.282652  0  -0.375743  -0.253707  0  3.59053  0
N  N78  1  0.59393428  0.92631651  0.11136263  1  0  -0.333518  0  3.385987  0  0  -0.270589  0  3.621894  0  0  -0.288854  0  3.635581  0  -1.30342  0  -0.368479  -0.258273  0  3.61255  0
N  N79  1  0.40606650  0.07368301  0.88863818  1  0  -0.333584  0  3.385886  0  0  -0.270718  0  3.621773  0  0  -0.288984  0  3.635456  0  -1.303411  0  -0.368503  -0.258402  0  3.612431  0
N  N80  1  0.67722098  0.07708060  0.23693194  1  0  -0.480172  0  3.188619  0  0  -0.40912  0  3.475699  0  0  -0.434483  0  3.491436  0  -1.200199  0  -0.363377  -0.391679  0  3.464568  0
N  N81  1  0.32278081  0.92291732  0.76306781  1  0  -0.480198  0  3.188592  0  0  -0.409139  0  3.475734  0  0  -0.434505  0  3.491475  0  -1.200214  0  -0.3634  -0.391698  0  3.464603  0
O  O82  1  0.82465206  0.27476426  0.14983360  1  0  -0.804522  0  2.060422  0  0  -0.729727  0  2.351207  0  0  -0.757054  0  2.331669  0  -1.319828  0  -0.375294  -0.71013  0  2.363915  0
O  O83  1  0.17534568  0.72523526  0.85016630  1  0  -0.8046  0  2.060445  0  0  -0.729806  0  2.351237  0  0  -0.75713  0  2.331701  0  -1.319844  0  -0.37533  -0.710209  0  2.363945  0
O  O84  1  0.53311319  0.35981279  0.19994073  1  0  -0.805675  0  2.060934  0  0  -0.725508  0  2.341364  0  0  -0.7538  0  2.322437  0  -1.324616  0  -0.374801  -0.705195  0  2.353613  0
O  O85  1  0.46688277  0.64018592  0.80005889  1  0  -0.805665  0  2.060918  0  0  -0.725498  0  2.341353  0  0  -0.753781  0  2.322417  0  -1.324609  0  -0.374768  -0.705184  0  2.353602  0
O  O86  1  0.75989355  0.43101131  0.09172992  1  0  -0.705058  0  1.9777  0  0  -0.651053  0  2.226425  0  0  -0.672857  0  2.209738  0  -1.354304  0  -0.346112  -0.635671  0  2.237571  0
O  O87  1  0.24010419  0.56898820  0.90826999  1  0  -0.705034  0  1.977662  0  0  -0.651041  0  2.22636  0  0  -0.672842  0  2.209674  0  -1.354338  0  -0.346094  -0.635663  0  2.237508  0
O  O88  1  0.57281246  0.60429508  0.27840676  1  0  -0.635225  0  2.025814  0  0  -0.565714  0  2.273603  0  0  -0.597036  0  2.264139  0  -1.153741  0  -0.307731  -0.543828  0  2.279329  0
O  O89  1  0.42718654  0.39570364  0.72159229  1  0  -0.635249  0  2.025887  0  0  -0.565728  0  2.273672  0  0  -0.597048  0  2.264208  0  -1.153704  0  -0.307727  -0.543848  0  2.279414  0
O  O90  1  0.64105408  0.68910954  0.44500860  1  0  -0.695841  0  2.049051  0  0  -0.621698  0  2.277343  0  0  -0.650111  0  2.265486  0  -1.199328  0  -0.324608  -0.601673  0  2.28482  0
O  O91  1  0.35894441  0.31088758  0.55499078  1  0  -0.695895  0  2.049061  0  0  -0.621744  0  2.27737  0  0  -0.650155  0  2.265512  0  -1.199333  0  -0.324628  -0.601718  0  2.284848  0
O  O92  1  0.93229159  0.42961089  0.37928694  1  0  -0.794279  0  2.09157  0  0  -0.710139  0  2.38602  0  0  -0.738519  0  2.363946  0  -1.31191  0  -0.367854  -0.689935  0  2.400479  0
O  O93  1  0.06770819  0.57039022  0.62071641  1  0  -0.794209  0  2.091609  0  0  -0.710109  0  2.386106  0  0  -0.738499  0  2.364041  0  -1.311914  0  -0.367828  -0.689885  0  2.400524  0
O  O94  1  0.09455044  0.60624911  0.37634799  1  0  -0.717787  0  1.987294  0  0  -0.652317  0  2.225217  0  0  -0.674051  0  2.20737  0  -1.349552  0  -0.340835  -0.637297  0  2.237402  0
O  O95  1  0.90544935  0.39375200  0.62365315  1  0  -0.717724  0  1.987355  0  0  -0.652237  0  2.22526  0  0  -0.673977  0  2.207419  0  -1.349545  0  -0.34082  -0.637219  0  2.237441  0
O  O96  1  0.17776947  0.45048618  0.26097147  1  0  -0.741255  0  2.105067  0  0  -0.675591  0  2.393007  0  0  -0.700923  0  2.373981  0  -1.352573  0  -0.354996  -0.657651  0  2.405474  0
O  O97  1  0.82222523  0.54951334  0.73902826  1  0  -0.741178  0  2.105045  0  0  -0.675561  0  2.393087  0  0  -0.700903  0  2.374086  0  -1.352592  0  -0.354989  -0.657623  0  2.405553  0
O  O98  1  0.51950973  0.26345066  0.02353167  1  0  -0.729645  0  1.984312  0  0  -0.678392  0  2.246948  0  0  -0.699767  0  2.229747  0  -1.360595  0  -0.356171  -0.663137  0  2.258331  0
O  O99  1  0.48048954  0.73654886  0.97646685  1  0  -0.729643  0  1.984328  0  0  -0.678354  0  2.246935  0  0  -0.699735  0  2.229738  0  -1.360659  0  -0.35615  -0.663101  0  2.258318  0
O  O100  1  0.30003119  0.48833106  0.44233712  1  0  -0.780132  0  2.062378  0  0  -0.70502  0  2.351887  0  0  -0.732781  0  2.33177  0  -1.322253  0  -0.364295  -0.685272  0  2.365061  0
O  O101  1  0.69996985  0.51166926  0.55766243  1  0  -0.780105  0  2.062356  0  0  -0.70498  0  2.351842  0  0  -0.732736  0  2.331719  0  -1.322229  0  -0.364306  -0.685235  0  2.365015  0
O  O102  1  0.18352460  0.14158938  0.10661379  1  0  -0.62167  0  2.009847  0  0  -0.558245  0  2.26271  0  0  -0.587216  0  2.25399  0  -1.149099  0  -0.311689  -0.537984  0  2.268032  0
O  O103  1  0.81647518  0.85841173  0.89338587  1  0  -0.621659  0  2.009817  0  0  -0.558224  0  2.262658  0  0  -0.587194  0  2.253939  0  -1.149076  0  -0.311675  -0.537963  0  2.26798  0
O  O104  1  0.17428467  0.20225400  0.27544576  1  0  -0.716899  0  2.042264  0  0  -0.640898  0  2.289282  0  0  -0.667777  0  2.274882  0  -1.212899  0  -0.345752  -0.621936  0  2.298633  0
O  O105  1  0.82571333  0.79774632  0.72455288  1  0  -0.716897  0  2.042241  0  0  -0.640892  0  2.289246  0  0  -0.667771  0  2.274847  0  -1.21291  0  -0.345749  -0.62193  0  2.298598  0
O  O106  1  0.95863145  0.23341873  0.47508119  1  0  -0.836455  0  1.845807  0  0  -0.772632  0  2.041525  0  0  -0.795845  0  2.00859  0  -1.271084  0  -0.584892  -0.756029  0  2.064303  0
O  O107  1  0.04136807  0.76658159  0.52491900  1  0  -0.836436  0  1.845856  0  0  -0.772636  0  2.041527  0  0  -0.795851  0  2.008592  0  -1.271079  0  -0.584888  -0.756033  0  2.064306  0
O  O108  1  0.30573271  0.49368029  0.08446330  1  0  -0.852921  0  1.857669  0  0  -0.795962  0  2.053414  0  0  -0.816795  0  2.020383  0  -1.251636  0  -0.589493  -0.781054  0  2.076512  0
O  O109  1  0.69426833  0.50632002  0.91553624  1  0  -0.852904  0  1.857695  0  0  -0.795942  0  2.053445  0  0  -0.816774  0  2.020413  0  -1.25164  0  -0.589472  -0.781035  0  2.076544  0
O  O110  1  0.53790100  0.30066843  0.38568549  1  0  -0.860198  0  1.910333  0  0  -0.784912  0  2.120907  0  0  -0.811816  0  2.087108  0  -1.240639  0  -0.572793  -0.765702  0  2.144215  0
O  O111  1  0.46209826  0.69933109  0.61431450  1  0  -0.860174  0  1.91041  0  0  -0.784893  0  2.12096  0  0  -0.811785  0  2.087135  0  -1.240606  0  -0.572752  -0.765682  0  2.144264  0
