# generated using pymatgen
data_ZnH14C15BrNO4
_symmetry_space_group_name_H-M   'P 1'
_cell_length_a   9.59480329
_cell_length_b   10.86791110
_cell_length_c   16.12163937
_cell_angle_alpha   90.37292857
_cell_angle_beta   89.26036876
_cell_angle_gamma   89.77268890
_symmetry_Int_Tables_number   1
_chemical_formula_structural   ZnH14C15BrNO4
_chemical_formula_sum   'Zn2 H28 C30 Br2 N2 O8'
_cell_volume   1680.90203642
_cell_formula_units_Z   2
loop_
 _symmetry_equiv_pos_site_id
 _symmetry_equiv_pos_as_xyz
  1  'x, y, z'
loop_
 _atom_site_type_symbol
 _atom_site_label
 _atom_site_symmetry_multiplicity
 _atom_site_fract_x
 _atom_site_fract_y
 _atom_site_fract_z
 _atom_site_occupancy
 _atom_site_pbe_bader_charge
 _atom_site_pbe_bader_spin_density
 _atom_site_pbe_cm5_charge
 _atom_site_pbe_ddec_charge
 _atom_site_pbe_ddec_spin_density
 _atom_site_pbe_ddec_sum_bond_order
 _atom_site_pbe_magmom
Zn  Zn0  1  0.64829959  0.49982843  0.49848214  1  1.277883  0  0.669017  0.823393  0  2.371584  0
Zn  Zn1  1  0.35547053  0.50243808  0.50024964  1  1.283027  0  0.670723  0.819203  0  2.358998  0
H  H2  1  0.39471499  0.68933807  0.05561371  1  0.062083  0  0.102944  0.091984  0  0.987787  0
H  H3  1  0.70224340  0.11041302  0.44874568  1  0.059329  0  0.081999  0.084886  0  1.017244  0
H  H4  1  0.47762213  0.10960572  0.36855107  1  0.088899  0  0.09473  0.110196  0  0.983239  0
H  H5  1  0.30957971  0.89212952  0.57248891  1  0.014494  0  0.090416  0.087767  0  0.989288  0
H  H6  1  0.46353079  0.88967489  0.63123933  1  0.055888  0  0.095722  0.096605  0  0.968816  0
H  H7  1  0.46579080  0.10453585  0.63561428  1  0.024723  0  0.091606  0.089779  0  0.974178  0
H  H8  1  0.30943844  0.10791616  0.57910282  1  0.018149  0  0.090354  0.090413  0  0.992469  0
H  H9  1  0.31974916  0.89286261  0.42084860  1  0.078704  0  0.098813  0.080137  0  0.979785  0
H  H10  1  0.31566311  0.10781110  0.42207670  1  0.024395  0  0.095566  0.104066  0  0.976358  0
H  H11  1  0.12731615  0.69583532  0.49981610  1  0.085635  0  0.11234  0.10351  0  0.982693  0
H  H12  1  0.62905864  0.67737636  0.94634514  1  0.057898  0  0.101482  0.088758  0  0.990509  0
H  H13  1  0.10622084  0.62727079  0.59860395  1  0.038806  0  0.116605  0.105613  0  0.95388  0
H  H14  1  0.86098339  0.64256107  0.57962742  1  0.096162  0  0.119076  0.113344  0  0.959592  0
H  H15  1  0.88341591  0.68571957  0.47489658  1  0.084523  0  0.116398  0.10713  0  0.961302  0
H  H16  1  0.12665538  0.56421018  0.37727580  1  0.090256  0  0.12223  0.123262  0  0.940873  0
H  H17  1  0.88138920  0.53909969  0.36902975  1  0.122891  0  0.122032  0.099019  0  0.964801  0
H  H18  1  0.12358276  0.31398254  0.52437003  1  0.063459  0  0.111075  0.102187  0  0.990779  0
H  H19  1  0.12827703  0.40904171  0.61395712  1  0.093389  0  0.115401  0.106878  0  0.958029  0
H  H20  1  0.88016527  0.42956602  0.61608337  1  0.076882  0  0.11507  0.110724  0  0.967623  0
H  H21  1  0.87741631  0.31319891  0.53853333  1  0.096909  0  0.107001  0.100158  0  0.996446  0
H  H22  1  0.14314565  0.40329052  0.38815996  1  0.101799  0  0.11366  0.115201  0  0.986861  0
H  H23  1  0.25739297  0.51231507  0.95550062  1  0.068673  0  0.100271  0.087505  0  0.992962  0
H  H24  1  0.37191200  0.32208653  0.05390548  1  0.066692  0  0.102625  0.090814  0  0.988942  0
H  H25  1  0.60671771  0.31001765  0.94517514  1  0.043998  0  0.101454  0.08873  0  0.990455  0
H  H26  1  0.74380130  0.48728538  0.04514764  1  0.059512  0  0.101345  0.089226  0  0.990844  0
H  H27  1  0.71019528  0.89573528  0.45019039  1  0.03968  0  0.08139  0.081862  0  1.013748  0
H  H28  1  0.69773513  0.89600075  0.55932838  1  0.03815  0  0.088872  0.090792  0  0.984711  0
H  H29  1  0.69894221  0.11157271  0.55780967  1  0.0275  0  0.087521  0.086502  0  0.981548  0
C  C30  1  0.49753717  0.74026116  0.49916138  1  1.56298  0  0.21622  0.583946  0  4.130047  0
C  C31  1  0.50540744  0.49941299  0.08537995  1  0.083278  0  0.007658  0.127401  0  3.796492  0
C  C32  1  0.55983055  0.39427233  0.97058495  1  0.001908  0  -0.070069  -0.076434  0  3.632454  0
C  C33  1  0.49609897  0.49993657  0.91504999  1  0.186659  0  0.005872  0.121806  0  3.803729  0
C  C34  1  0.42889368  0.40100652  0.02918281  1  -0.031821  0  -0.069188  -0.076965  0  3.630028  0
C  C35  1  0.36540216  0.50671172  0.97601224  1  -0.032881  0  -0.072449  -0.081448  0  3.64024  0
C  C36  1  0.50821632  0.50090434  0.17304236  1  -0.357797  0  -0.039601  -0.059051  0  4.098487  0
C  C37  1  0.49676734  0.50092302  0.82731073  1  -0.486715  0  -0.041296  -0.059063  0  4.115908  0
C  C38  1  0.64913733  0.93185209  0.50308494  1  -0.030216  0  -0.171462  -0.180007  0  3.897654  0
C  C39  1  0.64646097  0.07392090  0.50305104  1  -0.052653  0  -0.168514  -0.179059  0  3.884385  0
C  C40  1  0.42473601  0.93175028  0.42283726  1  0.003089  0  -0.059998  0.058901  0  3.664842  0
C  C41  1  0.51112596  0.50383959  0.33802083  1  1.61235  0  0.214848  0.663169  0  4.254073  0
C  C42  1  0.41611955  0.92859652  0.57542809  1  -0.078702  0  -0.15366  -0.163822  0  3.841365  0
C  C43  1  0.50053925  0.88106142  0.49865495  1  0.026208  0  -0.021767  -0.010477  0  3.813903  0
C  C44  1  0.49562969  0.12174350  0.50262774  1  0.087549  0  -0.016786  0.034138  0  3.799139  0
C  C45  1  0.42355342  0.07347869  0.42359680  1  -0.057511  0  -0.16065  -0.221404  0  3.847648  0
C  C46  1  0.41615006  0.07100151  0.57869943  1  0.037558  0  -0.160176  -0.176282  0  3.868669  0
C  C47  1  0.07706862  0.62001076  0.53314900  1  0.24848  0  -0.067283  -0.090336  0  3.826307  0
C  C48  1  0.91731068  0.61983788  0.52190127  1  0.194052  0  -0.065764  -0.088511  0  3.802539  0
C  C49  1  0.09080472  0.48510585  0.41367571  1  0.233039  0  -0.071849  -0.138381  0  3.839356  0
C  C50  1  0.08304308  0.39937855  0.55205845  1  0.242508  0  -0.070172  -0.092185  0  3.816661  0
C  C51  1  0.93074399  0.47365272  0.41089411  1  0.266403  0  0.021271  0.106729  0  3.689143  0
C  C52  1  0.49052676  0.26231480  0.50213427  1  1.514648  0  0.224493  0.593624  0  4.093179  0
C  C53  1  0.92225020  0.40253080  0.55505936  1  0.198315  0  -0.074604  -0.09406  0  3.817847  0
C  C54  1  0.50668286  0.50295046  0.66209885  1  1.622181  0  0.214195  0.668414  0  4.24523  0
C  C55  1  0.57237553  0.59851092  0.97138103  1  -0.01981  0  -0.069094  -0.075012  0  3.632531  0
C  C56  1  0.44150063  0.60522842  0.02992704  1  -0.008118  0  -0.068547  -0.07483  0  3.624449  0
C  C57  1  0.51033225  0.50313423  0.24861086  1  0.133346  0  -0.05918  -0.202654  0  4.020554  0
C  C58  1  0.50170804  0.50225753  0.75168154  1  0.126807  0  -0.065315  -0.216533  0  4.0245  0
C  C59  1  0.63595363  0.49282841  0.02440053  1  -0.018063  0  -0.071627  -0.079998  0  3.636299  0
Br  Br60  1  0.50985728  0.86612873  0.31773690  1  -0.185799  0  -0.055663  -0.166662  0  1.244103  0
Br  Br61  1  0.87978791  0.31228674  0.36449992  1  -0.105218  0  0.01375  -0.095119  0  1.336158  0
N  N62  1  0.13676696  0.50273534  0.50045264  1  -0.997483  0  -0.339279  -0.096425  0  3.462251  0
N  N63  1  0.86911810  0.49474757  0.49493200  1  -0.96022  0  -0.33324  -0.137781  0  3.427766  0
O  O64  1  0.61053587  0.68465361  0.51526614  1  -1.168036  0  -0.311155  -0.544259  0  2.380138  0
O  O65  1  0.38060458  0.68937213  0.48552095  1  -1.180329  0  -0.317411  -0.555888  0  2.355855  0
O  O66  1  0.62647179  0.52792546  0.37281440  1  -1.148627  0  -0.314343  -0.552376  0  2.324025  0
O  O67  1  0.39602463  0.47928421  0.37460871  1  -1.151885  0  -0.312363  -0.543811  0  2.291132  0
O  O68  1  0.60508123  0.31818243  0.49014942  1  -1.172797  0  -0.313875  -0.550783  0  2.422181  0
O  O69  1  0.37214957  0.31361237  0.51269777  1  -1.168293  0  -0.315368  -0.548222  0  2.339762  0
O  O70  1  0.62521144  0.48408415  0.62761180  1  -1.154317  0  -0.315767  -0.547842  0  2.257771  0
O  O71  1  0.39127425  0.52231014  0.62572208  1  -1.154458  0  -0.31853  -0.552093  0  2.270062  0
