# generated using pymatgen
data_Ag2H10C18S2N4O7F6
_symmetry_space_group_name_H-M   'P 1'
_cell_length_a   10.80295968
_cell_length_b   10.80294677
_cell_length_c   12.91965013
_cell_angle_alpha   65.15837036
_cell_angle_beta   65.15860495
_cell_angle_gamma   67.04564563
_symmetry_Int_Tables_number   1
_chemical_formula_structural   Ag2H10C18S2N4O7F6
_chemical_formula_sum   'Ag4 H20 C36 S4 N8 O14 F12'
_cell_volume   1199.20566499
_cell_formula_units_Z   2
loop_
 _symmetry_equiv_pos_site_id
 _symmetry_equiv_pos_as_xyz
  1  'x, y, z'
loop_
 _atom_site_type_symbol
 _atom_site_label
 _atom_site_symmetry_multiplicity
 _atom_site_fract_x
 _atom_site_fract_y
 _atom_site_fract_z
 _atom_site_occupancy
 _atom_site_pbe_bader_spin_density
 _atom_site_pbe_cm5_charge
 _atom_site_pbe_ddec_charge
 _atom_site_pbe_ddec_spin_density
 _atom_site_pbe_ddec_sum_bond_order
 _atom_site_pbe_magmom
Ag  Ag0  1  0.47333231  0.24732439  0.84151083  1  0  0.542578  0.61012  0  1.912186  0
Ag  Ag1  1  0.75267855  0.52666204  0.65848863  1  0  0.542607  0.610163  0  1.912264  0
Ag  Ag2  1  0.52666827  0.75267233  0.15849071  1  0  0.542532  0.61006  0  1.912253  0
Ag  Ag3  1  0.24732377  0.47333576  0.34151115  1  0  0.542588  0.610166  0  1.912221  0
H  H4  1  0.15540983  0.69900135  0.84880956  1  0  0.110137  0.126221  0  1.023712  0
H  H5  1  0.30100202  0.84457679  0.65119142  1  0  0.110162  0.126189  0  1.023666  0
H  H6  1  0.84458758  0.30099958  0.15119239  1  0  0.110123  0.126177  0  1.02373  0
H  H7  1  0.69899957  0.15541995  0.34880744  1  0  0.110133  0.126197  0  1.023677  0
H  H8  1  0.89845548  0.47322960  0.85223113  1  0  0.106065  0.115863  0  1.038995  0
H  H9  1  0.52677099  0.10153771  0.64776906  1  0  0.106058  0.115861  0  1.039045  0
H  H10  1  0.10154497  0.52677136  0.14777207  1  0  0.10604  0.115822  0  1.039013  0
H  H11  1  0.47322754  0.89845900  0.35223166  1  0  0.106056  0.115853  0  1.039008  0
H  H12  1  0.69548316  0.68401138  0.85581894  1  0  0.112684  0.134364  0  1.023359  0
H  H13  1  0.31598802  0.30450385  0.64418096  1  0  0.112709  0.134448  0  1.023354  0
H  H14  1  0.30451454  0.31598850  0.14418174  1  0  0.11269  0.134369  0  1.02337  0
H  H15  1  0.68401080  0.69549181  0.35582003  1  0  0.112711  0.134469  0  1.023309  0
H  H16  1  0.95125338  0.91280150  0.84918676  1  0  0.103579  0.11167  0  1.025861  0
H  H17  1  0.08720173  0.04873456  0.65081073  1  0  0.10359  0.111724  0  1.025792  0
H  H18  1  0.04874680  0.08720052  0.15081307  1  0  0.103603  0.111696  0  1.025844  0
H  H19  1  0.91280116  0.95126113  0.34918804  1  0  0.103576  0.111671  0  1.025823  0
H  H20  1  0.46434845  0.54351414  0.80759168  1  0  0.295235  0.394131  0  0.932774  0
H  H21  1  0.45648545  0.53565056  0.69240924  1  0  0.295256  0.394145  0  0.932757  0
H  H22  1  0.53565026  0.45648575  0.19240941  1  0  0.295251  0.394146  0  0.932765  0
H  H23  1  0.54351529  0.46434934  0.30759036  1  0  0.295257  0.394149  0  0.932756  0
C  C24  1  0.15596218  0.45332008  0.85142290  1  0  0.225401  0.316775  0  3.92622  0
C  C25  1  0.54668323  0.84402849  0.64858089  1  0  0.225477  0.316822  0  3.92599  0
C  C26  1  0.84403568  0.54668297  0.14858047  1  0  0.225434  0.316884  0  3.926137  0
C  C27  1  0.45331735  0.15596824  0.35142143  1  0  0.22552  0.316931  0  3.926001  0
C  C28  1  0.05557758  0.69847627  0.84739402  1  0  -0.071057  -0.089502  0  3.917211  0
C  C29  1  0.30153021  0.94441444  0.65260463  1  0  -0.071107  -0.089482  0  3.916999  0
C  C30  1  0.94442028  0.30152679  0.15260858  1  0  -0.071113  -0.089514  0  3.917213  0
C  C31  1  0.69847240  0.05558231  0.34739465  1  0  -0.071042  -0.089482  0  3.916979  0
C  C32  1  0.91095830  0.56973077  0.84950979  1  0  -0.066528  -0.090843  0  3.912296  0
C  C33  1  0.43027698  0.08903935  0.65048621  1  0  -0.066571  -0.090786  0  3.912569  0
C  C34  1  0.08904346  0.43026914  0.15049254  1  0  -0.066548  -0.090793  0  3.912395  0
C  C35  1  0.56972507  0.91095951  0.34951330  1  0  -0.066539  -0.090747  0  3.912346  0
C  C36  1  0.81304347  0.81225211  0.84869058  1  0  0.013988  0.051137  0  4.063731  0
C  C37  1  0.18775653  0.18695017  0.65130838  1  0  0.014089  0.05118  0  4.063673  0
C  C38  1  0.18695903  0.18774886  0.15130958  1  0  0.014001  0.051091  0  4.063728  0
C  C39  1  0.81224535  0.81304552  0.34869075  1  0  0.014031  0.051203  0  4.063627  0
C  C40  1  0.69899518  0.93604446  0.85010020  1  0  0.22135  0.302008  0  3.952363  0
C  C41  1  0.06396720  0.30098983  0.64989963  1  0  0.221281  0.301952  0  3.952279  0
C  C42  1  0.30100353  0.06395543  0.14989934  1  0  0.221321  0.301966  0  3.952447  0
C  C43  1  0.93603162  0.69900582  0.35010058  1  0  0.221332  0.302063  0  3.952248  0
C  C44  1  0.79694253  0.68838551  0.85036629  1  0  -0.063407  -0.079063  0  3.890127  0
C  C45  1  0.31162519  0.20304795  0.64962933  1  0  -0.063444  -0.07917  0  3.890227  0
C  C46  1  0.20305896  0.31161546  0.14963190  1  0  -0.063427  -0.079042  0  3.890168  0
C  C47  1  0.68837742  0.79694880  0.35036917  1  0  -0.063472  -0.079286  0  3.890237  0
C  C48  1  0.03960586  0.57492073  0.84796023  1  0  0.013355  0.049326  0  4.073727  0
C  C49  1  0.42508423  0.96039118  0.65203965  1  0  0.013333  0.04918  0  4.073858  0
C  C50  1  0.96039432  0.42508129  0.15204192  1  0  0.013403  0.049218  0  4.073664  0
C  C51  1  0.57491679  0.03960767  0.34796254  1  0  0.01332  0.049219  0  4.07372  0
C  C52  1  0.94217488  0.81698594  0.84758011  1  0  -0.073219  -0.095658  0  3.925444  0
C  C53  1  0.18301644  0.05782035  0.65241911  1  0  -0.073217  -0.095663  0  3.925342  0
C  C54  1  0.05782631  0.18301608  0.15242091  1  0  -0.073201  -0.095596  0  3.925318  0
C  C55  1  0.81698516  0.94217639  0.34757975  1  0  -0.073197  -0.095631  0  3.925166  0
C  C56  1  0.80465552  0.16118088  0.97878262  1  0  0.285723  0.499836  0  4.054866  0
C  C57  1  0.83881743  0.19534588  0.52121888  1  0  0.285803  0.500072  0  4.054586  0
C  C58  1  0.19534218  0.83881900  0.02121651  1  0  0.285751  0.499934  0  4.05473  0
C  C59  1  0.16118015  0.80465824  0.47878035  1  0  0.285744  0.499969  0  4.054808  0
S  S60  1  0.64589367  0.31085088  0.00680281  1  0  0.495399  1.014238  0  6.347795  0
S  S61  1  0.68914928  0.35410688  0.49319650  1  0  0.495308  1.01401  0  6.348185  0
S  S62  1  0.35410866  0.68914692  0.99319619  1  0  0.495374  1.014232  0  6.347818  0
S  S63  1  0.31085062  0.64589619  0.50680150  1  0  0.495332  1.014054  0  6.348194  0
N  N64  1  0.25296007  0.35538197  0.85762667  1  0  -0.336553  -0.375487  0  3.220111  0
N  N65  1  0.64462647  0.74703028  0.64237414  1  0  -0.336592  -0.375475  0  3.219948  0
N  N66  1  0.74704084  0.64462111  0.14237485  1  0  -0.33655  -0.375498  0  3.220172  0
N  N67  1  0.35537641  0.25296541  0.35762850  1  0  -0.336629  -0.375581  0  3.22006  0
N  N68  1  0.61156401  0.04191108  0.84961282  1  0  -0.340157  -0.377896  0  3.302024  0
N  N69  1  0.95809214  0.38842795  0.65038630  1  0  -0.340143  -0.377898  0  3.301804  0
N  N70  1  0.38843645  0.95808989  0.15038496  1  0  -0.340116  -0.377832  0  3.30202  0
N  N71  1  0.04190713  0.61156983  0.34961069  1  0  -0.340164  -0.377992  0  3.301833  0
O  O72  1  0.51107381  0.48892522  0.74999946  1  0  -0.582136  -0.749547  0  2.221061  0
O  O73  1  0.48892694  0.51107468  0.24999936  1  0  -0.582141  -0.749548  0  2.221094  0
O  O74  1  0.64228013  0.31836789  0.11872612  1  0  -0.329994  -0.564337  0  2.281792  0
O  O75  1  0.68163701  0.35771874  0.38127521  1  0  -0.329966  -0.564261  0  2.28191  0
O  O76  1  0.35771569  0.68163515  0.88127333  1  0  -0.329999  -0.56433  0  2.281806  0
O  O77  1  0.31836520  0.64228330  0.61872313  1  0  -0.329949  -0.564246  0  2.281922  0
O  O78  1  0.68095211  0.43013172  0.90217775  1  0  -0.329144  -0.557873  0  2.349291  0
O  O79  1  0.56987306  0.31904844  0.59782048  1  0  -0.329107  -0.557781  0  2.349353  0
O  O80  1  0.31904400  0.56987026  0.09782584  1  0  -0.329119  -0.557879  0  2.349238  0
O  O81  1  0.43012740  0.68095252  0.40217807  1  0  -0.329135  -0.557823  0  2.349455  0
O  O82  1  0.53171597  0.26192925  0.01718116  1  0  -0.334717  -0.564747  0  2.326709  0
O  O83  1  0.73807216  0.46828372  0.48281949  1  0  -0.334693  -0.564697  0  2.326799  0
O  O84  1  0.46828348  0.73807170  0.98281930  1  0  -0.334676  -0.564686  0  2.326748  0
O  O85  1  0.26192701  0.53171828  0.51718070  1  0  -0.334702  -0.564695  0  2.326706  0
F  F86  1  0.92235974  0.18517464  0.97374487  1  0  -0.099052  -0.188319  0  1.378428  0
F  F87  1  0.81482715  0.07764293  0.52625200  1  0  -0.099114  -0.188398  0  1.378377  0
F  F88  1  0.07763841  0.81482736  0.02625568  1  0  -0.09906  -0.18834  0  1.378472  0
F  F89  1  0.18517173  0.92236014  0.47374637  1  0  -0.099065  -0.188363  0  1.378469  0
F  F90  1  0.83044808  0.14442112  0.87219034  1  0  -0.092963  -0.185949  0  1.416126  0
F  F91  1  0.85557698  0.16955213  0.62781094  1  0  -0.092947  -0.18597  0  1.416104  0
F  F92  1  0.16955340  0.85557985  0.12781095  1  0  -0.092978  -0.185986  0  1.416034  0
F  F93  1  0.14442043  0.83044881  0.37218869  1  0  -0.09293  -0.185911  0  1.416167  0
F  F94  1  0.78746204  0.03764064  0.06588656  1  0  -0.097646  -0.18127  0  1.381635  0
F  F95  1  0.96236332  0.21253837  0.43411281  1  0  -0.097685  -0.181378  0  1.381504  0
F  F96  1  0.21253814  0.96236138  0.93411095  1  0  -0.097691  -0.181346  0  1.381596  0
F  F97  1  0.03763657  0.78746470  0.56588752  1  0  -0.097687  -0.181379  0  1.38155  0
