# generated using pymatgen
data_UH7C9N3O5
_symmetry_space_group_name_H-M   'P 1'
_cell_length_a   8.87241338
_cell_length_b   9.42838398
_cell_length_c   12.69856314
_cell_angle_alpha   90.00006001
_cell_angle_beta   90.00010155
_cell_angle_gamma   97.68690189
_symmetry_Int_Tables_number   1
_chemical_formula_structural   UH7C9N3O5
_chemical_formula_sum   'U4 H28 C36 N12 O20'
_cell_volume   1052.72107142
_cell_formula_units_Z   4
loop_
 _symmetry_equiv_pos_site_id
 _symmetry_equiv_pos_as_xyz
  1  'x, y, z'
loop_
 _atom_site_type_symbol
 _atom_site_label
 _atom_site_symmetry_multiplicity
 _atom_site_fract_x
 _atom_site_fract_y
 _atom_site_fract_z
 _atom_site_occupancy
 _atom_site_pbe_bader_spin_density
 _atom_site_pbe_cm5_charge
 _atom_site_pbe_ddec_charge
 _atom_site_pbe_ddec_spin_density
 _atom_site_pbe_ddec_sum_bond_order
 _atom_site_pbe_magmom
U  U0  1  0.20437263  0.47421155  0.94610420  1  0  2.173209  2.514049  0  4.819223  0
U  U1  1  0.79562876  0.02578884  0.44610609  1  0  2.173168  2.513937  0  4.819285  0
U  U2  1  0.79563047  0.52578554  0.05389420  1  0  2.173165  2.513969  0  4.81926  0
U  U3  1  0.20437119  0.97421788  0.55389546  1  0  2.173268  2.514077  0  4.819246  0
H  H4  1  0.08196018  0.54310342  0.16137443  1  0  0.302946  0.388724  0  0.947354  0
H  H5  1  0.91804005  0.95689591  0.66137655  1  0  0.302964  0.388764  0  0.947352  0
H  H6  1  0.91803917  0.45689902  0.83862318  1  0  0.302963  0.38875  0  0.947363  0
H  H7  1  0.08195772  0.04310332  0.33862578  1  0  0.302963  0.38873  0  0.947356  0
H  H8  1  0.10811021  0.29624852  0.41225549  1  0  0.12009  0.125127  0  1.043765  0
H  H9  1  0.89189642  0.20374967  0.91225502  1  0  0.120079  0.125116  0  1.04375  0
H  H10  1  0.89189033  0.70374642  0.58774527  1  0  0.120117  0.125194  0  1.043693  0
H  H11  1  0.10810112  0.79625597  0.08774653  1  0  0.120114  0.125176  0  1.043709  0
H  H12  1  0.21179619  0.31913336  0.23289432  1  0  0.114207  0.116815  0  1.011911  0
H  H13  1  0.78820634  0.18087094  0.73289529  1  0  0.114198  0.116827  0  1.011864  0
H  H14  1  0.78820563  0.68086266  0.76710486  1  0  0.114222  0.116823  0  1.011896  0
H  H15  1  0.21179474  0.81913578  0.26710469  1  0  0.114216  0.116821  0  1.011931  0
H  H16  1  0.41314696  0.67320101  0.50578766  1  0  0.120679  0.128856  0  1.001746  0
H  H17  1  0.58685607  0.82679698  0.00578402  1  0  0.120669  0.128796  0  1.00185  0
H  H18  1  0.58684923  0.32679501  0.49421152  1  0  0.120666  0.128811  0  1.001829  0
H  H19  1  0.41314944  0.17320118  0.99421517  1  0  0.120662  0.128833  0  1.001793  0
H  H20  1  0.52286737  0.68836855  0.32843775  1  0  0.112542  0.122583  0  0.999762  0
H  H21  1  0.47713055  0.81163534  0.82843371  1  0  0.112544  0.122587  0  0.999707  0
H  H22  1  0.47712927  0.31163067  0.67156301  1  0  0.112528  0.12257  0  0.999758  0
H  H23  1  0.52287383  0.18836282  0.17156548  1  0  0.11255  0.122566  0  0.999806  0
H  H24  1  0.98578840  0.31814231  0.55292313  1  0  0.14971  0.124031  0  1.053236  0
H  H25  1  0.01421257  0.18185419  0.05292890  1  0  0.149705  0.124063  0  1.053186  0
H  H26  1  0.01420922  0.68185585  0.44707605  1  0  0.149711  0.124089  0  1.053174  0
H  H27  1  0.98579068  0.81814398  0.94707107  1  0  0.149696  0.124034  0  1.053195  0
H  H28  1  0.35415339  0.60890659  0.66898796  1  0  0.156054  0.122786  0  0.978213  0
H  H29  1  0.64584092  0.89109060  0.16898522  1  0  0.156057  0.122764  0  0.978185  0
H  H30  1  0.64584550  0.39109264  0.33100965  1  0  0.156056  0.122793  0  0.978155  0
H  H31  1  0.35415955  0.10891184  0.83101475  1  0  0.156071  0.122734  0  0.978221  0
C  C32  1  0.44096567  0.51286872  0.16024144  1  0  0.247118  0.639387  0  4.139996  0
C  C33  1  0.55903388  0.98713381  0.66024078  1  0  0.247143  0.639272  0  4.140109  0
C  C34  1  0.55903081  0.48712943  0.83975775  1  0  0.247105  0.639399  0  4.139983  0
C  C35  1  0.44096660  0.01286863  0.33975919  1  0  0.247122  0.639272  0  4.140211  0
C  C36  1  0.37461993  0.50518528  0.26808509  1  0  -0.019379  -0.075298  0  3.992571  0
C  C37  1  0.62538203  0.99481638  0.76808374  1  0  -0.019347  -0.075286  0  3.992508  0
C  C38  1  0.62537769  0.49481288  0.73191567  1  0  -0.019366  -0.075315  0  3.992658  0
C  C39  1  0.37461942  0.00518499  0.23191781  1  0  -0.019356  -0.075275  0  3.992585  0
C  C40  1  0.19807402  0.38284614  0.39439686  1  0  -0.077907  -0.151327  0  3.936659  0
C  C41  1  0.80192836  0.11715416  0.89439779  1  0  -0.077911  -0.151329  0  3.936591  0
C  C42  1  0.80192555  0.61714988  0.60560311  1  0  -0.077938  -0.151422  0  3.936537  0
C  C43  1  0.19807114  0.88284935  0.10560218  1  0  -0.077932  -0.151412  0  3.93667  0
C  C44  1  0.25679011  0.39567695  0.29298149  1  0  -0.073282  -0.067293  0  3.949498  0
C  C45  1  0.74321243  0.10432638  0.79297998  1  0  -0.073307  -0.067287  0  3.949344  0
C  C46  1  0.74320961  0.60432014  0.70701927  1  0  -0.073277  -0.067235  0  3.949394  0
C  C47  1  0.25678917  0.89567606  0.20701999  1  0  -0.073284  -0.067266  0  3.949384  0
C  C48  1  0.25439302  0.48206206  0.47155133  1  0  0.111163  0.189834  0  3.968933  0
C  C49  1  0.74560957  0.01793837  0.97155133  1  0  0.111194  0.189843  0  3.96899  0
C  C50  1  0.74560429  0.51793395  0.52844706  1  0  0.111201  0.189906  0  3.968969  0
C  C51  1  0.25439188  0.98206300  0.02844864  1  0  0.111204  0.189889  0  3.968975  0
C  C52  1  0.37042155  0.59321636  0.44749755  1  0  -0.076963  -0.154155  0  3.944197  0
C  C53  1  0.62958046  0.90678240  0.94749534  1  0  -0.077007  -0.154121  0  3.944394  0
C  C54  1  0.62957479  0.40678072  0.55250243  1  0  -0.076956  -0.154084  0  3.944388  0
C  C55  1  0.37042520  0.09321683  0.05250542  1  0  -0.076986  -0.154136  0  3.944279  0
C  C56  1  0.43101751  0.60328733  0.34633811  1  0  -0.07558  -0.071978  0  3.958587  0
C  C57  1  0.56898369  0.89671553  0.84633740  1  0  -0.07553  -0.071905  0  3.958622  0
C  C58  1  0.56897898  0.39671082  0.65366107  1  0  -0.075591  -0.072005  0  3.958658  0
C  C59  1  0.43102017  0.10328691  0.15366336  1  0  -0.075588  -0.071987  0  3.958743  0
C  C60  1  0.06138806  0.38363312  0.60626248  1  0  0.172942  0.108507  0  3.862649  0
C  C61  1  0.93861291  0.11636240  0.10626619  1  0  0.173011  0.108535  0  3.862705  0
C  C62  1  0.93861181  0.61636504  0.39373749  1  0  0.172933  0.10845  0  3.86266  0
C  C63  1  0.06139035  0.88363577  0.89373457  1  0  0.173036  0.10859  0  3.86263  0
C  C64  1  0.25130543  0.53319052  0.66515121  1  0  0.186258  0.147482  0  3.875242  0
C  C65  1  0.74869112  0.96680667  0.16515102  1  0  0.186258  0.147615  0  3.875362  0
C  C66  1  0.74869444  0.46680764  0.33484640  1  0  0.186308  0.147554  0  3.875159  0
C  C67  1  0.25131145  0.03319470  0.83484895  1  0  0.186302  0.147671  0  3.875346  0
N  N68  1  0.19242441  0.46862527  0.57493622  1  0  -0.203572  -0.006955  0  3.715057  0
N  N69  1  0.80757565  0.03137233  0.07493655  1  0  -0.203586  -0.007092  0  3.715186  0
N  N70  1  0.80757419  0.53137182  0.42506218  1  0  -0.203634  -0.007123  0  3.715153  0
N  N71  1  0.19242888  0.96862690  0.92506343  1  0  -0.203576  -0.007053  0  3.715187  0
N  N72  1  0.04124968  0.39538329  0.70813305  1  0  -0.210216  -0.193076  0  3.240588  0
N  N73  1  0.95874630  0.10460705  0.20813599  1  0  -0.210201  -0.192931  0  3.240677  0
N  N74  1  0.95874891  0.60461380  0.29186613  1  0  -0.21017  -0.192972  0  3.240586  0
N  N75  1  0.04125485  0.89539218  0.79186556  1  0  -0.210203  -0.192958  0  3.24063  0
N  N76  1  0.16330973  0.48876267  0.74541770  1  0  -0.284435  -0.295339  0  3.472338  0
N  N77  1  0.83668554  0.01122988  0.24541884  1  0  -0.284489  -0.295526  0  3.472519  0
N  N78  1  0.83669015  0.51123549  0.25458149  1  0  -0.284454  -0.295396  0  3.472382  0
N  N79  1  0.16331591  0.98877149  0.75458192  1  0  -0.284582  -0.295585  0  3.472499  0
O  O80  1  0.14707899  0.28111865  0.94165004  1  0  -0.755559  -0.727433  0  1.936968  0
O  O81  1  0.85292014  0.21888173  0.44164585  1  0  -0.755551  -0.727435  0  1.937121  0
O  O82  1  0.85292133  0.71888272  0.05835150  1  0  -0.755551  -0.727463  0  1.93692  0
O  O83  1  0.14707695  0.78112070  0.55835569  1  0  -0.755574  -0.727521  0  1.936993  0
O  O84  1  0.27801279  0.66330833  0.94065095  1  0  -0.760287  -0.728821  0  1.861103  0
O  O85  1  0.72199032  0.83669042  0.44065693  1  0  -0.76024  -0.728767  0  1.861067  0
O  O86  1  0.72198851  0.33669197  0.05934587  1  0  -0.760276  -0.728793  0  1.861219  0
O  O87  1  0.27801098  0.16330988  0.55934462  1  0  -0.76033  -0.72881  0  1.861197  0
O  O88  1  0.36299929  0.44542993  0.08679053  1  0  -0.375039  -0.63231  0  2.39803  0
O  O89  1  0.63699749  0.05457625  0.58679043  1  0  -0.375112  -0.632226  0  2.397971  0
O  O90  1  0.63700058  0.55456823  0.91321102  1  0  -0.375049  -0.632307  0  2.397915  0
O  O91  1  0.36299990  0.94542833  0.41321112  1  0  -0.37508  -0.632256  0  2.397955  0
O  O92  1  0.05064708  0.50146892  0.09270284  1  0  -0.701902  -0.99175  0  2.099568  0
O  O93  1  0.94935070  0.99853028  0.59270425  1  0  -0.701926  -0.991877  0  2.099368  0
O  O94  1  0.94935181  0.49853031  0.90729634  1  0  -0.701921  -0.991818  0  2.099358  0
O  O95  1  0.05064692  0.00146787  0.40729808  1  0  -0.701912  -0.991715  0  2.099523  0
O  O96  1  0.57267316  0.58241394  0.14587772  1  0  -0.352784  -0.632411  0  2.322145  0
O  O97  1  0.42732635  0.91758857  0.64587527  1  0  -0.352791  -0.632392  0  2.322235  0
O  O98  1  0.42732626  0.41758101  0.85412462  1  0  -0.352808  -0.632424  0  2.322176  0
O  O99  1  0.57267269  0.08241173  0.35412470  1  0  -0.352791  -0.63235  0  2.322246  0
