# generated using pymatgen
data_CdPH10C3NO7
_symmetry_space_group_name_H-M   'P 1'
_cell_length_a   4.90812501
_cell_length_b   5.49262776
_cell_length_c   16.89061821
_cell_angle_alpha   93.16451719
_cell_angle_beta   90.01991055
_cell_angle_gamma   116.28455611
_symmetry_Int_Tables_number   1
_chemical_formula_structural   CdPH10C3NO7
_chemical_formula_sum   'Cd2 P2 H20 C6 N2 O14'
_cell_volume   407.48678759
_cell_formula_units_Z   2
loop_
 _symmetry_equiv_pos_site_id
 _symmetry_equiv_pos_as_xyz
  1  'x, y, z'
loop_
 _atom_site_type_symbol
 _atom_site_label
 _atom_site_symmetry_multiplicity
 _atom_site_fract_x
 _atom_site_fract_y
 _atom_site_fract_z
 _atom_site_occupancy
 _atom_site_hle17_bader_spin_density
 _atom_site_hle17_ddec_charge
 _atom_site_hle17_ddec_spin_density
 _atom_site_hle17_ddec_sum_bond_order
 _atom_site_hle17_magmom
 _atom_site_hse06_10hf_bader_spin_density
 _atom_site_hse06_10hf_ddec_charge
 _atom_site_hse06_10hf_ddec_spin_density
 _atom_site_hse06_10hf_ddec_sum_bond_order
 _atom_site_hse06_10hf_magmom
 _atom_site_hse06_bader_spin_density
 _atom_site_hse06_ddec_charge
 _atom_site_hse06_ddec_spin_density
 _atom_site_hse06_ddec_sum_bond_order
 _atom_site_hse06_magmom
 _atom_site_pbe_bader_spin_density
 _atom_site_pbe_cm5_charge
 _atom_site_pbe_ddec_charge
 _atom_site_pbe_ddec_spin_density
 _atom_site_pbe_ddec_sum_bond_order
 _atom_site_pbe_magmom
Cd  Cd0  1  0.03601199  0.92424467  0.32404878  1  0  1.323719  0  1.55501  0  0  1.158169  0  1.991137  0  0  1.210549  0  1.931866  0  0  0.788404  1.120532  0  2.032222  0
Cd  Cd1  1  0.89247712  0.92520206  0.82333865  1  0  1.321835  0  1.549674  0  0  1.15601  0  1.984271  0  0  1.208734  0  1.925032  0  0  0.787887  1.118155  0  2.025305  0
P  P2  1  0.75165102  0.32026072  0.41679041  1  0  1.469176  0  4.919229  0  0  1.30676  0  5.422317  0  0  1.356693  0  5.386885  0  0  0.319847  1.272001  0  5.445891  0
P  P3  1  0.57280737  0.32157373  0.91589241  1  0  1.470559  0  4.91735  0  0  1.308304  0  5.420167  0  0  1.358328  0  5.38463  0  0  0.319789  1.273568  0  5.443777  0
H  H4  1  0.52830637  0.46875256  0.28425838  1  0  0.429636  0  0.878738  0  0  0.39806  0  0.943897  0  0  0.408917  0  0.928075  0  0  0.288048  0.390391  0  0.955052  0
H  H5  1  0.92991876  0.46415889  0.78186141  1  0  0.429946  0  0.879253  0  0  0.398335  0  0.944195  0  0  0.409228  0  0.928376  0  0  0.288031  0.390645  0  0.955335  0
H  H6  1  0.97637260  0.12657565  0.18680982  1  0  0.405561  0  0.910081  0  0  0.372304  0  0.978732  0  0  0.383959  0  0.961999  0  0  0.282029  0.364098  0  0.990472  0
H  H7  1  0.14304155  0.12753791  0.68577402  1  0  0.40364  0  0.913874  0  0  0.370421  0  0.982502  0  0  0.382102  0  0.965759  0  0  0.280986  0.362205  0  0.99424  0
H  H8  1  0.67996353  0.78280779  0.48566937  1  0  0.309789  0  0.876087  0  0  0.288496  0  0.942028  0  0  0.296815  0  0.935607  0  0  0.310892  0.282594  0  0.946597  0
H  H9  1  0.09864865  0.78103681  0.98600332  1  0  0.308426  0  0.874924  0  0  0.287152  0  0.94095  0  0  0.295419  0  0.934509  0  0  0.311689  0.281295  0  0.945526  0
H  H10  1  0.32607215  0.56460432  0.45779344  1  0  0.304371  0  0.881612  0  0  0.285767  0  0.941635  0  0  0.293935  0  0.935964  0  0  0.311501  0.279965  0  0.94572  0
H  H11  1  0.24299372  0.56825180  0.95782726  1  0  0.305815  0  0.879405  0  0  0.287036  0  0.939676  0  0  0.29524  0  0.933881  0  0  0.311366  0.281239  0  0.943771  0
H  H12  1  0.36138650  0.19160372  0.51697216  1  0  0.138137  0  0.932967  0  0  0.148599  0  0.995564  0  0  0.15136  0  0.994244  0  0  0.120642  0.14654  0  0.996739  0
H  H13  1  0.84015049  0.18833888  0.01381180  1  0  0.138713  0  0.935617  0  0  0.148217  0  0.999802  0  0  0.15112  0  0.998326  0  0  0.120058  0.146076  0  1.001088  0
H  H14  1  0.72799455  0.41770406  0.55921039  1  0  0.130311  0  0.930095  0  0  0.143036  0  0.989501  0  0  0.145262  0  0.988938  0  0  0.12031  0.141393  0  0.990036  0
H  H15  1  0.69264263  0.40658075  0.05866991  1  0  0.130622  0  0.92575  0  0  0.143426  0  0.984132  0  0  0.14561  0  0.983716  0  0  0.120512  0.141792  0  0.984667  0
H  H16  1  0.23227072  0.48024757  0.60454910  1  0  0.123624  0  0.924599  0  0  0.135052  0  0.987255  0  0  0.137998  0  0.985425  0  0  0.123891  0.132884  0  0.988773  0
H  H17  1  0.24800164  0.47981680  0.10469155  1  0  0.123517  0  0.924462  0  0  0.135521  0  0.986402  0  0  0.138338  0  0.984704  0  0  0.124033  0.13346  0  0.987777  0
H  H18  1  0.24679327  0.77896856  0.56583327  1  0  0.122422  0  0.932626  0  0  0.133239  0  0.996402  0  0  0.136168  0  0.994609  0  0  0.122399  0.131134  0  0.997806  0
H  H19  1  0.52950808  0.78000507  0.06664917  1  0  0.123627  0  0.932857  0  0  0.133524  0  0.997858  0  0  0.136519  0  0.996048  0  0  0.122041  0.131381  0  0.999253  0
H  H20  1  0.76212112  0.20384607  0.24270512  1  0  0.423572  0  0.855669  0  0  0.39454  0  0.930326  0  0  0.404063  0  0.916505  0  0  0.297774  0.387772  0  0.937867  0
H  H21  1  0.43457259  0.18837052  0.73937218  1  0  0.423856  0  0.858148  0  0  0.394432  0  0.932065  0  0  0.404021  0  0.918122  0  0  0.297058  0.387623  0  0.940845  0
H  H22  1  0.48468940  0.69482658  0.23470467  1  0  0.421234  0  0.889397  0  0  0.389237  0  0.955547  0  0  0.400555  0  0.939254  0  0  0.285905  0.381211  0  0.967093  0
H  H23  1  0.20469432  0.68855978  0.73376698  1  0  0.42088  0  0.888834  0  0  0.389072  0  0.954968  0  0  0.400379  0  0.938623  0  0  0.286028  0.381056  0  0.966529  0
C  C24  1  0.57396760  0.37316738  0.50757941  1  0  -0.299471  0  3.514584  0  0  -0.343235  0  3.773541  0  0  -0.347451  0  3.778579  0  0  -0.07608  -0.34033  0  3.770367  0
C  C25  1  0.80366712  0.36895732  0.00622675  1  0  -0.29969  0  3.512532  0  0  -0.342467  0  3.77098  0  0  -0.346887  0  3.776185  0  0  -0.075888  -0.339538  0  3.767839  0
C  C26  1  0.38242621  0.67027836  0.57812194  1  0  -0.14289  0  3.520486  0  0  -0.200937  0  3.771205  0  0  -0.202546  0  3.776323  0  0  -0.063768  -0.199926  0  3.767921  0
C  C27  1  0.28590895  0.66994707  0.07840227  1  0  -0.142676  0  3.521128  0  0  -0.200742  0  3.772551  0  0  -0.202218  0  3.777395  0  0  -0.063833  -0.199837  0  3.769496  0
C  C28  1  0.64314513  0.84757258  0.63594340  1  0  0.696523  0  3.848553  0  0  0.642568  0  4.154138  0  0  0.676058  0  4.14745  0  0  0.216895  0.619874  0  4.157894  0
C  C29  1  0.19779466  0.84516564  0.13608837  1  0  0.696041  0  3.848615  0  0  0.642465  0  4.154193  0  0  0.675933  0  4.147595  0  0  0.216362  0.61981  0  4.157886  0
N  N30  1  0.49465007  0.60463627  0.50205868  1  0  -0.223351  0  3.364265  0  0  -0.159122  0  3.57568  0  0  -0.171844  0  3.585444  0  0  -0.472836  -0.150368  0  3.569113  0
N  N31  1  0.11066534  0.60420200  0.00192318  1  0  -0.223785  0  3.365662  0  0  -0.159399  0  3.576972  0  0  -0.171995  0  3.586595  0  0  -0.472756  -0.150709  0  3.570535  0
O  O32  1  0.50811872  0.24717077  0.35065698  1  0  -0.899094  0  2.082909  0  0  -0.796027  0  2.352182  0  0  -0.826309  0  2.330431  0  0  -0.385212  -0.77462  0  2.366535  0
O  O33  1  0.74129264  0.24851227  0.84909395  1  0  -0.898631  0  2.088344  0  0  -0.795072  0  2.356718  0  0  -0.825362  0  2.335164  0  0  -0.385414  -0.773647  0  2.370893  0
O  O34  1  0.02921640  0.59538998  0.40514555  1  0  -0.86794  0  1.918768  0  0  -0.775687  0  2.182627  0  0  -0.804466  0  2.161841  0  0  -0.388523  -0.755239  0  2.196333  0
O  O35  1  0.57212879  0.59904255  0.90546494  1  0  -0.868076  0  1.913915  0  0  -0.776244  0  2.177744  0  0  -0.804999  0  2.156817  0  0  -0.387638  -0.755837  0  2.191492  0
O  O36  1  0.84410065  0.09357020  0.43122983  1  0  -0.87173  0  1.950905  0  0  -0.785697  0  2.223097  0  0  -0.813487  0  2.202074  0  0  -0.383012  -0.765915  0  2.236883  0
O  O37  1  0.25478748  0.09641769  0.93026929  1  0  -0.872974  0  1.94477  0  0  -0.786975  0  2.216714  0  0  -0.815007  0  2.195848  0  0  -0.383636  -0.767128  0  2.230501  0
O  O38  1  0.56521815  0.87606276  0.70653121  1  0  -0.675418  0  2.06974  0  0  -0.599697  0  2.306196  0  0  -0.628857  0  2.295091  0  0  -0.317706  -0.579287  0  2.313233  0
O  O39  1  0.30607741  0.87596320  0.20656236  1  0  -0.672525  0  2.064877  0  0  -0.598123  0  2.303681  0  0  -0.627143  0  2.292181  0  0  -0.318142  -0.577775  0  2.310808  0
O  O40  1  0.90910909  0.95717892  0.60997300  1  0  -0.618321  0  1.9628  0  0  -0.558637  0  2.183759  0  0  -0.583635  0  2.175014  0  0  -0.312563  -0.541288  0  2.189358  0
O  O41  1  0.03656367  0.95125647  0.11019560  1  0  -0.62035  0  1.959128  0  0  -0.560276  0  2.179817  0  0  -0.585323  0  2.171067  0  0  -0.312883  -0.54289  0  2.185381  0
O  O42  1  0.63059238  0.62180502  0.24932023  1  0  -0.864052  0  1.896516  0  0  -0.800279  0  2.101891  0  0  -0.82478  0  2.067811  0  0  -0.59884  -0.782922  0  2.125416  0
O  O43  1  0.98516571  0.61796733  0.74673237  1  0  -0.86244  0  1.891225  0  0  -0.798848  0  2.096049  0  0  -0.823451  0  2.062315  0  0  -0.598585  -0.781397  0  2.119369  0
O  O44  1  0.97126817  0.22829580  0.23765350  1  0  -0.836212  0  1.887247  0  0  -0.77643  0  2.093193  0  0  -0.798943  0  2.060716  0  0  -0.587937  -0.760397  0  2.113495  0
O  O45  1  0.25647308  0.22442025  0.73644693  1  0  -0.835926  0  1.885222  0  0  -0.775847  0  2.090693  0  0  -0.798602  0  2.058134  0  0  -0.589125  -0.759647  0  2.112165  0
