# generated using pymatgen
data_Al6H17C96I10Br17O28
_symmetry_space_group_name_H-M   'P 1'
_cell_length_a   13.80988941
_cell_length_b   14.06814636
_cell_length_c   26.87902718
_cell_angle_alpha   90.22593656
_cell_angle_beta   90.87077718
_cell_angle_gamma   62.09879251
_symmetry_Int_Tables_number   1
_chemical_formula_structural   Al6H17C96I10Br17O28
_chemical_formula_sum   'Al6 H17 C96 I10 Br17 O28'
_cell_volume   4614.44991962
_cell_formula_units_Z   1
loop_
 _symmetry_equiv_pos_site_id
 _symmetry_equiv_pos_as_xyz
  1  'x, y, z'
loop_
 _atom_site_type_symbol
 _atom_site_label
 _atom_site_symmetry_multiplicity
 _atom_site_fract_x
 _atom_site_fract_y
 _atom_site_fract_z
 _atom_site_occupancy
 _atom_site_pbe_bader_charge
 _atom_site_pbe_bader_spin_density
 _atom_site_pbe_cm5_charge
 _atom_site_pbe_ddec_charge
 _atom_site_pbe_ddec_spin_density
 _atom_site_pbe_ddec_sum_bond_order
 _atom_site_pbe_magmom
Al  Al0  1  0.36882890  0.17174449  0.49328910  1  2.498255  0  0.395624  1.686625  0  2.550307  0
Al  Al1  1  0.42830691  0.92243942  0.49986511  1  2.485399  0  0.506008  1.660111  0  2.501254  0
Al  Al2  1  0.61307068  0.97709111  0.50446466  1  2.484223  0  0.501923  1.665406  0  2.506881  0
Al  Al3  1  0.94039071  0.18768722  0.98308613  1  2.493841  0  0.39237  1.697483  0  2.533357  0
Al  Al4  1  0.70772344  0.39811131  0.98680742  1  2.47894  0  0.502496  1.661267  0  2.498794  0
Al  Al5  1  0.90856599  0.42741195  0.98542789  1  2.481627  0  0.501349  1.664183  0  2.502058  0
H  H6  1  0.58337438  0.05634783  0.18052384  1  0.090211  0  0.098622  0.095676  0  1.002904  0
H  H7  1  0.47399622  0.23903693  0.24319790  1  0.124351  0  0.085853  0.087949  0  1.059227  0
H  H8  1  0.06160385  0.30934807  0.28558352  1  0.123898  0  0.099993  0.116538  0  1.011101  0
H  H9  1  0.38006696  0.11874970  0.26192380  1  0.086724  0  0.107969  0.131546  0  0.974415  0
H  H10  1  0.59039757  0.54898128  0.85964648  1  0.117859  0  0.103062  0.116156  0  1.038677  0
H  H11  1  0.51961323  0.71997089  0.61964082  1  0.131612  0  0.094501  0.10808  0  1.06532  0
H  H12  1  0.80794322  0.81693553  0.82099387  1  0.100669  0  0.090212  0.107245  0  1.05357  0
H  H13  1  0.73975057  0.10712578  0.60341159  1  0.143598  0  0.10406  0.115297  0  1.036764  0
H  H14  1  0.92865890  0.11167410  0.75228302  1  0.11365  0  0.091943  0.114229  0  1.047263  0
H  H15  1  0.39209878  0.32309473  0.81262755  1  0.112298  0  0.091973  0.111111  0  1.047632  0
H  H16  1  0.14578571  0.25491043  0.59584943  1  0.137362  0  0.107816  0.124333  0  1.029249  0
H  H17  1  0.21903070  0.94191088  0.81653939  1  0.107352  0  0.088211  0.105895  0  1.052818  0
H  H18  1  0.79774754  0.43845138  0.25172380  1  0.106803  0  0.091721  0.101843  0  1.05498  0
H  H19  1  0.87282598  0.03246807  0.22475834  1  0.074413  0  0.09558  0.102475  0  1.016764  0
H  H20  1  0.73493944  0.94762705  0.25891628  1  0.068867  0  0.088227  0.08322  0  1.045741  0
H  H21  1  0.27977157  0.35486694  0.51245209  1  0.563998  0  0.276505  0.366244  0  0.957626  0
H  H22  1  0.03420324  0.00771780  0.00961563  1  0.581499  0  0.29576  0.389848  0  0.912247  0
C  C23  1  0.29416949  0.05343060  0.42308072  1  1.666363  0  0.28244  0.706205  0  4.166283  0
C  C24  1  0.65971521  0.74210067  0.39875832  1  0.251488  0  -0.022604  -0.166994  0  3.91033  0
C  C25  1  0.75063738  0.52564535  0.25533652  1  0.012311  0  -0.07303  -0.09651  0  3.605275  0
C  C26  1  0.69659257  0.60424079  0.20921407  1  0.095599  0  0.004559  0.086396  0  3.775665  0
C  C27  1  0.79442712  0.60222419  0.27672248  1  -0.137953  0  -0.039606  0.019517  0  3.573777  0
C  C28  1  0.68726449  0.66457830  0.30821718  1  0.118225  0  -0.002428  0.06803  0  3.827028  0
C  C29  1  0.73966453  0.68218176  0.23194745  1  0.010707  0  -0.010202  0.036478  0  3.644801  0
C  C30  1  0.63196559  0.74305627  0.26239083  1  0.008594  0  -0.006003  0.039774  0  3.633621  0
C  C31  1  0.70564880  0.57567343  0.15819871  1  -0.525209  0  -0.027321  -0.014702  0  4.058824  0
C  C32  1  0.67721075  0.70214219  0.35746961  1  -0.449779  0  -0.024818  -0.010613  0  4.087419  0
C  C33  1  0.72389722  0.17642097  0.26332603  1  0.014987  0  -0.002282  0.075376  0  3.607618  0
C  C34  1  0.61817125  0.80577622  0.44280800  1  1.653794  0  0.287064  0.718917  0  4.142745  0
C  C35  1  0.78404051  0.07674858  0.22895902  1  0.012727  0  -0.075857  -0.103721  0  3.622084  0
C  C36  1  0.73372422  0.18278739  0.09477182  1  0.069829  0  -0.041418  -0.193862  0  3.958605  0
C  C37  1  0.59251996  0.13110395  0.37611875  1  0.082066  0  -0.038546  -0.189787  0  3.959709  0
C  C38  1  0.63824947  0.23820112  0.22060754  1  -0.142233  0  -0.035836  0.010066  0  3.541944  0
C  C39  1  0.70041763  0.13718931  0.18514029  1  0.130278  0  0.003983  0.1114  0  3.803427  0
C  C40  1  0.56246728  0.19147322  0.23870100  1  -0.069612  0  -0.078621  -0.090705  0  3.631527  0
C  C41  1  0.64533099  0.13100496  0.28262291  1  0.117675  0  0.004517  0.101098  0  3.799513  0
C  C42  1  0.62306657  0.09101070  0.20460057  1  -0.017241  0  -0.070433  -0.068298  0  3.605073  0
C  C43  1  0.70767830  0.03059209  0.24738204  1  0.009104  0  -0.075287  -0.070272  0  3.626369  0
C  C44  1  0.72274019  0.15223727  0.13565085  1  -0.360402  0  -0.029278  -0.023152  0  4.068733  0
C  C45  1  0.56298832  0.11846615  0.42577288  1  1.699805  0  0.276368  0.709651  0  4.16208  0
C  C46  1  0.61724725  0.13020527  0.33278085  1  -0.379794  0  -0.029123  -0.024698  0  4.080483  0
C  C47  1  0.12020176  0.24734018  0.26134594  1  -0.01889  0  -0.070016  -0.106168  0  3.594211  0
C  C48  1  0.21115699  0.25618105  0.23057997  1  -0.127096  0  -0.033504  0.052701  0  3.562058  0
C  C49  1  0.12957713  0.25947102  0.09065353  1  0.208029  0  -0.025556  -0.163722  0  3.931837  0
C  C50  1  0.25213777  0.06753073  0.37264344  1  0.195305  0  -0.027437  -0.171599  0  3.920663  0
C  C51  1  0.09078093  0.19762137  0.21520701  1  -0.136892  0  -0.034515  0.029354  0  3.550032  0
C  C52  1  0.18204144  0.20735228  0.18343263  1  0.085715  0  -0.003129  0.06134  0  3.850244  0
C  C53  1  0.17674288  0.08121337  0.23239658  1  -0.131398  0  -0.040768  -0.016168  0  3.561545  0
C  C54  1  0.20721778  0.13096093  0.27948638  1  0.11437  0  0.012348  0.1357  0  3.781675  0
C  C55  1  0.26783108  0.09154867  0.20172638  1  0.00876  0  -0.00557  0.078105  0  3.6377  0
C  C56  1  0.27536708  0.06656662  0.56368385  1  1.577093  0  0.272604  0.652712  0  4.052606  0
C  C57  1  0.29774500  0.14100667  0.24778161  1  -0.001477  0  -0.069872  -0.120476  0  3.603611  0
C  C58  1  0.16151806  0.24094065  0.13365714  1  -0.406985  0  -0.033092  -0.026029  0  4.106973  0
C  C59  1  0.22768155  0.09358896  0.32924667  1  -0.428686  0  -0.026054  -0.030097  0  4.049461  0
C  C60  1  0.57748953  0.72920279  0.64440584  1  0.001661  0  -0.08353  -0.120555  0  3.953622  0
C  C61  1  0.59036321  0.69288825  0.69370390  1  0.021325  0  -0.013011  0.039214  0  4.015161  0
C  C62  1  0.60455081  0.63681212  0.79680219  1  0.009381  0  -0.01124  0.040604  0  4.017339  0
C  C63  1  0.54203201  0.60840836  0.76200678  1  -0.06924  0  -0.023334  0.005077  0  3.954526  0
C  C64  1  0.53811634  0.63258990  0.71222349  1  -0.033713  0  -0.021597  0.010337  0  3.943008  0
C  C65  1  0.62305019  0.60120965  0.84647269  1  0.015009  0  -0.077885  -0.115463  0  3.902356  0
C  C66  1  0.68858368  0.62466405  0.87948542  1  -0.000151  0  -0.017553  -0.08773  0  3.972438  0
C  C67  1  0.60181215  0.83153965  0.57539952  1  1.554702  0  0.273482  0.658158  0  4.042915  0
C  C68  1  0.71967794  0.78224514  0.65561417  1  -0.192972  0  -0.035225  0.016615  0  3.777446  0
C  C69  1  0.71692606  0.77131074  0.70808806  1  0.01505  0  -0.015777  0.011513  0  3.961689  0
C  C70  1  0.65333406  0.72226163  0.72736029  1  0.002107  0  0.005311  0.030174  0  3.860099  0
C  C71  1  0.77054001  0.80657961  0.74484323  1  -0.248806  0  -0.05332  0.018826  0  3.882501  0
C  C72  1  0.76917846  0.78627392  0.79448733  1  0.056446  0  -0.106088  -0.157637  0  4.00223  0
C  C73  1  0.71902135  0.72590053  0.81320381  1  0.025842  0  -0.014316  0.039608  0  4.026024  0
C  C74  1  0.65786192  0.69587586  0.77895903  1  0.032277  0  0.002506  0.020491  0  3.900174  0
C  C75  1  0.73033512  0.69328276  0.86353273  1  -0.062227  0  -0.001079  0.055715  0  3.874265  0
C  C76  1  0.63738040  0.77734032  0.62520146  1  0.025538  0  -0.021342  -0.071251  0  3.955134  0
C  C77  1  0.67565200  0.15867062  0.62866592  1  0.023726  0  -0.080737  -0.117602  0  3.962253  0
C  C78  1  0.54570604  0.15813085  0.56505597  1  1.587696  0  0.271793  0.65576  0  4.065599  0
C  C79  1  0.70341590  0.17861425  0.67621099  1  0.054564  0  -0.017586  0.020073  0  4.045832  0
C  C80  1  0.76139517  0.17588943  0.77846174  1  0.041072  0  -0.018427  0.047584  0  4.038066  0
C  C81  1  0.84331285  0.14115129  0.74094192  1  0.019166  0  -0.109779  -0.183101  0  3.997374  0
C  C82  1  0.81472717  0.14393456  0.69192973  1  -0.132284  0  -0.017819  0.077588  0  3.944983  0
C  C83  1  0.78851590  0.16440782  0.82993197  1  -0.201946  0  -0.037498  -0.006862  0  3.807  0
C  C84  1  0.70691167  0.21966073  0.86578561  1  0.046749  0  -0.022389  -0.114583  0  3.948206  0
C  C85  1  0.48362426  0.27272754  0.64435071  1  -0.047746  0  0.000553  0.068162  0  3.848158  0
C  C86  1  0.50531808  0.27191584  0.69628806  1  0.061083  0  -0.012992  -0.021477  0  3.964032  0
C  C87  1  0.61876193  0.22585822  0.71236457  1  -0.00144  0  0.01142  0.038862  0  3.869382  0
C  C88  1  0.42547458  0.30633746  0.73538532  1  -0.133217  0  -0.018249  0.076707  0  3.930109  0
C  C89  1  0.64317226  0.58745985  0.28596613  1  -0.14193  0  -0.040588  0.019182  0  3.565234  0
C  C90  1  0.45493238  0.30015611  0.78453553  1  0.035611  0  -0.109004  -0.180289  0  4.014463  0
C  C91  1  0.56545759  0.26244573  0.80042657  1  0.024204  0  -0.021414  0.032285  0  4.062536  0
C  C92  1  0.64852942  0.22375672  0.76367504  1  -0.008175  0  0.001944  0.011676  0  3.91892  0
C  C93  1  0.59631064  0.26290039  0.85065566  1  -0.081118  0  -0.005079  0.057349  0  3.873472  0
C  C94  1  0.56693565  0.20174891  0.61252052  1  -0.03044  0  -0.018191  -0.081855  0  3.962265  0
C  C95  1  0.15621487  0.19583698  0.62422632  1  0.07028  0  -0.08003  -0.115938  0  3.949649  0
C  C96  1  0.11507006  0.22950480  0.67162166  1  0.006926  0  -0.019059  0.027782  0  4.069614  0
C  C97  1  0.06633226  0.29966227  0.77240869  1  0.087798  0  -0.022403  -0.019619  0  4.008096  0
C  C98  1  0.01560048  0.37362528  0.73131766  1  -0.08696  0  -0.033501  0.009704  0  3.943652  0
C  C99  1  0.04541627  0.34072025  0.68320650  1  -0.012884  0  -0.026679  0.014884  0  3.940792  0
C  C100  1  0.58828491  0.66630900  0.24077322  1  0.016671  0  -0.013112  0.035535  0  3.650633  0
C  C101  1  0.06252091  0.32858783  0.82321335  1  -0.063506  0  -0.007884  0.060842  0  3.866405  0
C  C102  1  0.09212154  0.25115600  0.86177053  1  0.083445  0  -0.024511  -0.133656  0  3.94102  0
C  C103  1  0.22618329  0.00912230  0.64765538  1  -0.092701  0  -0.010408  0.048175  0  3.882714  0
C  C104  1  0.19038068  0.03860225  0.69732401  1  0.065008  0  -0.015125  -0.002609  0  3.965455  0
C  C105  1  0.14157683  0.15124529  0.71015281  1  -0.013876  0  0.007016  0.027837  0  3.887749  0
C  C106  1  0.20309774  0.96635377  0.73818246  1  -0.222211  0  -0.051934  0.027795  0  3.851292  0
C  C107  1  0.20325792  0.99867146  0.78623325  1  0.048424  0  -0.109835  -0.169313  0  4.033152  0
C  C108  1  0.16697625  0.10833221  0.79914703  1  0.060863  0  -0.020491  0.028075  0  4.049049  0
C  C109  1  0.12244322  0.18709425  0.76061016  1  -0.007764  0  0.002126  0.026703  0  3.907  0
C  C110  1  0.15376451  0.14198680  0.84914654  1  -0.154874  0  -0.004572  0.052545  0  3.920354  0
C  C111  1  0.71866256  0.55506875  0.11388911  1  0.341436  0  -0.029965  -0.176576  0  3.907667  0
C  C112  1  0.21630902  0.08709636  0.61222173  1  -0.011006  0  -0.018748  -0.079405  0  3.952457  0
C  C113  1  0.76259704  0.22235556  0.05134498  1  1.655112  0  0.276363  0.713814  0  4.154909  0
C  C114  1  0.74015968  0.51805889  0.06304185  1  1.640244  0  0.281707  0.717136  0  4.139275  0
C  C115  1  0.06385536  0.28283084  0.04617126  1  1.683258  0  0.278825  0.7018  0  4.170825  0
C  C116  1  0.73830856  0.24602267  0.91576746  1  1.606026  0  0.265729  0.649812  0  4.074093  0
C  C117  1  0.72447157  0.56045251  0.92659731  1  1.571102  0  0.282793  0.666812  0  4.043549  0
C  C118  1  0.03576735  0.27993829  0.91137006  1  1.609052  0  0.266666  0.652572  0  4.071293  0
I  I119  1  0.58457774  0.39657207  0.19486198  1  0.112554  0  0.07139  -0.02507  0  1.59295  0
I  I120  1  0.23928060  0.39128419  0.22716405  1  0.10695  0  0.075884  -0.02771  0  1.376338  0
I  I121  1  0.14741471  0.94811621  0.23502969  1  0.138159  0  0.077013  -0.009254  0  1.434525  0
I  I122  1  0.93401892  0.24318648  0.18414339  1  0.141072  0  0.110146  0.019504  0  1.59178  0
I  I123  1  0.56283504  0.52761788  0.33209102  1  0.16345  0  0.076348  -0.006532  0  1.441791  0
I  I124  1  0.83377264  0.91407093  0.73140014  1  0.154937  0  0.090466  -0.026234  0  1.918587  0
I  I125  1  0.86184817  0.76835409  0.62138669  1  0.195275  0  0.110527  0.029885  0  1.649414  0
I  I126  1  0.94826745  0.05013149  0.85065295  1  0.24187  0  0.170068  0.093909  0  1.799481  0
I  I127  1  0.19028079  0.82204835  0.73422984  1  0.140028  0  0.063702  -0.045966  0  1.647699  0
I  I128  1  0.95271005  0.55461324  0.30533310  1  0.144978  0  0.091401  -0.004063  0  1.422883  0
Br  Br129  1  0.44477565  0.71147848  0.21599251  1  -0.014996  0  0.027753  -0.049725  0  1.582084  0
Br  Br130  1  0.36654212  0.98884354  0.15658869  1  -0.037602  0  0.021019  -0.064877  0  1.435515  0
Br  Br131  1  0.46825846  0.53419572  0.78610428  1  -0.005581  0  0.064957  -0.009336  0  1.667824  0
Br  Br132  1  0.46853967  0.58139302  0.66582075  1  -0.015706  0  0.050554  -0.025413  0  1.61231  0
Br  Br133  1  0.79901621  0.74767460  0.90892730  1  -0.008171  0  0.060574  -0.015195  0  1.456401  0
Br  Br134  1  0.54796468  0.89344690  0.27104347  1  -0.025973  0  0.061568  -0.018514  0  1.546131  0
Br  Br135  1  0.92610954  0.09723432  0.64319094  1  -0.052654  0  0.050138  -0.030814  0  1.477416  0
Br  Br136  1  0.48303455  0.31508714  0.89881372  1  -0.015268  0  0.051678  -0.026128  0  1.447866  0
Br  Br137  1  0.27448145  0.34508994  0.72517602  1  -0.04275  0  0.030348  -0.062624  0  1.676706  0
Br  Br138  1  0.35018893  0.37937658  0.61636666  1  0.015194  0  0.07342  0.00459  0  1.615308  0
Br  Br139  1  0.03781110  0.46877671  0.84138018  1  0.008696  0  0.054207  -0.011275  0  1.621989  0
Br  Br140  1  0.89137289  0.50810701  0.74149172  1  -0.012788  0  0.043984  -0.042596  0  1.826827  0
Br  Br141  1  0.98746560  0.43920063  0.62943337  1  -0.01827  0  0.04618  -0.03169  0  1.556378  0
Br  Br142  1  0.22440225  0.03673056  0.89948086  1  0.009942  0  0.080439  0.021639  0  1.52213  0
Br  Br143  1  0.80581195  0.74786332  0.19360491  1  -0.019254  0  0.046491  -0.026659  0  1.397502  0
Br  Br144  1  0.29856193  0.86180292  0.63061671  1  -0.002849  0  0.063145  -0.004165  0  1.814877  0
Br  Br145  1  0.79512548  0.23073954  0.30780755  1  -0.071302  0  0.003713  -0.092686  0  1.460465  0
O  O146  1  0.46548541  0.17606234  0.43915217  1  -1.21409  0  -0.207804  -0.547011  0  2.26586  0
O  O147  1  0.51641957  0.83409366  0.55480953  1  -1.257572  0  -0.232238  -0.58753  0  2.305  0
O  O148  1  0.65223628  0.88041823  0.55805709  1  -1.280383  0  -0.236766  -0.607182  0  2.41511  0
O  O149  1  0.62751044  0.07140686  0.54899943  1  -1.271748  0  -0.241575  -0.5972  0  2.28217  0
O  O150  1  0.47131784  0.02192243  0.49870921  1  -1.620919  0  -0.391209  -1.267378  0  2.293642  0
O  O151  1  0.04456824  0.20943843  0.02958347  1  -1.213777  0  -0.20261  -0.548349  0  2.286648  0
O  O152  1  0.86331590  0.17589446  0.04057402  1  -1.222111  0  -0.214202  -0.574669  0  2.314778  0
O  O153  1  0.68572408  0.30305639  0.02817580  1  -1.250503  0  -0.239383  -0.602386  0  2.240399  0
O  O154  1  0.67371836  0.48814320  0.04310131  1  -1.246204  0  -0.229822  -0.588528  0  2.233978  0
O  O155  1  0.82421985  0.51437784  0.04238630  1  -1.232005  0  -0.223999  -0.575154  0  2.230476  0
O  O156  1  0.02515108  0.37978878  0.02899738  1  -1.246447  0  -0.237872  -0.589927  0  2.221974  0
O  O157  1  0.29092378  0.13700861  0.44215342  1  -1.207816  0  -0.197784  -0.528012  0  2.294123  0
O  O158  1  0.00907982  0.21065327  0.92657004  1  -1.249649  0  -0.217752  -0.569919  0  2.471014  0
O  O159  1  0.82557596  0.18156206  0.93759109  1  -1.238385  0  -0.213624  -0.5465  0  2.390578  0
O  O160  1  0.67374849  0.34221613  0.93110039  1  -1.273383  0  -0.249131  -0.616925  0  2.361754  0
O  O161  1  0.66427843  0.52367716  0.94519506  1  -1.257687  0  -0.225561  -0.572082  0  2.270461  0
O  O162  1  0.82032575  0.53813646  0.94333183  1  -1.271193  0  -0.23329  -0.612994  0  2.394458  0
O  O163  1  0.00940279  0.37025474  0.93251402  1  -1.268684  0  -0.24266  -0.595937  0  2.350412  0
O  O164  1  0.85132691  0.33933186  0.98553785  1  -1.611265  0  -0.392085  -1.26603  0  2.307166  0
O  O165  1  0.33421310  0.95977616  0.44337421  1  -1.248438  0  -0.238736  -0.594074  0  2.225811  0
O  O166  1  0.52780566  0.81322493  0.45855578  1  -1.233953  0  -0.223307  -0.579208  0  2.254668  0
O  O167  1  0.66956269  0.85334719  0.46112585  1  -1.231388  0  -0.220931  -0.574145  0  2.239717  0
O  O168  1  0.64113132  0.04429456  0.45189702  1  -1.261792  0  -0.244175  -0.607758  0  2.235899  0
O  O169  1  0.45136312  0.20088121  0.54554617  1  -1.258428  0  -0.218708  -0.584488  0  2.446495  0
O  O170  1  0.28876797  0.14348770  0.54736224  1  -1.228664  0  -0.210178  -0.548536  0  2.3512  0
O  O171  1  0.31168982  0.97394670  0.54242425  1  -1.277243  0  -0.249409  -0.618836  0  2.350751  0
O  O172  1  0.27358905  0.30823040  0.48747980  1  -1.357533  0  -0.579472  -0.989889  0  1.800283  0
O  O173  1  0.02516385  0.04825338  0.97939577  1  -1.362975  0  -0.571222  -0.998223  0  1.864779  0
