# generated using pymatgen
data_CdH16C18(N7O)2
_symmetry_space_group_name_H-M   'P 1'
_cell_length_a   7.71721780
_cell_length_b   7.83963028
_cell_length_c   8.87388154
_cell_angle_alpha   98.89296699
_cell_angle_beta   95.87943641
_cell_angle_gamma   109.11475741
_symmetry_Int_Tables_number   1
_chemical_formula_structural   CdH16C18(N7O)2
_chemical_formula_sum   'Cd1 H16 C18 N14 O2'
_cell_volume   494.39009773
_cell_formula_units_Z   1
loop_
 _symmetry_equiv_pos_site_id
 _symmetry_equiv_pos_as_xyz
  1  'x, y, z'
loop_
 _atom_site_type_symbol
 _atom_site_label
 _atom_site_symmetry_multiplicity
 _atom_site_fract_x
 _atom_site_fract_y
 _atom_site_fract_z
 _atom_site_occupancy
 _atom_site_hle17_bader_spin_density
 _atom_site_hle17_ddec_charge
 _atom_site_hle17_ddec_spin_density
 _atom_site_hle17_ddec_sum_bond_order
 _atom_site_hle17_magmom
 _atom_site_hse06_10hf_bader_spin_density
 _atom_site_hse06_10hf_ddec_charge
 _atom_site_hse06_10hf_ddec_spin_density
 _atom_site_hse06_10hf_ddec_sum_bond_order
 _atom_site_hse06_10hf_magmom
 _atom_site_hse06_bader_spin_density
 _atom_site_hse06_ddec_charge
 _atom_site_hse06_ddec_spin_density
 _atom_site_hse06_ddec_sum_bond_order
 _atom_site_hse06_magmom
 _atom_site_pbe_bader_spin_density
 _atom_site_pbe_cm5_charge
 _atom_site_pbe_ddec_charge
 _atom_site_pbe_ddec_spin_density
 _atom_site_pbe_ddec_sum_bond_order
 _atom_site_pbe_magmom
Cd  Cd0  1  0.00000000  0.00000000  0.00000000  1  0  1.101782  0  1.710244  0  0  0.896276  0  2.164031  0  0  0.9472  0  2.117471  0  0  0.806993  0.858595  0  2.197923  0
H  H1  1  0.33090025  0.24592674  0.87788146  1  0  0.383135  0  0.93212  0  0  0.345383  0  1.013365  0  0  0.356219  0  0.997835  0  0  0.277023  0.337496  0  1.024748  0
H  H2  1  0.66909995  0.75407181  0.12211777  1  0  0.383146  0  0.932109  0  0  0.345396  0  1.013348  0  0  0.356233  0  0.997817  0  0  0.27704  0.337508  0  1.024732  0
H  H3  1  0.23887082  0.38244357  0.95728518  1  0  0.381235  0  0.937975  0  0  0.337527  0  1.025014  0  0  0.348526  0  1.00921  0  0  0.277902  0.329704  0  1.036261  0
H  H4  1  0.76112986  0.61755636  0.04271429  1  0  0.381193  0  0.93802  0  0  0.337481  0  1.025076  0  0  0.34848  0  1.009271  0  0  0.277887  0.329657  0  1.036325  0
H  H5  1  0.87362863  0.54303991  0.77762971  1  0  0.10988  0  0.964611  0  0  0.108363  0  1.044684  0  0  0.111582  0  1.040574  0  0  0.142082  0.106086  0  1.047506  0
H  H6  1  0.12637075  0.45696002  0.22236962  1  0  0.109893  0  0.964642  0  0  0.108375  0  1.04471  0  0  0.111593  0  1.0406  0  0  0.142091  0.106097  0  1.047533  0
H  H7  1  0.82540319  0.78825226  0.38860214  1  0  0.113188  0  0.958437  0  0  0.11599  0  1.033109  0  0  0.11977  0  1.027645  0  0  0.139149  0.112306  0  1.038346  0
H  H8  1  0.17459320  0.21175041  0.61139951  1  0  0.113201  0  0.958394  0  0  0.11596  0  1.03312  0  0  0.119742  0  1.027653  0  0  0.13915  0.112278  0  1.038358  0
H  H9  1  0.65464841  0.97441981  0.41554844  1  0  0.095092  0  0.96836  0  0  0.103761  0  1.034951  0  0  0.106164  0  1.034051  0  0  0.104284  0.102122  0  1.035367  0
H  H10  1  0.34535360  0.02558013  0.58445004  1  0  0.095102  0  0.968384  0  0  0.103781  0  1.034953  0  0  0.106183  0  1.034053  0  0  0.104297  0.102137  0  1.035378  0
H  H11  1  0.83580783  0.27242496  0.58575599  1  0  0.115257  0  0.938003  0  0  0.127034  0  0.996249  0  0  0.129989  0  0.994973  0  0  0.111162  0.125253  0  0.996429  0
H  H12  1  0.16419666  0.72757494  0.41424838  1  0  0.11526  0  0.938025  0  0  0.127031  0  0.996275  0  0  0.129983  0  0.995006  0  0  0.111171  0.125249  0  0.996454  0
H  H13  1  0.56605634  0.54278999  0.29956954  1  0  0.106263  0  0.969022  0  0  0.111942  0  1.040456  0  0  0.115465  0  1.038222  0  0  0.105458  0.109066  0  1.042664  0
H  H14  1  0.43394304  0.45720994  0.70042979  1  0  0.10627  0  0.969023  0  0  0.111978  0  1.040407  0  0  0.115504  0  1.038173  0  0  0.105461  0.10909  0  1.04265  0
H  H15  1  0.39169187  0.24443983  0.12773446  1  0  0.085705  0  0.997564  0  0  0.094644  0  1.066565  0  0  0.097426  0  1.064603  0  0  0.101759  0.092765  0  1.067534  0
H  H16  1  0.60830707  0.75555873  0.87226239  1  0  0.085716  0  0.997567  0  0  0.09466  0  1.066573  0  0  0.097441  0  1.06461  0  0  0.101768  0.092782  0  1.067539  0
C  C17  1  0.39750813  0.90963949  0.16052082  1  0  0.281908  0  3.792739  0  0  0.25136  0  4.066612  0  0  0.262914  0  4.083689  0  0  0.212006  0.244444  0  4.0526  0
C  C18  1  0.60249025  0.09035768  0.83947916  1  0  0.281991  0  3.792635  0  0  0.251379  0  4.066586  0  0  0.262931  0  4.083663  0  0  0.212  0.244464  0  4.052576  0
C  C19  1  0.87758948  0.64290406  0.70498433  1  0  0.170896  0  3.632583  0  0  0.105076  0  3.90809  0  0  0.119329  0  3.918983  0  0  0.161511  0.095297  0  3.901286  0
C  C20  1  0.12241038  0.35709725  0.29501523  1  0  0.170836  0  3.632722  0  0  0.105021  0  3.908217  0  0  0.119274  0  3.91911  0  0  0.16147  0.095241  0  3.901414  0
C  C21  1  0.84709007  0.77114917  0.50741770  1  0  0.136041  0  3.645918  0  0  0.079949  0  3.925861  0  0  0.091102  0  3.936008  0  0  0.152522  0.073337  0  3.91909  0
C  C22  1  0.15290713  0.22885212  0.49258384  1  0  0.136171  0  3.645748  0  0  0.080109  0  3.925704  0  0  0.091263  0  3.935851  0  0  0.152585  0.073497  0  3.918932  0
C  C23  1  0.50996820  0.08740434  0.25894193  1  0  0.006417  0  3.769746  0  0  0.023923  0  4.006533  0  0  0.021123  0  4.028612  0  0  -0.003603  0.025529  0  3.991236  0
C  C24  1  0.49002980  0.91259556  0.74106064  1  0  0.006399  0  3.769775  0  0  0.023934  0  4.006569  0  0  0.021137  0  4.028641  0  0  -0.00359  0.025538  0  3.991274  0
C  C25  1  0.63718846  0.09889078  0.38847125  1  0  -0.057928  0  3.71045  0  0  -0.079507  0  3.959146  0  0  -0.079447  0  3.979184  0  0  -0.078926  -0.079413  0  3.945251  0
C  C26  1  0.36281398  0.90111052  0.61152971  1  0  -0.057991  0  3.710454  0  0  -0.079566  0  3.95915  0  0  -0.079506  0  3.979187  0  0  -0.07895  -0.079471  0  3.94525  0
C  C27  1  0.73893032  0.26754025  0.48547829  1  0  -0.143879  0  3.727887  0  0  -0.17  0  3.990024  0  0  -0.174099  0  4.010463  0  0  -0.092783  -0.167211  0  3.974863  0
C  C28  1  0.26107475  0.73246105  0.51452182  1  0  -0.143822  0  3.727942  0  0  -0.169922  0  3.990014  0  0  -0.17402  0  4.010452  0  0  -0.092778  -0.167133  0  3.974849  0
C  C29  1  0.71444820  0.42758092  0.45244845  1  0  0.178945  0  3.776536  0  0  0.172131  0  4.024393  0  0  0.178439  0  4.04645  0  0  0.091501  0.167875  0  4.009313  0
C  C30  1  0.28555113  0.57241899  0.54755312  1  0  0.178892  0  3.776611  0  0  0.172104  0  4.024461  0  0  0.178412  0  4.046519  0  0  0.091496  0.167849  0  4.009378  0
C  C31  1  0.58832082  0.41884033  0.32411806  1  0  -0.143447  0  3.726966  0  0  -0.164305  0  3.982233  0  0  -0.169049  0  4.002964  0  0  -0.092676  -0.161552  0  3.968969  0
C  C32  1  0.41168252  0.58115961  0.67587942  1  0  -0.143472  0  3.72701  0  0  -0.16436  0  3.982312  0  0  -0.169108  0  4.003044  0  0  -0.092705  -0.161612  0  3.969043  0
C  C33  1  0.48839438  0.24991343  0.22798918  1  0  -0.059005  0  3.727275  0  0  -0.08521  0  3.976733  0  0  -0.085616  0  3.998365  0  0  -0.086275  -0.084676  0  3.961472  0
C  C34  1  0.51160188  0.75008511  0.77201077  1  0  -0.058952  0  3.727248  0  0  -0.085175  0  3.976737  0  0  -0.085582  0  3.998368  0  0  -0.086246  -0.084641  0  3.961474  0
N  N35  1  0.23237795  0.87370386  0.06975310  1  0  -0.345903  0  3.10643  0  0  -0.283753  0  3.395686  0  0  -0.302413  0  3.411919  0  0  -0.232241  -0.271088  0  3.383628  0
N  N36  1  0.76762354  0.12629469  0.93024626  1  0  -0.345972  0  3.106455  0  0  -0.283799  0  3.395727  0  0  -0.302459  0  3.411961  0  0  -0.232258  -0.271133  0  3.383671  0
N  N37  1  0.17325684  0.69415588  0.00312690  1  0  -0.077163  0  2.982365  0  0  -0.074784  0  3.273283  0  0  -0.073617  0  3.288121  0  0  -0.099909  -0.075175  0  3.262601  0
N  N38  1  0.82674386  0.30584406  0.99687144  1  0  -0.07712  0  2.982421  0  0  -0.07474  0  3.273329  0  0  -0.073573  0  3.288168  0  0  -0.099894  -0.07513  0  3.262648  0
N  N39  1  0.29716854  0.62380309  0.05023291  1  0  -0.117917  0  3.089377  0  0  -0.0798  0  3.371136  0  0  -0.084245  0  3.384389  0  0  -0.095618  -0.076426  0  3.36084  0
N  N40  1  0.70283168  0.37619546  0.94976520  1  0  -0.117913  0  3.089334  0  0  -0.079786  0  3.371084  0  0  -0.084232  0  3.384339  0  0  -0.095596  -0.07641  0  3.360789  0
N  N41  1  0.44048393  0.75519564  0.14930986  1  0  -0.345198  0  3.01485  0  0  -0.303972  0  3.284337  0  0  -0.317341  0  3.29826  0  0  -0.224988  -0.294435  0  3.272284  0
N  N42  1  0.55951631  0.24480292  0.85068712  1  0  -0.345264  0  3.014686  0  0  -0.304028  0  3.284202  0  0  -0.317397  0  3.298126  0  0  -0.225024  -0.294488  0  3.272149  0
N  N43  1  0.94125406  0.82351135  0.75312345  1  0  -0.274602  0  3.195561  0  0  -0.204247  0  3.484886  0  0  -0.222107  0  3.502665  0  0  -0.240935  -0.191658  0  3.473217  0
N  N44  1  0.05874578  0.17648995  0.24687724  1  0  -0.274506  0  3.195568  0  0  -0.204135  0  3.484859  0  0  -0.221994  0  3.502638  0  0  -0.240905  -0.191546  0  3.47319  0
N  N45  1  0.92265043  0.90543877  0.62888830  1  0  -0.21086  0  2.954032  0  0  -0.192793  0  3.240217  0  0  -0.200142  0  3.256678  0  0  -0.221065  -0.187927  0  3.228939  0
N  N46  1  0.07734762  0.09456115  0.37111202  1  0  -0.211013  0  2.954063  0  0  -0.192964  0  3.240267  0  0  -0.200312  0  3.256723  0  0  -0.221107  -0.188097  0  3.228988  0
N  N47  1  0.81351901  0.60272312  0.54963778  1  0  -0.123346  0  3.581272  0  0  -0.033367  0  3.794729  0  0  -0.050005  0  3.818466  0  0  -0.21833  -0.022369  0  3.77853  0
N  N48  1  0.18647952  0.39727818  0.45036277  1  0  -0.123372  0  3.581201  0  0  -0.033402  0  3.79465  0  0  -0.050041  0  3.818388  0  0  -0.218347  -0.022403  0  3.778452  0
O  O49  1  0.20975115  0.25221401  0.90317251  1  0  -0.815595  0  1.912153  0  0  -0.753483  0  2.127275  0  0  -0.773566  0  2.092723  0  0  -0.5925  -0.738642  0  2.152616  0
O  O50  1  0.79025032  0.74778453  0.09682797  1  0  -0.815575  0  1.912166  0  0  -0.753467  0  2.127311  0  0  -0.773551  0  2.092756  0  0  -0.592519  -0.738628  0  2.152654  0
