# generated using pymatgen
data_Cu2H23C18S2I2N
_symmetry_space_group_name_H-M   'P 1'
_cell_length_a   8.90046505
_cell_length_b   10.47873752
_cell_length_c   12.04609466
_cell_angle_alpha   94.60848105
_cell_angle_beta   99.53415843
_cell_angle_gamma   105.39396273
_symmetry_Int_Tables_number   1
_chemical_formula_structural   Cu2H23C18S2I2N
_chemical_formula_sum   'Cu4 H46 C36 S4 I4 N2'
_cell_volume   1059.04800164
_cell_formula_units_Z   2
loop_
 _symmetry_equiv_pos_site_id
 _symmetry_equiv_pos_as_xyz
  1  'x, y, z'
loop_
 _atom_site_type_symbol
 _atom_site_label
 _atom_site_symmetry_multiplicity
 _atom_site_fract_x
 _atom_site_fract_y
 _atom_site_fract_z
 _atom_site_occupancy
 _atom_site_hle17_bader_spin_density
 _atom_site_hle17_ddec_charge
 _atom_site_hle17_ddec_spin_density
 _atom_site_hle17_ddec_sum_bond_order
 _atom_site_hle17_magmom
 _atom_site_hse06_10hf_bader_spin_density
 _atom_site_hse06_10hf_ddec_charge
 _atom_site_hse06_10hf_ddec_spin_density
 _atom_site_hse06_10hf_ddec_sum_bond_order
 _atom_site_hse06_10hf_magmom
 _atom_site_hse06_bader_spin_density
 _atom_site_hse06_ddec_charge
 _atom_site_hse06_ddec_spin_density
 _atom_site_hse06_ddec_sum_bond_order
 _atom_site_hse06_magmom
 _atom_site_pbe_bader_spin_density
 _atom_site_pbe_cm5_charge
 _atom_site_pbe_ddec_charge
 _atom_site_pbe_ddec_spin_density
 _atom_site_pbe_ddec_sum_bond_order
 _atom_site_pbe_magmom
Cu  Cu0  1  0.64092601  0.05452496  0.54017742  1  0  0.187056  0  2.248812  0  0  0.109528  0  2.731081  0  0  0.120687  0  2.678536  0  0  0.272068  0.103471  0  2.765726  0
Cu  Cu1  1  0.35907169  0.94547465  0.45982439  1  0  0.18703  0  2.248858  0  0  0.109497  0  2.73113  0  0  0.1206  0  2.678585  0  0  0.272065  0.103446  0  2.765792  0
Cu  Cu2  1  0.49626318  0.37454217  0.47759237  1  0  0.167764  0  2.30433  0  0  0.103762  0  2.778751  0  0  0.116793  0  2.726187  0  0  0.183437  0.096957  0  2.812371  0
Cu  Cu3  1  0.50373531  0.62545645  0.52241033  1  0  0.167766  0  2.304348  0  0  0.103766  0  2.778764  0  0  0.116785  0  2.726203  0  0  0.183442  0.09696  0  2.812398  0
H  H4  1  0.74660406  0.29828133  0.52764943  1  0  0.211368  0  0.989215  0  0  0.202577  0  1.055734  0  0  0.208535  0  1.051041  0  0  0.244422  0.197802  0  1.05985  0
H  H5  1  0.25339549  0.70172026  0.47235026  1  0  0.211369  0  0.989239  0  0  0.202572  0  1.055755  0  0  0.20853  0  1.051061  0  0  0.24442  0.197797  0  1.059875  0
H  H6  1  0.02610598  0.35291520  0.58351410  1  0  0.052752  0  0.945822  0  0  0.067166  0  1.018952  0  0  0.067793  0  1.01833  0  0  0.08634  0.066726  0  1.019435  0
H  H7  1  0.97389325  0.64708538  0.41648465  1  0  0.052731  0  0.945799  0  0  0.067149  0  1.018949  0  0  0.067773  0  1.018333  0  0  0.086341  0.066722  0  1.01942  0
H  H8  1  0.01581869  0.18342496  0.55014713  1  0  0.060298  0  0.936088  0  0  0.077252  0  1.00353  0  0  0.077554  0  1.003774  0  0  0.095407  0.077163  0  1.003253  0
H  H9  1  0.98417906  0.81657462  0.44985137  1  0  0.060287  0  0.936049  0  0  0.077261  0  1.003495  0  0  0.077562  0  1.003742  0  0  0.095426  0.077171  0  1.003221  0
H  H10  1  0.87220257  0.30202451  0.73607968  1  0  0.098909  0  0.936556  0  0  0.116388  0  0.997034  0  0  0.117423  0  0.997121  0  0  0.096592  0.115123  0  0.998063  0
H  H11  1  0.12779663  0.69797609  0.26392074  1  0  0.098915  0  0.936553  0  0  0.116391  0  0.997013  0  0  0.117423  0  0.997101  0  0  0.096584  0.115125  0  0.998044  0
H  H12  1  0.04197405  0.24100588  0.75946986  1  0  0.099072  0  0.934909  0  0  0.117462  0  0.992491  0  0  0.118523  0  0.992783  0  0  0.101133  0.116886  0  0.992032  0
H  H13  1  0.95802745  0.75899470  0.24052919  1  0  0.099096  0  0.93493  0  0  0.117496  0  0.992475  0  0  0.118555  0  0.992766  0  0  0.101144  0.116918  0  0.992017  0
H  H14  1  0.82620366  0.85795435  0.65656806  1  0  0.098665  0  0.972527  0  0  0.108242  0  1.047822  0  0  0.109793  0  1.047381  0  0  0.085715  0.106205  0  1.049626  0
H  H15  1  0.17380159  0.14204724  0.34343238  1  0  0.098622  0  0.972519  0  0  0.108202  0  1.047801  0  0  0.109761  0  1.047356  0  0  0.08569  0.106162  0  1.049612  0
H  H16  1  0.98151101  0.98883855  0.62722509  1  0  0.095517  0  0.943548  0  0  0.109638  0  1.010841  0  0  0.111598  0  1.009013  0  0  0.095059  0.108268  0  1.012028  0
H  H17  1  0.01849377  0.01116503  0.37277541  1  0  0.095483  0  0.943546  0  0  0.10962  0  1.010832  0  0  0.111585  0  1.009004  0  0  0.095026  0.108249  0  1.01202  0
H  H18  1  0.22350486  0.09210026  0.77224862  1  0  0.074096  0  0.999518  0  0  0.083665  0  1.070271  0  0  0.086231  0  1.069466  0  0  0.079538  0.081822  0  1.070786  0
H  H19  1  0.77650188  0.90790232  0.22775124  1  0  0.074152  0  0.99951  0  0  0.083712  0  1.070273  0  0  0.086248  0  1.069498  0  0  0.079553  0.081866  0  1.070792  0
H  H20  1  0.40002020  0.06868741  0.94768237  1  0  0.084797  0  0.969266  0  0  0.097437  0  1.027315  0  0  0.099699  0  1.027015  0  0  0.096718  0.095769  0  1.027678  0
H  H21  1  0.59998701  0.93131317  0.05231660  1  0  0.084688  0  0.96925  0  0  0.097334  0  1.02732  0  0  0.099596  0  1.027018  0  0  0.096665  0.09566  0  1.027691  0
H  H22  1  0.29687394  0.90091653  0.07193561  1  0  0.075771  0  0.986545  0  0  0.08166  0  1.057657  0  0  0.08397  0  1.057504  0  0  0.087946  0.079946  0  1.057941  0
H  H23  1  0.70313637  0.09908304  0.92806288  1  0  0.075772  0  0.986532  0  0  0.08165  0  1.057653  0  0  0.083961  0  1.057501  0  0  0.087922  0.079937  0  1.057939  0
H  H24  1  0.01590264  0.76103025  0.02273495  1  0  0.078341  0  0.958539  0  0  0.09146  0  1.017469  0  0  0.093533  0  1.017362  0  0  0.09427  0.09008  0  1.017338  0
H  H25  1  0.98411009  0.23896631  0.97726285  1  0  0.07836  0  0.958485  0  0  0.091461  0  1.017436  0  0  0.093533  0  1.017331  0  0  0.094301  0.090084  0  1.017305  0
H  H26  1  0.83913377  0.78570825  0.84767922  1  0  0.084693  0  0.969319  0  0  0.090533  0  1.042535  0  0  0.093387  0  1.041288  0  0  0.089876  0.088432  0  1.043544  0
H  H27  1  0.16087913  0.21429232  0.15232050  1  0  0.084699  0  0.969333  0  0  0.090557  0  1.04252  0  0  0.093413  0  1.041269  0  0  0.089871  0.088459  0  1.043534  0
H  H28  1  0.59582966  0.09186251  0.31175557  1  0  0.08885  0  0.970336  0  0  0.100955  0  1.044305  0  0  0.103283  0  1.041406  0  0  0.084232  0.09874  0  1.047303  0
H  H29  1  0.40416703  0.90813411  0.68824594  1  0  0.088856  0  0.97037  0  0  0.10096  0  1.044344  0  0  0.103292  0  1.041446  0  0  0.08421  0.09875  0  1.047337  0
H  H30  1  0.68654421  0.18798574  0.21312197  1  0  0.104171  0  0.948767  0  0  0.121371  0  1.004279  0  0  0.121703  0  1.007222  0  0  0.100326  0.121109  0  1.002232  0
H  H31  1  0.31344942  0.81201186  0.78687753  1  0  0.104231  0  0.948823  0  0  0.121464  0  1.004297  0  0  0.121797  0  1.007244  0  0  0.100346  0.121203  0  1.002246  0
H  H32  1  0.54864531  0.50626378  0.25822580  1  0  0.104159  0  0.949321  0  0  0.118218  0  1.017435  0  0  0.119462  0  1.016927  0  0  0.094951  0.116884  0  1.018599  0
H  H33  1  0.45135137  0.49373284  0.74177653  1  0  0.10414  0  0.949325  0  0  0.11819  0  1.017446  0  0  0.119433  0  1.01694  0  0  0.094938  0.116857  0  1.018611  0
H  H34  1  0.73980930  0.48559891  0.30146160  1  0  0.091007  0  0.948235  0  0  0.105315  0  1.014689  0  0  0.107241  0  1.013235  0  0  0.091631  0.10383  0  1.015859  0
H  H35  1  0.26018525  0.51439471  0.69853861  1  0  0.090964  0  0.948237  0  0  0.105269  0  1.014672  0  0  0.107193  0  1.013222  0  0  0.0916  0.103773  0  1.015854  0
H  H36  1  0.89330286  0.17742471  0.36358027  1  0  0.065103  0  0.953415  0  0  0.086222  0  1.013148  0  0  0.085683  0  1.015163  0  0  0.101825  0.086594  0  1.011927  0
H  H37  1  0.10669341  0.82257387  0.63641798  1  0  0.065076  0  0.953472  0  0  0.086185  0  1.013211  0  0  0.085648  0  1.015234  0  0  0.10182  0.086556  0  1.011992  0
H  H38  1  0.88286166  0.34339203  0.37846216  1  0  0.050899  0  0.943567  0  0  0.06691  0  1.010748  0  0  0.067397  0  1.010757  0  0  0.084129  0.066778  0  1.010487  0
H  H39  1  0.11713576  0.65660656  0.62153623  1  0  0.0509  0  0.943583  0  0  0.06691  0  1.010768  0  0  0.067399  0  1.010784  0  0  0.084113  0.066779  0  1.010504  0
H  H40  1  0.39002538  0.29855771  0.06807280  1  0  0.087677  0  0.965636  0  0  0.097826  0  1.030677  0  0  0.100452  0  1.029932  0  0  0.095597  0.096047  0  1.03102  0
H  H41  1  0.60996306  0.70144491  0.93192964  1  0  0.087693  0  0.965639  0  0  0.097787  0  1.030716  0  0  0.100416  0  1.029965  0  0  0.095551  0.096003  0  1.031067  0
H  H42  1  0.40684679  0.27418858  0.86432288  1  0  0.077453  0  0.972646  0  0  0.088711  0  1.034984  0  0  0.090993  0  1.034459  0  0  0.09113  0.087186  0  1.035204  0
H  H43  1  0.59314152  0.72581703  0.13567973  1  0  0.077487  0  0.972682  0  0  0.088787  0  1.034962  0  0  0.091041  0  1.034471  0  0  0.09118  0.087275  0  1.03515  0
H  H44  1  0.65915681  0.37840653  0.80272328  1  0  0.072307  0  1.00054  0  0  0.076727  0  1.077257  0  0  0.079379  0  1.076505  0  0  0.077747  0.074761  0  1.07797  0
H  H45  1  0.34083177  0.62159309  0.19727817  1  0  0.0723  0  1.000549  0  0  0.076741  0  1.077244  0  0  0.079389  0  1.076504  0  0  0.077767  0.074773  0  1.077958  0
H  H46  1  0.89619827  0.50738213  0.94658690  1  0  0.077566  0  0.977726  0  0  0.089013  0  1.040606  0  0  0.091389  0  1.039696  0  0  0.094827  0.08735  0  1.041237  0
H  H47  1  0.10380064  0.49261743  0.05341009  1  0  0.07755  0  0.977746  0  0  0.089042  0  1.040574  0  0  0.091419  0  1.039662  0  0  0.094838  0.087375  0  1.041212  0
H  H48  1  0.88238188  0.52632043  0.15198672  1  0  0.079402  0  0.973177  0  0  0.090543  0  1.03876  0  0  0.093284  0  1.037463  0  0  0.091961  0.088642  0  1.039589  0
H  H49  1  0.11761313  0.47367120  0.84801426  1  0  0.079347  0  0.973222  0  0  0.090485  0  1.038815  0  0  0.093225  0  1.03752  0  0  0.091964  0.088582  0  1.039644  0
C  C50  1  0.95097467  0.25000461  0.58203229  1  0  0.035928  0  3.663205  0  0  -0.024044  0  3.926678  0  0  -0.020159  0  3.939777  0  0  -0.084046  -0.027035  0  3.918401  0
C  C51  1  0.04902503  0.74999396  0.41796558  1  0  0.036026  0  3.663191  0  0  -0.024019  0  3.926752  0  0  -0.020143  0  3.939855  0  0  -0.084096  -0.027019  0  3.918467  0
C  C52  1  0.92764922  0.22884252  0.70249834  1  0  -0.173086  0  3.621068  0  0  -0.213256  0  3.888654  0  0  -0.213102  0  3.898618  0  0  -0.154164  -0.213383  0  3.882842  0
C  C53  1  0.07235180  0.77116007  0.29750161  1  0  -0.173165  0  3.621213  0  0  -0.21328  0  3.888732  0  0  -0.213096  0  3.898651  0  0  -0.154137  -0.213407  0  3.882928  0
C  C54  1  0.91361966  0.95399976  0.69270822  1  0  -0.195466  0  3.672984  0  0  -0.237434  0  3.924079  0  0  -0.236907  0  3.933562  0  0  -0.152495  -0.237437  0  3.918407  0
C  C55  1  0.08638512  0.04600382  0.30729228  1  0  -0.195349  0  3.672857  0  0  -0.237332  0  3.924008  0  0  -0.236823  0  3.933503  0  0  -0.152445  -0.237342  0  3.918329  0
C  C56  1  0.01897590  0.94246519  0.79979391  1  0  0.084867  0  3.788455  0  0  0.110607  0  4.016527  0  0  0.109785  0  4.042508  0  0  -0.024192  0.11091  0  3.999153  0
C  C57  1  0.98102984  0.05753437  0.20020398  1  0  0.084816  0  3.78846  0  0  0.110537  0  4.016578  0  0  0.109719  0  4.042555  0  0  -0.024192  0.110867  0  3.999164  0
C  C58  1  0.17676064  0.02227437  0.82923260  1  0  -0.131798  0  3.754485  0  0  -0.150752  0  3.997255  0  0  -0.15454  0  4.019947  0  0  -0.103042  -0.148013  0  3.981695  0
C  C59  1  0.82324382  0.97772821  0.17076696  1  0  -0.131873  0  3.754526  0  0  -0.150828  0  3.997298  0  0  -0.154588  0  4.019999  0  0  -0.103041  -0.148094  0  3.981729  0
C  C60  1  0.27672914  0.00746479  0.92667948  1  0  -0.072312  0  3.786952  0  0  -0.080309  0  4.028094  0  0  -0.081915  0  4.049214  0  0  -0.09643  -0.079218  0  4.013823  0
C  C61  1  0.72327696  0.99253576  0.07331769  1  0  -0.072055  0  3.786833  0  0  -0.080049  0  4.027934  0  0  -0.081651  0  4.049045  0  0  -0.096334  -0.078953  0  4.013659  0
C  C62  1  0.21936078  0.91317017  0.99611103  1  0  -0.075308  0  3.795519  0  0  -0.093243  0  4.049197  0  0  -0.095343  0  4.071293  0  0  -0.097257  -0.091866  0  4.034436  0
C  C63  1  0.78064986  0.08683039  0.00388756  1  0  -0.075454  0  3.795705  0  0  -0.093389  0  4.049384  0  0  -0.095487  0  4.071475  0  0  -0.097295  -0.092011  0  4.034622  0
C  C64  1  0.06129431  0.83452115  0.96836240  1  0  -0.06106  0  3.783498  0  0  -0.072873  0  4.032058  0  0  -0.074848  0  4.054954  0  0  -0.093518  -0.071546  0  4.016417  0
C  C65  1  0.93871649  0.16547640  0.03163354  1  0  -0.061077  0  3.783202  0  0  -0.072878  0  4.031758  0  0  -0.074851  0  4.054652  0  0  -0.093578  -0.071555  0  4.016125  0
C  C66  1  0.96179761  0.84864656  0.87078973  1  0  -0.109899  0  3.724568  0  0  -0.128981  0  3.967199  0  0  -0.131852  0  3.989426  0  0  -0.093923  -0.126964  0  3.952257  0
C  C67  1  0.03821561  0.15135503  0.12921175  1  0  -0.109871  0  3.724288  0  0  -0.128957  0  3.966926  0  0  -0.13183  0  3.98916  0  0  -0.093894  -0.126952  0  3.951978  0
C  C68  1  0.66274912  0.19264224  0.29970770  1  0  -0.169056  0  3.631479  0  0  -0.202408  0  3.883694  0  0  -0.203367  0  3.895473  0  0  -0.157289  -0.201496  0  3.875939  0
C  C69  1  0.33724451  0.80735537  0.70029263  1  0  -0.169116  0  3.631717  0  0  -0.202496  0  3.883963  0  0  -0.203412  0  3.895646  0  0  -0.157247  -0.201585  0  3.876214  0
C  C70  1  0.62293179  0.43908488  0.24659133  1  0  -0.186613  0  3.661029  0  0  -0.228996  0  3.91186  0  0  -0.228411  0  3.921754  0  0  -0.148544  -0.229006  0  3.905408  0
C  C71  1  0.37706413  0.56091272  0.75340847  1  0  -0.186479  0  3.661045  0  0  -0.228857  0  3.911766  0  0  -0.22827  0  3.921648  0  0  -0.148421  -0.228859  0  3.905322  0
C  C72  1  0.81802129  0.23963108  0.38524386  1  0  0.046449  0  3.648013  0  0  -0.009383  0  3.901063  0  0  -0.005935  0  3.915105  0  0  -0.080024  -0.011931  0  3.891514  0
C  C73  1  0.18197612  0.76036750  0.61475453  1  0  0.046475  0  3.648182  0  0  -0.009368  0  3.901283  0  0  -0.005946  0  3.915374  0  0  -0.080015  -0.011915  0  3.891736  0
C  C74  1  0.63486584  0.41504062  0.12395412  1  0  0.094536  0  3.769072  0  0  0.120301  0  3.996604  0  0  0.119681  0  4.022883  0  0  -0.017315  0.120633  0  3.978744  0
C  C75  1  0.36512583  0.58495799  0.87604685  1  0  0.094487  0  3.768931  0  0  0.120395  0  3.99621  0  0  0.119774  0  4.022495  0  0  -0.017378  0.120729  0  3.978347  0
C  C76  1  0.50187547  0.34309101  0.04184243  1  0  -0.1134  0  3.736725  0  0  -0.132395  0  3.976961  0  0  -0.135626  0  3.999819  0  0  -0.090207  -0.130143  0  3.961557  0
C  C77  1  0.49811529  0.65691158  0.95815699  1  0  -0.11341  0  3.736652  0  0  -0.13237  0  3.976792  0  0  -0.135596  0  3.999636  0  0  -0.090198  -0.130125  0  3.961402  0
C  C78  1  0.51138805  0.32926543  0.92746608  1  0  -0.0645  0  3.789142  0  0  -0.073596  0  4.032216  0  0  -0.075378  0  4.054622  0  0  -0.092964  -0.072367  0  4.017211  0
C  C79  1  0.48860532  0.67073817  0.07253457  1  0  -0.064558  0  3.789179  0  0  -0.073712  0  4.03227  0  0  -0.07548  0  4.054692  0  0  -0.092952  -0.072474  0  4.017261  0
C  C80  1  0.65319674  0.38766378  0.89266952  1  0  -0.081347  0  3.787028  0  0  -0.095221  0  4.0356  0  0  -0.09804  0  4.058031  0  0  -0.102474  -0.093288  0  4.02054  0
C  C81  1  0.34679642  0.61233582  0.10733087  1  0  -0.081337  0  3.787134  0  0  -0.095244  0  4.035744  0  0  -0.098058  0  4.058156  0  0  -0.102559  -0.09331  0  4.020684  0
C  C82  1  0.78610389  0.45954323  0.97356552  1  0  -0.072535  0  3.797036  0  0  -0.083555  0  4.043172  0  0  -0.085176  0  4.065164  0  0  -0.09785  -0.08239  0  4.027949  0
C  C83  1  0.21389645  0.54045737  0.02643504  1  0  -0.072529  0  3.797265  0  0  -0.083581  0  4.043395  0  0  -0.0852  0  4.065386  0  0  -0.097831  -0.082413  0  4.028171  0
C  C84  1  0.77754853  0.47145539  0.08862451  1  0  -0.128776  0  3.749759  0  0  -0.147643  0  3.992491  0  0  -0.150968  0  4.01477  0  0  -0.09803  -0.145181  0  3.976919  0
C  C85  1  0.22244507  0.52854224  0.91137748  1  0  -0.128672  0  3.749805  0  0  -0.147594  0  3.992504  0  0  -0.15092  0  4.014785  0  0  -0.098  -0.145129  0  3.976932  0
S  S86  1  0.79231653  0.06747823  0.71298949  1  0  0.063097  0  2.683339  0  0  0.089544  0  3.091919  0  0  0.088371  0  3.080861  0  0  -0.029426  0.090232  0  3.099524  0
S  S87  1  0.20768629  0.93252636  0.28701247  1  0  0.063106  0  2.68331  0  0  0.089528  0  3.091913  0  0  0.08837  0  3.080834  0  0  -0.029416  0.090213  0  3.09953  0
S  S88  1  0.52292465  0.29074167  0.30357855  1  0  0.041987  0  2.774432  0  0  0.068323  0  3.190937  0  0  0.06653  0  3.178712  0  0  -0.037507  0.068958  0  3.199383  0
S  S89  1  0.47707156  0.70925696  0.69642467  1  0  0.041911  0  2.77455  0  0  0.068227  0  3.191071  0  0  0.066432  0  3.178839  0  0  -0.037562  0.068865  0  3.199525  0
I  I90  1  0.59260900  0.83402023  0.41147831  1  0  -0.332612  0  1.738722  0  0  -0.280469  0  2.196113  0  0  -0.292854  0  2.151582  0  0  -0.157203  -0.272462  0  2.225971  0
I  I91  1  0.40738984  0.16597938  0.58852366  1  0  -0.332612  0  1.738752  0  0  -0.28046  0  2.196112  0  0  -0.292851  0  2.151595  0  0  -0.157211  -0.272451  0  2.225972  0
I  I92  1  0.75413063  0.54308741  0.60059093  1  0  -0.399534  0  1.470454  0  0  -0.346721  0  1.86063  0  0  -0.362401  0  1.827606  0  0  -0.190579  -0.335393  0  1.883124  0
I  I93  1  0.24586857  0.45691318  0.39940948  1  0  -0.399548  0  1.47046  0  0  -0.346743  0  1.860636  0  0  -0.362424  0  1.827616  0  0  -0.190586  -0.335415  0  1.883128  0
N  N94  1  0.79766626  0.22551318  0.50308491  1  0  -0.367231  0  3.297502  0  0  -0.286046  0  3.543987  0  0  -0.303297  0  3.553274  0  0  -0.518388  -0.274163  0  3.538016  0
N  N95  1  0.20233329  0.77448841  0.49691477  1  0  -0.36726  0  3.297501  0  0  -0.286049  0  3.544019  0  0  -0.303284  0  3.553299  0  0  -0.518402  -0.274168  0  3.538068  0
