# generated using pymatgen
data_CdH10C17(NO)4
_symmetry_space_group_name_H-M   'P 1'
_cell_length_a   10.43413892
_cell_length_b   10.66704748
_cell_length_c   13.56433233
_cell_angle_alpha   90.50735939
_cell_angle_beta   90.00000768
_cell_angle_gamma   90.00002389
_symmetry_Int_Tables_number   1
_chemical_formula_structural   CdH10C17(NO)4
_chemical_formula_sum   'Cd4 H40 C68 N16 O16'
_cell_volume   1509.67073758
_cell_formula_units_Z   4
loop_
 _symmetry_equiv_pos_site_id
 _symmetry_equiv_pos_as_xyz
  1  'x, y, z'
loop_
 _atom_site_type_symbol
 _atom_site_label
 _atom_site_symmetry_multiplicity
 _atom_site_fract_x
 _atom_site_fract_y
 _atom_site_fract_z
 _atom_site_occupancy
 _atom_site_hle17_bader_spin_density
 _atom_site_hle17_ddec_charge
 _atom_site_hle17_ddec_spin_density
 _atom_site_hle17_ddec_sum_bond_order
 _atom_site_hle17_magmom
 _atom_site_hse06_10hf_bader_spin_density
 _atom_site_hse06_10hf_ddec_charge
 _atom_site_hse06_10hf_ddec_spin_density
 _atom_site_hse06_10hf_ddec_sum_bond_order
 _atom_site_hse06_10hf_magmom
 _atom_site_hse06_bader_spin_density
 _atom_site_hse06_ddec_charge
 _atom_site_hse06_ddec_spin_density
 _atom_site_hse06_ddec_sum_bond_order
 _atom_site_hse06_magmom
 _atom_site_pbe_bader_spin_density
 _atom_site_pbe_cm5_charge
 _atom_site_pbe_ddec_charge
 _atom_site_pbe_ddec_spin_density
 _atom_site_pbe_ddec_sum_bond_order
 _atom_site_pbe_magmom
Cd  Cd0  1  0.61160313  0.82185191  0.18093565  1  0  1.026515  0  1.792679  0  0  0.816302  0  2.239021  0  0  0.869734  0  2.195747  0  0  0.788257  0.778395  0  2.268154  0
Cd  Cd1  1  0.11160295  0.17814735  0.31906400  1  0  1.026546  0  1.79266  0  0  0.81634  0  2.239008  0  0  0.869771  0  2.195734  0  0  0.788252  0.778433  0  2.268142  0
Cd  Cd2  1  0.38839632  0.17814766  0.81906418  1  0  1.026527  0  1.792687  0  0  0.816333  0  2.239017  0  0  0.869764  0  2.195741  0  0  0.788254  0.778428  0  2.268151  0
Cd  Cd3  1  0.88839649  0.82185221  0.68093657  1  0  1.026506  0  1.79271  0  0  0.816305  0  2.239032  0  0  0.869736  0  2.195756  0  0  0.788252  0.778397  0  2.268165  0
H  H4  1  0.87665515  0.66977017  0.12713278  1  0  0.085149  0  0.934798  0  0  0.090829  0  1.003755  0  0  0.094054  0  1.000145  0  0  0.117449  0.088003  0  1.007455  0
H  H5  1  0.37665409  0.33022920  0.37286690  1  0  0.085125  0  0.9348  0  0  0.090806  0  1.003756  0  0  0.094033  0  1.000143  0  0  0.117452  0.087982  0  1.007455  0
H  H6  1  0.12334525  0.33022940  0.87286705  1  0  0.085137  0  0.934822  0  0  0.09082  0  1.00377  0  0  0.094046  0  1.000159  0  0  0.117461  0.087995  0  1.007471  0
H  H7  1  0.62334536  0.66976943  0.62713218  1  0  0.085149  0  0.934787  0  0  0.090827  0  1.003747  0  0  0.094051  0  1.000138  0  0  0.11745  0.088001  0  1.007446  0
H  H8  1  0.95190424  0.44684455  0.09686074  1  0  0.111742  0  0.948243  0  0  0.123298  0  1.004979  0  0  0.126172  0  1.004478  0  0  0.110842  0.120825  0  1.006289  0
H  H9  1  0.45190328  0.55315486  0.40313822  1  0  0.1117  0  0.948279  0  0  0.123267  0  1.005  0  0  0.12614  0  1.004499  0  0  0.110839  0.120795  0  1.00631  0
H  H10  1  0.04809616  0.55315408  0.90313908  1  0  0.111685  0  0.948251  0  0  0.123252  0  1.00498  0  0  0.126123  0  1.004478  0  0  0.110827  0.120779  0  1.006291  0
H  H11  1  0.54809521  0.44684472  0.59686014  1  0  0.111748  0  0.948216  0  0  0.123302  0  1.004957  0  0  0.126177  0  1.004456  0  0  0.110846  0.120828  0  1.00627  0
H  H12  1  0.78850500  0.27697940  0.08536035  1  0  0.093829  0  0.970428  0  0  0.10199  0  1.038025  0  0  0.103674  0  1.037667  0  0  0.107207  0.100862  0  1.038118  0
H  H13  1  0.28850507  0.72302089  0.41463786  1  0  0.09389  0  0.970356  0  0  0.102027  0  1.037975  0  0  0.103712  0  1.037617  0  0  0.107211  0.100897  0  1.038071  0
H  H14  1  0.21149445  0.72302111  0.91463876  1  0  0.093865  0  0.97039  0  0  0.102016  0  1.037996  0  0  0.1037  0  1.037638  0  0  0.107208  0.100888  0  1.038091  0
H  H15  1  0.71149437  0.27697962  0.58536124  1  0  0.093835  0  0.970484  0  0  0.101982  0  1.038089  0  0  0.103666  0  1.03773  0  0  0.107187  0.100853  0  1.038183  0
H  H16  1  0.55811031  0.21247007  0.08427583  1  0  0.109215  0  0.931999  0  0  0.123706  0  0.985816  0  0  0.125948  0  0.985566  0  0  0.110676  0.122023  0  0.986087  0
H  H17  1  0.05811137  0.78752916  0.41572456  1  0  0.109209  0  0.932009  0  0  0.123688  0  0.985836  0  0  0.125927  0  0.985591  0  0  0.110669  0.122005  0  0.986108  0
H  H18  1  0.44188913  0.78752855  0.91572473  1  0  0.109226  0  0.932027  0  0  0.123711  0  0.985844  0  0  0.125958  0  0.985587  0  0  0.110676  0.122028  0  0.986115  0
H  H19  1  0.94188903  0.21247040  0.58427527  1  0  0.109235  0  0.931997  0  0  0.123728  0  0.98581  0  0  0.125972  0  0.985557  0  0  0.110676  0.122043  0  0.986083  0
H  H20  1  0.32797634  0.27149872  0.10017961  1  0  0.120076  0  0.952728  0  0  0.127719  0  1.017717  0  0  0.130687  0  1.016361  0  0  0.11006  0.12567  0  1.018451  0
H  H21  1  0.82797556  0.72850156  0.39982156  1  0  0.120111  0  0.952661  0  0  0.127769  0  1.017631  0  0  0.13074  0  1.016269  0  0  0.110075  0.12572  0  1.018367  0
H  H22  1  0.67202406  0.72850177  0.89982171  1  0  0.120102  0  0.952662  0  0  0.127763  0  1.017631  0  0  0.130734  0  1.016269  0  0  0.110076  0.125715  0  1.018366  0
H  H23  1  0.17202389  0.27149894  0.60017976  1  0  0.120078  0  0.95272  0  0  0.12772  0  1.017708  0  0  0.130688  0  1.016354  0  0  0.110061  0.125671  0  1.018442  0
H  H24  1  0.16432991  0.43123948  0.13034272  1  0  0.111664  0  0.965964  0  0  0.11968  0  1.031203  0  0  0.12356  0  1.027472  0  0  0.10779  0.116927  0  1.033928  0
H  H25  1  0.66433097  0.56876075  0.36965622  1  0  0.111667  0  0.965945  0  0  0.119679  0  1.031191  0  0  0.12356  0  1.027459  0  0  0.107781  0.116924  0  1.033918  0
H  H26  1  0.83566954  0.56876010  0.86965638  1  0  0.111692  0  0.965922  0  0  0.119705  0  1.031168  0  0  0.123586  0  1.027437  0  0  0.107809  0.11695  0  1.033895  0
H  H27  1  0.33566944  0.43123976  0.63034289  1  0  0.111663  0  0.965973  0  0  0.119679  0  1.031217  0  0  0.12356  0  1.027485  0  0  0.107788  0.116925  0  1.033942  0
H  H28  1  0.10908438  0.66168662  0.15716494  1  0  0.10985  0  0.936465  0  0  0.123962  0  0.987431  0  0  0.126638  0  0.987242  0  0  0.110914  0.120871  0  0.989699  0
H  H29  1  0.60908247  0.33831453  0.34283400  1  0  0.109882  0  0.936369  0  0  0.123987  0  0.987349  0  0  0.126664  0  0.987161  0  0  0.110926  0.120898  0  0.989616  0
H  H30  1  0.89091794  0.33831483  0.84283344  1  0  0.109892  0  0.936339  0  0  0.12399  0  0.987335  0  0  0.126667  0  0.987148  0  0  0.110923  0.120901  0  0.989601  0
H  H31  1  0.39091602  0.66168692  0.65716512  1  0  0.109897  0  0.936418  0  0  0.124051  0  0.987326  0  0  0.126728  0  0.987137  0  0  0.11094  0.120959  0  0.989598  0
H  H32  1  0.28758405  0.81678329  0.16868730  1  0  0.089169  0  0.952477  0  0  0.09691  0  1.015194  0  0  0.099161  0  1.013232  0  0  0.118395  0.095158  0  1.016655  0
H  H33  1  0.78758303  0.18321698  0.33131239  1  0  0.089134  0  0.952506  0  0  0.096884  0  1.015223  0  0  0.099134  0  1.013263  0  0  0.118394  0.095133  0  1.016684  0
H  H34  1  0.71241731  0.18321722  0.83131181  1  0  0.08916  0  0.952492  0  0  0.096903  0  1.015209  0  0  0.099153  0  1.013248  0  0  0.118402  0.095152  0  1.01667  0
H  H35  1  0.21241642  0.81678352  0.66868746  1  0  0.089178  0  0.952475  0  0  0.096917  0  1.015195  0  0  0.099168  0  1.013234  0  0  0.118403  0.095165  0  1.016657  0
H  H36  1  0.37602914  0.08039387  0.15071211  1  0  0.087116  0  0.963988  0  0  0.09297  0  1.035089  0  0  0.096009  0  1.030904  0  0  0.124797  0.0908  0  1.03801  0
H  H37  1  0.87602939  0.91960363  0.34928756  1  0  0.087133  0  0.963953  0  0  0.092962  0  1.035087  0  0  0.096002  0  1.030899  0  0  0.12478  0.090791  0  1.038011  0
H  H38  1  0.62397030  0.91960383  0.84928697  1  0  0.08709  0  0.963909  0  0  0.092917  0  1.035058  0  0  0.095956  0  1.030869  0  0  0.124759  0.090747  0  1.03798  0
H  H39  1  0.12397005  0.08039406  0.65071226  1  0  0.08715  0  0.963913  0  0  0.093001  0  1.035022  0  0  0.096045  0  1.030833  0  0  0.124793  0.090825  0  1.037942  0
H  H40  1  0.38890535  0.88685401  0.52273837  1  0  0.377978  0  0.928432  0  0  0.346675  0  1.008504  0  0  0.360004  0  0.99641  0  0  0.285497  0.337436  0  1.016669  0
H  H41  1  0.88890240  0.11314680  0.97726165  1  0  0.377972  0  0.928415  0  0  0.346675  0  1.008476  0  0  0.360003  0  0.996382  0  0  0.285503  0.337435  0  1.016641  0
H  H42  1  0.61109697  0.11314649  0.47726221  1  0  0.377892  0  0.928552  0  0  0.346597  0  1.008611  0  0  0.359926  0  0.996519  0  0  0.285479  0.337357  0  1.016776  0
H  H43  1  0.11109513  0.88685371  0.02273819  1  0  0.377882  0  0.928621  0  0  0.346632  0  1.008565  0  0  0.359961  0  0.996472  0  0  0.285459  0.337393  0  1.016731  0
C  C44  1  0.80912872  0.59161168  0.12302789  1  0  0.147713  0  3.692067  0  0  0.113432  0  3.950739  0  0  0.122259  0  3.966459  0  0  0.059266  0.107656  0  3.940649  0
C  C45  1  0.30912769  0.40838673  0.37697104  1  0  0.147784  0  3.691964  0  0  0.113518  0  3.950652  0  0  0.122346  0  3.966371  0  0  0.059262  0.107741  0  3.940564  0
C  C46  1  0.19087265  0.40838602  0.87697045  1  0  0.147778  0  3.69196  0  0  0.11351  0  3.950646  0  0  0.122338  0  3.966365  0  0  0.059279  0.107733  0  3.940556  0
C  C47  1  0.69087176  0.59161097  0.62302803  1  0  0.147693  0  3.692084  0  0  0.113418  0  3.95075  0  0  0.122244  0  3.966471  0  0  0.059249  0.107641  0  3.940659  0
C  C48  1  0.85043636  0.46800111  0.10564733  1  0  -0.114271  0  3.71621  0  0  -0.128428  0  3.97151  0  0  -0.135278  0  3.992605  0  0  -0.082646  -0.123494  0  3.957581  0
C  C49  1  0.35043539  0.53199919  0.39435162  1  0  -0.11422  0  3.716137  0  0  -0.128379  0  3.971425  0  0  -0.135226  0  3.992517  0  0  -0.08262  -0.123446  0  3.957497  0
C  C50  1  0.14956500  0.53199940  0.89435177  1  0  -0.114155  0  3.716066  0  0  -0.128318  0  3.97137  0  0  -0.135163  0  3.992461  0  0  -0.082601  -0.123385  0  3.957441  0
C  C51  1  0.64956406  0.46800132  0.60564675  1  0  -0.114246  0  3.716187  0  0  -0.128399  0  3.971465  0  0  -0.135249  0  3.992559  0  0  -0.082628  -0.123465  0  3.957534  0
C  C52  1  0.75995547  0.37363251  0.09936227  1  0  -0.035433  0  3.688849  0  0  -0.060982  0  3.939038  0  0  -0.058253  0  3.958086  0  0  -0.061126  -0.062706  0  3.925467  0
C  C53  1  0.25995358  0.62636682  0.40063666  1  0  -0.035522  0  3.68889  0  0  -0.061048  0  3.939093  0  0  -0.05832  0  3.958141  0  0  -0.06113  -0.062771  0  3.925525  0
C  C54  1  0.24004589  0.62636707  0.90063683  1  0  -0.035525  0  3.688911  0  0  -0.061063  0  3.939109  0  0  -0.058335  0  3.958156  0  0  -0.061137  -0.062787  0  3.925541  0
C  C55  1  0.74004491  0.37363181  0.59936168  1  0  -0.035472  0  3.688903  0  0  -0.061001  0  3.93908  0  0  -0.058273  0  3.958127  0  0  -0.061117  -0.062726  0  3.925509  0
C  C56  1  0.62858000  0.40236008  0.10871678  1  0  0.01758  0  3.804482  0  0  0.034023  0  4.037131  0  0  0.031425  0  4.061644  0  0  -0.003272  0.036205  0  4.020251  0
C  C57  1  0.12858097  0.59764106  0.39128364  1  0  0.017644  0  3.804439  0  0  0.034086  0  4.037065  0  0  0.031487  0  4.061578  0  0  -0.003275  0.036266  0  4.020188  0
C  C58  1  0.37141945  0.59764042  0.89128380  1  0  0.01762  0  3.804424  0  0  0.034065  0  4.037062  0  0  0.031466  0  4.061577  0  0  -0.003285  0.036246  0  4.020183  0
C  C59  1  0.87141944  0.40236038  0.60871769  1  0  0.017659  0  3.80437  0  0  0.034113  0  4.037017  0  0  0.031516  0  4.06153  0  0  -0.003266  0.036295  0  4.020135  0
C  C60  1  0.53020482  0.30922305  0.09988600  1  0  -0.10038  0  3.733253  0  0  -0.124601  0  3.990578  0  0  -0.128082  0  4.013852  0  0  -0.084094  -0.12227  0  3.97463  0
C  C61  1  0.03020392  0.69077711  0.40011587  1  0  -0.10042  0  3.733274  0  0  -0.124629  0  3.990598  0  0  -0.128108  0  4.013875  0  0  -0.08409  -0.122298  0  3.974651  0
C  C62  1  0.46979462  0.69077744  0.90011606  1  0  -0.100452  0  3.733266  0  0  -0.124671  0  3.990601  0  0  -0.128156  0  4.013876  0  0  -0.084102  -0.12234  0  3.974654  0
C  C63  1  0.96979457  0.30922244  0.59988617  1  0  -0.100492  0  3.733236  0  0  -0.124715  0  3.990556  0  0  -0.128198  0  4.013831  0  0  -0.084115  -0.122385  0  3.974609  0
C  C64  1  0.40393375  0.34098562  0.10875852  1  0  -0.092341  0  3.716477  0  0  -0.118196  0  3.977307  0  0  -0.121266  0  4.000482  0  0  -0.081459  -0.115463  0  3.961132  0
C  C65  1  0.90393294  0.65901470  0.39124192  1  0  -0.092351  0  3.71643  0  0  -0.118235  0  3.977228  0  0  -0.121306  0  4.000402  0  0  -0.081469  -0.115505  0  3.961055  0
C  C66  1  0.59606761  0.65901394  0.89124205  1  0  -0.092297  0  3.716422  0  0  -0.118181  0  3.977223  0  0  -0.121253  0  4.000399  0  0  -0.081454  -0.115451  0  3.961049  0
C  C67  1  0.09606651  0.34098580  0.60875866  1  0  -0.092303  0  3.716489  0  0  -0.11815  0  3.977307  0  0  -0.121222  0  4.000484  0  0  -0.081443  -0.115418  0  3.961131  0
C  C68  1  0.36711905  0.46833177  0.12715309  1  0  0.024985  0  3.785734  0  0  0.042489  0  4.016906  0  0  0.039791  0  4.0418  0  0  -0.002496  0.043518  0  4.000761  0
C  C69  1  0.86711914  0.53166947  0.37284735  1  0  0.024913  0  3.785734  0  0  0.04248  0  4.016843  0  0  0.039783  0  4.041738  0  0  -0.002502  0.04351  0  4.000695  0
C  C70  1  0.63288040  0.53166966  0.87284750  1  0  0.024868  0  3.785771  0  0  0.042435  0  4.016874  0  0  0.039739  0  4.041768  0  0  -0.002506  0.043465  0  4.000727  0
C  C71  1  0.13288127  0.46833104  0.62715249  1  0  0.024918  0  3.785736  0  0  0.042418  0  4.016906  0  0  0.039721  0  4.041802  0  0  -0.002557  0.043448  0  4.000758  0
C  C72  1  0.23726071  0.50443607  0.13603982  1  0  -0.048331  0  3.676433  0  0  -0.075278  0  3.928114  0  0  -0.073269  0  3.946348  0  0  -0.064609  -0.076469  0  3.915738  0
C  C73  1  0.73726078  0.49556232  0.36395763  1  0  -0.048284  0  3.676466  0  0  -0.075244  0  3.928123  0  0  -0.073234  0  3.946354  0  0  -0.06459  -0.076435  0  3.915748  0
C  C74  1  0.76274065  0.49556257  0.86395779  1  0  -0.048273  0  3.676335  0  0  -0.075234  0  3.927989  0  0  -0.073224  0  3.94622  0  0  -0.064604  -0.076428  0  3.915619  0
C  C75  1  0.26273962  0.50443633  0.63603998  1  0  -0.048272  0  3.676387  0  0  -0.075225  0  3.928083  0  0  -0.073216  0  3.946313  0  0  -0.064558  -0.076418  0  3.915709  0
C  C76  1  0.20775375  0.62930491  0.15126199  1  0  -0.11214  0  3.7282  0  0  -0.124594  0  3.983019  0  0  -0.131134  0  4.003724  0  0  -0.082538  -0.119783  0  3.970045  0
C  C77  1  0.70775569  0.37069721  0.34873697  1  0  -0.112161  0  3.72822  0  0  -0.124601  0  3.983051  0  0  -0.131143  0  4.003759  0  0  -0.082528  -0.119792  0  3.970077  0
C  C78  1  0.79224377  0.37069654  0.84873639  1  0  -0.112179  0  3.728235  0  0  -0.124625  0  3.983062  0  0  -0.131167  0  4.00377  0  0  -0.082536  -0.119815  0  3.970084  0
C  C79  1  0.29224664  0.62930517  0.65126289  1  0  -0.112169  0  3.728168  0  0  -0.124649  0  3.982978  0  0  -0.131189  0  4.003684  0  0  -0.082572  -0.119839  0  3.970004  0
C  C80  1  0.30776586  0.71737165  0.15810084  1  0  0.151164  0  3.683189  0  0  0.117736  0  3.941405  0  0  0.126301  0  3.957718  0  0  0.05668  0.111876  0  3.929825  0
C  C81  1  0.80776392  0.28262676  0.34189956  1  0  0.151268  0  3.682998  0  0  0.117805  0  3.941251  0  0  0.126372  0  3.957564  0  0  0.0567  0.111945  0  3.929672  0
C  C82  1  0.69223646  0.28262792  0.84189899  1  0  0.151181  0  3.68311  0  0  0.117743  0  3.941333  0  0  0.12631  0  3.957647  0  0  0.056669  0.111884  0  3.929752  0
C  C83  1  0.19223361  0.71737187  0.65810026  1  0  0.151129  0  3.683229  0  0  0.117695  0  3.941463  0  0  0.126261  0  3.957778  0  0  0.056668  0.111835  0  3.929882  0
C  C84  1  0.46186096  0.56357783  0.13560179  1  0  0.125348  0  3.765312  0  0  0.118752  0  4.002835  0  0  0.122988  0  4.025322  0  0  0.114645  0.115149  0  3.988625  0
C  C85  1  0.96186100  0.43642251  0.36439865  1  0  0.12544  0  3.765365  0  0  0.118796  0  4.002899  0  0  0.123034  0  4.025385  0  0  0.114649  0.115194  0  3.988688  0
C  C86  1  0.53813945  0.43642361  0.86439880  1  0  0.125416  0  3.765355  0  0  0.118788  0  4.002868  0  0  0.123024  0  4.025355  0  0  0.114632  0.115185  0  3.988659  0
C  C87  1  0.03813844  0.56357799  0.63560193  1  0  0.125344  0  3.765306  0  0  0.118772  0  4.002819  0  0  0.123008  0  4.025307  0  0  0.114658  0.115168  0  3.988607  0
C  C88  1  0.59561803  0.52990068  0.12659000  1  0  0.129994  0  3.752878  0  0  0.122497  0  3.989855  0  0  0.127142  0  4.011986  0  0  0.116747  0.11945  0  3.975315  0
C  C89  1  0.09561703  0.47009856  0.37341260  1  0  0.130019  0  3.752732  0  0  0.122569  0  3.98969  0  0  0.127215  0  4.011819  0  0  0.116802  0.119521  0  3.975153  0
C  C90  1  0.40438333  0.47009793  0.87341203  1  0  0.130074  0  3.752743  0  0  0.122605  0  3.989714  0  0  0.12725  0  4.011845  0  0  0.116829  0.119558  0  3.975173  0
C  C91  1  0.90438241  0.52990100  0.62658944  1  0  0.130003  0  3.752794  0  0  0.122464  0  3.989838  0  0  0.127109  0  4.011966  0  0  0.116761  0.119416  0  3.975295  0
C  C92  1  0.38204018  0.04371381  0.22497278  1  0  0.24441  0  3.703733  0  0  0.184527  0  3.986462  0  0  0.198893  0  3.998469  0  0  0.13309  0.175076  0  3.977441  0
C  C93  1  0.88204139  0.95628463  0.27502689  1  0  0.244392  0  3.703694  0  0  0.184528  0  3.986422  0  0  0.198896  0  3.998425  0  0  0.133104  0.175075  0  3.977401  0
C  C94  1  0.61795927  0.95628482  0.77502630  1  0  0.244512  0  3.703622  0  0  0.184652  0  3.986352  0  0  0.199021  0  3.998355  0  0  0.133158  0.1752  0  3.977331  0
C  C95  1  0.11795902  0.04371400  0.72497293  1  0  0.244398  0  3.703688  0  0  0.18452  0  3.986398  0  0  0.19888  0  3.998408  0  0  0.133099  0.175077  0  3.977371  0
C  C96  1  0.51319349  0.83034817  0.40147821  1  0  0.626821  0  3.938772  0  0  0.575043  0  4.246476  0  0  0.609302  0  4.237197  0  0  0.200969  0.551712  0  4.252235  0
C  C97  1  0.01319232  0.16965479  0.09852295  1  0  0.626744  0  3.938847  0  0  0.574964  0  4.246564  0  0  0.609223  0  4.237285  0  0  0.200949  0.551632  0  4.25232  0
C  C98  1  0.48680787  0.16965420  0.59852313  1  0  0.626712  0  3.938836  0  0  0.574934  0  4.24654  0  0  0.609193  0  4.237261  0  0  0.200933  0.551603  0  4.252298  0
C  C99  1  0.98680617  0.83034758  0.90147765  1  0  0.626787  0  3.938799  0  0  0.574995  0  4.246522  0  0  0.609253  0  4.23724  0  0  0.200946  0.551664  0  4.252279  0
C  C100  1  0.44047165  0.92802639  0.34823678  1  0  -0.017293  0  3.78791  0  0  -0.026314  0  4.044551  0  0  -0.02758  0  4.065778  0  0  0.062538  -0.025517  0  4.030155  0
C  C101  1  0.94047246  0.07197301  0.15176291  1  0  -0.017281  0  3.787837  0  0  -0.026283  0  4.044476  0  0  -0.027549  0  4.065704  0  0  0.062566  -0.025486  0  4.030078  0
C  C102  1  0.55952780  0.07197318  0.65176379  1  0  -0.017269  0  3.787874  0  0  -0.026274  0  4.044494  0  0  -0.027539  0  4.065721  0  0  0.062563  -0.025479  0  4.030098  0
C  C103  1  0.05952794  0.92802655  0.84823692  1  0  -0.017325  0  3.787891  0  0  -0.02631  0  4.044521  0  0  -0.027574  0  4.065746  0  0  0.062527  -0.025514  0  4.030126  0
C  C104  1  0.33627599  0.00285947  0.37719999  1  0  -0.041252  0  3.828815  0  0  -0.04459  0  4.080491  0  0  -0.0481  0  4.102924  0  0  0.058152  -0.04219  0  4.065134  0
C  C105  1  0.83627431  0.99713894  0.12280042  1  0  -0.041162  0  3.828771  0  0  -0.044527  0  4.080479  0  0  -0.048042  0  4.102912  0  0  0.058179  -0.042126  0  4.065119  0
C  C106  1  0.66372538  0.99713915  0.62280057  1  0  -0.041231  0  3.828815  0  0  -0.044554  0  4.080483  0  0  -0.048069  0  4.102916  0  0  0.058201  -0.042153  0  4.065125  0
C  C107  1  0.16372418  0.00285875  0.87719940  1  0  -0.041117  0  3.828674  0  0  -0.044505  0  4.080409  0  0  -0.048017  0  4.10284  0  0  0.05823  -0.042106  0  4.065054  0
C  C108  1  0.26321486  0.01093331  0.46944492  1  0  0.636764  0  3.881859  0  0  0.584554  0  4.183267  0  0  0.61947  0  4.173398  0  0  0.216803  0.560763  0  4.189287  0
C  C109  1  0.76321604  0.98906601  0.03055622  1  0  0.636697  0  3.881894  0  0  0.584484  0  4.183323  0  0  0.619407  0  4.173447  0  0  0.216768  0.56069  0  4.18934  0
C  C110  1  0.73678458  0.98906625  0.53055565  1  0  0.636733  0  3.881949  0  0  0.584488  0  4.183403  0  0  0.619412  0  4.173525  0  0  0.216754  0.560696  0  4.189421  0
C  C111  1  0.23678532  0.01093355  0.96944435  1  0  0.636651  0  3.881925  0  0  0.584429  0  4.183387  0  0  0.619352  0  4.173512  0  0  0.216708  0.560637  0  4.189406  0
N  N112  1  0.68591204  0.62087913  0.13424898  1  0  -0.345125  0  3.25233  0  0  -0.271884  0  3.51577  0  0  -0.291146  0  3.534313  0  0  -0.321723  -0.258777  0  3.502823  0
N  N113  1  0.18591100  0.37912109  0.36575143  1  0  -0.345193  0  3.252285  0  0  -0.272007  0  3.51577  0  0  -0.291267  0  3.534306  0  0  -0.321768  -0.258901  0  3.502828  0
N  N114  1  0.31409028  0.37912043  0.86575086  1  0  -0.34524  0  3.252373  0  0  -0.272057  0  3.515884  0  0  -0.291317  0  3.53442  0  0  -0.321806  -0.258952  0  3.502943  0
N  N115  1  0.81408845  0.62087941  0.63424841  1  0  -0.345111  0  3.252289  0  0  -0.271866  0  3.515746  0  0  -0.291127  0  3.534288  0  0  -0.32172  -0.25876  0  3.502799  0
N  N116  1  0.43063560  0.68547273  0.15051997  1  0  -0.354669  0  3.249053  0  0  -0.285743  0  3.513304  0  0  -0.305075  0  3.533019  0  0  -0.322098  -0.271683  0  3.499236  0
N  N117  1  0.93063655  0.31452854  0.34948048  1  0  -0.354844  0  3.249021  0  0  -0.285908  0  3.513316  0  0  -0.30524  0  3.533027  0  0  -0.322173  -0.271849  0  3.499251  0
N  N118  1  0.56936385  0.31452870  0.84948136  1  0  -0.35478  0  3.248933  0  0  -0.285855  0  3.513207  0  0  -0.305185  0  3.532917  0  0  -0.322151  -0.271797  0  3.499142  0
N  N119  1  0.06936481  0.68547196  0.65052010  1  0  -0.354681  0  3.24912  0  0  -0.285756  0  3.513357  0  0  -0.305087  0  3.533071  0  0  -0.322099  -0.271696  0  3.499288  0
N  N120  1  0.46741877  0.95563333  0.25180210  1  0  -0.413493  0  3.228963  0  0  -0.338357  0  3.507812  0  0  -0.359267  0  3.52397  0  0  -0.365013  -0.323683  0  3.495848  0
N  N121  1  0.96741958  0.04436514  0.24819833  1  0  -0.413479  0  3.228939  0  0  -0.338339  0  3.507768  0  0  -0.359251  0  3.523925  0  0  -0.364995  -0.323665  0  3.495803  0
N  N122  1  0.53258068  0.04436530  0.74819846  1  0  -0.413531  0  3.228978  0  0  -0.338403  0  3.507825  0  0  -0.359314  0  3.523979  0  0  -0.365039  -0.323729  0  3.495861  0
N  N123  1  0.03258082  0.95563349  0.75180224  1  0  -0.413509  0  3.229001  0  0  -0.33838  0  3.507844  0  0  -0.35929  0  3.524002  0  0  -0.365017  -0.323705  0  3.495878  0
N  N124  1  0.30140297  0.07533264  0.29847209  1  0  -0.410979  0  3.231142  0  0  -0.336862  0  3.511594  0  0  -0.357677  0  3.528714  0  0  -0.365467  -0.321771  0  3.498773  0
N  N125  1  0.80140415  0.92466577  0.20152757  1  0  -0.411009  0  3.231152  0  0  -0.336885  0  3.5116  0  0  -0.357697  0  3.528717  0  0  -0.365489  -0.321794  0  3.498779  0
N  N126  1  0.69859552  0.92466505  0.70152772  1  0  -0.410997  0  3.231211  0  0  -0.336883  0  3.511649  0  0  -0.357696  0  3.528765  0  0  -0.365474  -0.321793  0  3.498828  0
N  N127  1  0.19859721  0.07533286  0.79847225  1  0  -0.410996  0  3.231096  0  0  -0.336867  0  3.511555  0  0  -0.357678  0  3.528674  0  0  -0.365474  -0.321775  0  3.498733  0
O  O128  1  0.59654774  0.76667518  0.35514966  1  0  -0.60925  0  1.964439  0  0  -0.549779  0  2.210293  0  0  -0.574114  0  2.198016  0  0  -0.32212  -0.532751  0  2.218251  0
O  O129  1  0.09654756  0.23332501  0.14485074  1  0  -0.609246  0  1.964465  0  0  -0.549773  0  2.210324  0  0  -0.574106  0  2.198046  0  0  -0.32212  -0.532748  0  2.218294  0
O  O130  1  0.40345266  0.23332532  0.64485018  1  0  -0.609233  0  1.964458  0  0  -0.549768  0  2.210315  0  0  -0.574105  0  2.198039  0  0  -0.322121  -0.532734  0  2.218263  0
O  O131  1  0.90345284  0.76667455  0.85514983  1  0  -0.609249  0  1.964448  0  0  -0.549786  0  2.210335  0  0  -0.574123  0  2.198057  0  0  -0.322129  -0.532754  0  2.218279  0
O  O132  1  0.48561767  0.81252154  0.49304531  1  0  -0.602116  0  1.99211  0  0  -0.554207  0  2.220737  0  0  -0.578493  0  2.211462  0  0  -0.326465  -0.537333  0  2.227082  0
O  O133  1  0.98561467  0.18748348  0.00695666  1  0  -0.602066  0  1.992111  0  0  -0.55414  0  2.220705  0  0  -0.578428  0  2.21143  0  0  -0.326461  -0.537279  0  2.227078  0
O  O134  1  0.51438561  0.18748270  0.50695605  1  0  -0.602004  0  1.992127  0  0  -0.554092  0  2.220741  0  0  -0.578379  0  2.211467  0  0  -0.326446  -0.537232  0  2.227113  0
O  O135  1  0.01438285  0.81252170  0.99304471  1  0  -0.602038  0  1.992152  0  0  -0.554151  0  2.220751  0  0  -0.57844  0  2.211475  0  0  -0.326441  -0.53728  0  2.227096  0
O  O136  1  0.30339376  0.94397227  0.54395996  1  0  -0.552468  0  2.09014  0  0  -0.500855  0  2.315267  0  0  -0.524663  0  2.303753  0  0  -0.320248  -0.484197  0  2.322435  0
O  O137  1  0.80339365  0.05602757  0.95604078  1  0  -0.552476  0  2.090199  0  0  -0.500869  0  2.31532  0  0  -0.524678  0  2.303802  0  0  -0.32027  -0.484208  0  2.322489  0
O  O138  1  0.69660569  0.05602730  0.45604061  1  0  -0.552465  0  2.090292  0  0  -0.500858  0  2.315436  0  0  -0.524665  0  2.303918  0  0  -0.32026  -0.484191  0  2.322593  0
O  O139  1  0.19660675  0.94397294  0.04395907  1  0  -0.552443  0  2.090299  0  0  -0.500851  0  2.31538  0  0  -0.524659  0  2.303864  0  0  -0.320209  -0.484187  0  2.322543  0
O  O140  1  0.16482918  0.07843836  0.47600094  1  0  -0.577576  0  1.937316  0  0  -0.516462  0  2.171565  0  0  -0.539861  0  2.158625  0  0  -0.305411  -0.500307  0  2.180142  0
O  O141  1  0.66482842  0.92155999  0.02399945  1  0  -0.577528  0  1.937287  0  0  -0.516407  0  2.171529  0  0  -0.539807  0  2.158586  0  0  -0.305376  -0.500266  0  2.180138  0
O  O142  1  0.83517122  0.92156027  0.52399962  1  0  -0.577507  0  1.937334  0  0  -0.51638  0  2.171596  0  0  -0.539782  0  2.158652  0  0  -0.30536  -0.500233  0  2.180189  0
O  O143  1  0.33517103  0.07843958  0.97600039  1  0  -0.577498  0  1.937358  0  0  -0.516371  0  2.171601  0  0  -0.539774  0  2.15866  0  0  -0.305366  -0.500224  0  2.180195  0
