# generated using pymatgen
data_CuH11C14SI(NO)2
_symmetry_space_group_name_H-M   'P 1'
_cell_length_a   8.72366519
_cell_length_b   9.01964130
_cell_length_c   10.28586615
_cell_angle_alpha   64.82609493
_cell_angle_beta   87.42269432
_cell_angle_gamma   85.66841207
_symmetry_Int_Tables_number   1
_chemical_formula_structural   CuH11C14SI(NO)2
_chemical_formula_sum   'Cu2 H22 C28 S2 I2 N4 O4'
_cell_volume   730.30030805
_cell_formula_units_Z   2
loop_
 _symmetry_equiv_pos_site_id
 _symmetry_equiv_pos_as_xyz
  1  'x, y, z'
loop_
 _atom_site_type_symbol
 _atom_site_label
 _atom_site_symmetry_multiplicity
 _atom_site_fract_x
 _atom_site_fract_y
 _atom_site_fract_z
 _atom_site_occupancy
 _atom_site_hle17_bader_spin_density
 _atom_site_hle17_ddec_charge
 _atom_site_hle17_ddec_spin_density
 _atom_site_hle17_ddec_sum_bond_order
 _atom_site_hle17_magmom
 _atom_site_hse06_10hf_bader_spin_density
 _atom_site_hse06_10hf_ddec_charge
 _atom_site_hse06_10hf_ddec_spin_density
 _atom_site_hse06_10hf_ddec_sum_bond_order
 _atom_site_hse06_10hf_magmom
 _atom_site_hse06_bader_spin_density
 _atom_site_hse06_ddec_charge
 _atom_site_hse06_ddec_spin_density
 _atom_site_hse06_ddec_sum_bond_order
 _atom_site_hse06_magmom
 _atom_site_pbe_bader_spin_density
 _atom_site_pbe_cm5_charge
 _atom_site_pbe_ddec_charge
 _atom_site_pbe_ddec_spin_density
 _atom_site_pbe_ddec_sum_bond_order
 _atom_site_pbe_magmom
Cu  Cu0  1  0.38848581  0.90756373  0.99311386  1  0  0.217578  0  2.277851  0  0  0.148555  0  2.737909  0  0  0.150649  0  2.695851  0  0  0.30867  0.151604  0  2.762676  0
Cu  Cu1  1  0.61152162  0.09243011  0.00688998  1  0  0.2176  0  2.277855  0  0  0.148557  0  2.737895  0  0  0.150588  0  2.695837  0  0  0.308661  0.151607  0  2.762659  0
H  H2  1  0.05116840  0.17628613  0.94631534  1  0  0.097532  0  0.939393  0  0  0.116075  0  0.99679  0  0  0.116387  0  0.99843  0  0  0.096225  0.115922  0  0.995662  0
H  H3  1  0.94883498  0.82371625  0.05368546  1  0  0.097531  0  0.939314  0  0  0.11608  0  0.996743  0  0  0.116393  0  0.998384  0  0  0.096235  0.115923  0  0.995613  0
H  H4  1  0.92346300  0.10873858  0.85402048  1  0  0.097652  0  0.981387  0  0  0.103643  0  1.059072  0  0  0.106289  0  1.056587  0  0  0.084867  0.101814  0  1.060852  0
H  H5  1  0.07653881  0.89126866  0.14598344  1  0  0.097615  0  0.981419  0  0  0.103624  0  1.059103  0  0  0.106264  0  1.056631  0  0  0.084861  0.101795  0  1.060881  0
H  H6  1  0.22862999  0.42326560  0.97921621  1  0  0.090378  0  0.992722  0  0  0.0983  0  1.061505  0  0  0.101204  0  1.060581  0  0  0.091411  0.096218  0  1.062013  0
H  H7  1  0.77137441  0.57674054  0.02077443  1  0  0.090438  0  0.992665  0  0  0.098315  0  1.06149  0  0  0.101219  0  1.06057  0  0  0.091406  0.096231  0  1.061995  0
H  H8  1  0.04195384  0.44458223  0.80101856  1  0  0.092981  0  0.956364  0  0  0.100906  0  1.021245  0  0  0.103643  0  1.019813  0  0  0.098618  0.098768  0  1.022564  0
H  H9  1  0.95804490  0.55542259  0.19897369  1  0  0.092875  0  0.956421  0  0  0.100821  0  1.021291  0  0  0.103575  0  1.019839  0  0  0.098594  0.098671  0  1.022624  0
H  H10  1  0.91872616  0.71387762  0.64023691  1  0  0.102018  0  0.943673  0  0  0.112877  0  1.002227  0  0  0.115442  0  1.001139  0  0  0.103541  0.110931  0  1.003552  0
H  H11  1  0.08126391  0.28613439  0.35975973  1  0  0.102018  0  0.943668  0  0  0.112899  0  1.002204  0  0  0.115465  0  1.001113  0  0  0.10355  0.110954  0  1.003532  0
H  H12  1  0.98793118  0.96726275  0.66005021  1  0  0.111926  0  0.958005  0  0  0.12335  0  1.015791  0  0  0.125834  0  1.014482  0  0  0.103005  0.121454  0  1.017003  0
H  H13  1  0.01206502  0.03274192  0.33995771  1  0  0.111995  0  0.957968  0  0  0.123401  0  1.015762  0  0  0.125884  0  1.014454  0  0  0.103041  0.121506  0  1.016974  0
H  H14  1  0.32536914  0.42371001  0.13257131  1  0  0.05787  0  0.982682  0  0  0.068177  0  1.051993  0  0  0.071158  0  1.048117  0  0  0.104086  0.066176  0  1.054407  0
H  H15  1  0.67463175  0.57629479  0.86742964  1  0  0.057888  0  0.982623  0  0  0.0682  0  1.051956  0  0  0.071188  0  1.048063  0  0  0.104122  0.066198  0  1.054367  0
H  H16  1  0.46333917  0.24233204  0.31372982  1  0  0.094991  0  0.979545  0  0  0.103108  0  1.044791  0  0  0.107051  0  1.043035  0  0  0.090149  0.099539  0  1.04738  0
H  H17  1  0.53666990  0.75767168  0.68626741  1  0  0.094965  0  0.979558  0  0  0.10307  0  1.044804  0  0  0.107014  0  1.043046  0  0  0.090154  0.099503  0  1.047385  0
H  H18  1  0.66232376  0.16490619  0.50303210  1  0  0.116369  0  0.950919  0  0  0.12277  0  1.013706  0  0  0.127249  0  1.010409  0  0  0.104883  0.118789  0  1.017335  0
H  H19  1  0.33767840  0.83508144  0.49697319  1  0  0.116361  0  0.951077  0  0  0.122747  0  1.013863  0  0  0.127234  0  1.010558  0  0  0.104886  0.118765  0  1.017494  0
H  H20  1  0.71734648  0.67650321  0.38711017  1  0  0.112177  0  0.963762  0  0  0.112182  0  1.037374  0  0  0.11632  0  1.034705  0  0  0.105494  0.1091  0  1.039695  0
H  H21  1  0.28265170  0.32349299  0.61288721  1  0  0.112167  0  0.963706  0  0  0.112182  0  1.037304  0  0  0.116321  0  1.034636  0  0  0.10548  0.109096  0  1.039632  0
H  H22  1  0.52504166  0.75570335  0.19476479  1  0  0.071471  0  1.054738  0  0  0.071556  0  1.141984  0  0  0.079633  0  1.132204  0  0  0.069155  0.065274  0  1.149095  0
H  H23  1  0.47496112  0.24429293  0.80523147  1  0  0.071461  0  1.054697  0  0  0.071524  0  1.141974  0  0  0.079609  0  1.132183  0  0  0.069135  0.065241  0  1.149091  0
C  C24  1  0.01902833  0.07037395  0.92941948  1  0  -0.137994  0  3.645694  0  0  -0.172946  0  3.904885  0  0  -0.173702  0  3.916872  0  0  -0.157841  -0.172426  0  3.896449  0
C  C25  1  0.98098076  0.92962979  0.07057581  1  0  -0.137894  0  3.645501  0  0  -0.172985  0  3.904851  0  0  -0.173737  0  3.916825  0  0  -0.157909  -0.172483  0  3.896476  0
C  C26  1  0.14297643  0.83767689  0.83442053  1  0  -0.029653  0  3.704537  0  0  -0.008541  0  3.952384  0  0  -0.011022  0  3.976593  0  0  -0.012928  -0.008105  0  3.937126  0
C  C27  1  0.85701989  0.16232657  0.16558589  1  0  -0.029682  0  3.704511  0  0  -0.008624  0  3.952403  0  0  -0.011108  0  3.976613  0  0  -0.012984  -0.008188  0  3.937148  0
C  C28  1  0.21288309  0.68424055  0.92922244  1  0  0.161905  0  3.741904  0  0  0.159931  0  3.984958  0  0  0.162471  0  4.010443  0  0  0.083255  0.158426  0  3.968623  0
C  C29  1  0.78711013  0.31575921  0.07078057  1  0  0.161777  0  3.741801  0  0  0.159863  0  3.984801  0  0  0.162405  0  4.010285  0  0  0.083219  0.158353  0  3.968467  0
C  C30  1  0.17520150  0.54399359  0.91295420  1  0  -0.140103  0  3.734524  0  0  -0.155828  0  3.977593  0  0  -0.161806  0  4.003403  0  0  -0.091286  -0.151708  0  3.959993  0
C  C31  1  0.82478915  0.45601108  0.08704221  1  0  -0.140028  0  3.734371  0  0  -0.155724  0  3.977391  0  0  -0.161705  0  4.003211  0  0  -0.091223  -0.1516  0  3.959788  0
C  C32  1  0.06955194  0.55463408  0.81162493  1  0  -0.048148  0  3.763862  0  0  -0.062899  0  4.018368  0  0  -0.064529  0  4.041991  0  0  -0.088784  -0.061224  0  4.002248  0
C  C33  1  0.93045019  0.44537203  0.18836383  1  0  -0.048057  0  3.763975  0  0  -0.062822  0  4.0185  0  0  -0.064464  0  4.042119  0  0  -0.088765  -0.061135  0  4.002358  0
C  C34  1  0.99956044  0.70598866  0.72090738  1  0  -0.05405  0  3.744391  0  0  -0.075062  0  4.00648  0  0  -0.078604  0  4.029457  0  0  -0.09043  -0.073846  0  3.991541  0
C  C35  1  0.00043332  0.29401972  0.27909147  1  0  -0.054015  0  3.74472  0  0  -0.075055  0  4.006806  0  0  -0.0786  0  4.02979  0  0  -0.09045  -0.073839  0  3.991871  0
C  C36  1  0.03845017  0.84723965  0.73148398  1  0  -0.090506  0  3.74831  0  0  -0.111181  0  3.994789  0  0  -0.112517  0  4.017201  0  0  -0.091464  -0.110069  0  3.980136  0
C  C37  1  0.96155057  0.15276634  0.26852042  1  0  -0.090624  0  3.748446  0  0  -0.111275  0  3.994952  0  0  -0.112611  0  4.017367  0  0  -0.09147  -0.110164  0  3.980307  0
C  C38  1  0.36771391  0.53615067  0.13053493  1  0  0.145086  0  3.601662  0  0  0.105448  0  3.857027  0  0  0.119718  0  3.863616  0  0  0.073157  0.096887  0  3.852938  0
C  C39  1  0.63229102  0.46384685  0.86946373  1  0  0.145121  0  3.601796  0  0  0.105462  0  3.857156  0  0  0.119735  0  3.86375  0  0  0.073153  0.096899  0  3.853061  0
C  C40  1  0.47972708  0.50424331  0.24102919  1  0  0.056657  0  3.761544  0  0  0.071129  0  4.001076  0  0  0.069794  0  4.022046  0  0  -0.004409  0.070496  0  3.987597  0
C  C41  1  0.52027641  0.49575786  0.75897010  1  0  0.056629  0  3.761602  0  0  0.071107  0  4.001122  0  0  0.069771  0  4.022094  0  0  -0.004382  0.070479  0  3.987641  0
C  C42  1  0.51897628  0.33727871  0.33028002  1  0  -0.074744  0  3.679527  0  0  -0.092125  0  3.923268  0  0  -0.094639  0  3.941651  0  0  -0.075456  -0.090579  0  3.912188  0
C  C43  1  0.48102322  0.66271252  0.66973082  1  0  -0.074609  0  3.679602  0  0  -0.091944  0  3.923261  0  0  -0.094464  0  3.941656  0  0  -0.075336  -0.090398  0  3.912178  0
C  C44  1  0.62959207  0.29280467  0.43497739  1  0  -0.087658  0  3.722587  0  0  -0.111911  0  3.976103  0  0  -0.110949  0  3.992985  0  0  -0.076838  -0.11215  0  3.96474  0
C  C45  1  0.37041885  0.70719051  0.56501710  1  0  -0.087802  0  3.722663  0  0  -0.111986  0  3.976212  0  0  -0.111029  0  3.99309  0  0  -0.076975  -0.112223  0  3.964859  0
C  C46  1  0.69842926  0.41731335  0.45355758  1  0  0.085149  0  3.71591  0  0  0.071547  0  3.960936  0  0  0.068872  0  3.984053  0  0  0.083952  0.073901  0  3.944226  0
C  C47  1  0.30156940  0.58267546  0.54644542  1  0  0.085159  0  3.715872  0  0  0.071424  0  3.961173  0  0  0.068752  0  3.984291  0  0  0.083848  0.073779  0  3.944464  0
C  C48  1  0.65990825  0.58334850  0.37010630  1  0  -0.092779  0  3.720216  0  0  -0.113846  0  3.97427  0  0  -0.115234  0  3.994612  0  0  -0.077706  -0.113444  0  3.960693  0
C  C49  1  0.34008711  0.41665376  0.62989476  1  0  -0.092826  0  3.720418  0  0  -0.113803  0  3.974438  0  0  -0.115193  0  3.994782  0  0  -0.077666  -0.113402  0  3.960871  0
C  C50  1  0.55246128  0.62594060  0.26280210  1  0  -0.069328  0  3.682849  0  0  -0.089074  0  3.930232  0  0  -0.091514  0  3.947751  0  0  -0.084527  -0.086634  0  3.918648  0
C  C51  1  0.44753216  0.37405672  0.73719888  1  0  -0.069303  0  3.682781  0  0  -0.089059  0  3.930192  0  0  -0.091499  0  3.947705  0  0  -0.084517  -0.086621  0  3.918607  0
S  S52  1  0.18853525  0.02398544  0.83850930  1  0  0.043825  0  2.757518  0  0  0.05439  0  3.153611  0  0  0.054661  0  3.144805  0  0  -0.018803  0.055231  0  3.159135  0
S  S53  1  0.81146919  0.97601819  0.16149101  1  0  0.043855  0  2.75743  0  0  0.054476  0  3.153559  0  0  0.054766  0  3.144727  0  0  -0.018765  0.055318  0  3.159084  0
I  I54  1  0.36079056  0.06169449  0.16128535  1  0  -0.394103  0  1.490037  0  0  -0.352761  0  1.881834  0  0  -0.376783  0  1.854693  0  0  -0.177264  -0.33304  0  1.898989  0
I  I55  1  0.63921073  0.93830541  0.83871447  1  0  -0.39409  0  1.490068  0  0  -0.352755  0  1.881884  0  0  -0.376781  0  1.854742  0  0  -0.177259  -0.333037  0  1.899037  0
N  N56  1  0.31857472  0.67911606  0.03344962  1  0  -0.282796  0  3.262098  0  0  -0.221631  0  3.551545  0  0  -0.232539  0  3.55847  0  0  -0.34124  -0.216147  0  3.547221  0
N  N57  1  0.68142764  0.32088636  0.96654244  1  0  -0.282849  0  3.262115  0  0  -0.221681  0  3.551542  0  0  -0.232585  0  3.558449  0  0  -0.341278  -0.216186  0  3.547212  0
N  N58  1  0.81717674  0.37239402  0.56112356  1  0  0.466215  0  3.936932  0  0  0.526155  0  4.190457  0  0  0.548599  0  4.195283  0  0  0.05056  0.510661  0  4.187724  0
N  N59  1  0.18281934  0.62759842  0.43888012  1  0  0.466464  0  3.936962  0  0  0.526166  0  4.190875  0  0  0.548611  0  4.1957  0  0  0.050568  0.510674  0  4.18814  0
O  O60  1  0.87859173  0.23078164  0.60683824  1  0  -0.356337  0  1.825863  0  0  -0.347744  0  2.036956  0  0  -0.356053  0  2.031207  0  0  -0.127275  -0.343675  0  2.041694  0
O  O61  1  0.12140690  0.76920843  0.39316041  1  0  -0.356496  0  1.826077  0  0  -0.347775  0  2.037226  0  0  -0.356087  0  2.031476  0  0  -0.127287  -0.343708  0  2.041963  0
O  O62  1  0.85105183  0.47709128  0.60237285  1  0  -0.363601  0  1.77644  0  0  -0.354531  0  1.976177  0  0  -0.365044  0  1.971929  0  0  -0.134751  -0.348121  0  1.979786  0
O  O63  1  0.14893865  0.52289860  0.39763484  1  0  -0.363626  0  1.776485  0  0  -0.354452  0  1.97634  0  0  -0.364967  0  1.972087  0  0  -0.134668  -0.348025  0  1.979917  0
