# generated using pymatgen
data_NiH26C34(NO5)2
_symmetry_space_group_name_H-M   'P 1'
_cell_length_a   9.16694752
_cell_length_b   9.54812182
_cell_length_c   10.02040996
_cell_angle_alpha   70.98071133
_cell_angle_beta   66.18210928
_cell_angle_gamma   89.42776622
_symmetry_Int_Tables_number   1
_chemical_formula_structural   NiH26C34(NO5)2
_chemical_formula_sum   'Ni1 H26 C34 N2 O10'
_cell_volume   751.02343104
_cell_formula_units_Z   1
loop_
 _symmetry_equiv_pos_site_id
 _symmetry_equiv_pos_as_xyz
  1  'x, y, z'
loop_
 _atom_site_type_symbol
 _atom_site_label
 _atom_site_symmetry_multiplicity
 _atom_site_fract_x
 _atom_site_fract_y
 _atom_site_fract_z
 _atom_site_occupancy
 _atom_site_pbe_cm5_charge
 _atom_site_pbe_ddec_charge
 _atom_site_pbe_ddec_spin_density
 _atom_site_pbe_ddec_sum_bond_order
 _atom_site_pbe_magmom
Ni  Ni0  1  0.49999824  0.50000256  0.50000031  1  0.619334  0.712725  0.014826  2.465667  0.013
H  H1  1  0.33444167  0.61996046  0.12316321  1  0.343509  0.384748  2.1e-05  0.852936  0.0
H  H2  1  0.66554916  0.38003143  0.87685182  1  0.34352  0.384748  2.1e-05  0.852976  0.0
H  H3  1  0.24440166  0.96338337  0.23101169  1  0.100962  0.103203  9e-06  1.04166  0.0
H  H4  1  0.75559659  0.03661832  0.76898637  1  0.10095  0.103179  9e-06  1.041697  0.0
H  H5  1  0.28195806  0.66019846  0.58927768  1  0.274598  0.345808  0.000184  1.021068  0.0
H  H6  1  0.71804534  0.33981224  0.41072151  1  0.274609  0.345814  0.000184  1.021016  0.0
H  H7  1  0.27863328  0.57306617  0.75621095  1  0.288516  0.388357  -3.4e-05  0.942544  0.0
H  H8  1  0.72136660  0.42693781  0.24378975  1  0.288548  0.388428  -3.4e-05  0.94245  0.0
H  H9  1  0.05119058  0.65600505  0.83563951  1  0.102993  0.102702  -0.000347  1.043342  0.0
H  H10  1  0.94880704  0.34398545  0.16436341  1  0.103004  0.10272  -0.000347  1.043377  0.0
H  H11  1  0.80162989  0.76091996  0.83873712  1  0.096644  0.096776  1.2e-05  1.029384  0.0
H  H12  1  0.19837664  0.23908157  0.16125486  1  0.096603  0.096701  1.2e-05  1.029345  0.0
H  H13  1  0.77138786  0.91694164  0.20503425  1  0.099521  0.095388  7e-06  1.018448  0.0
H  H14  1  0.22861180  0.08305437  0.79496212  1  0.099546  0.09546  7e-06  1.018429  0.0
H  H15  1  0.01662235  0.80828021  0.20648148  1  0.101205  0.099427  8e-06  1.024771  0.0
H  H16  1  0.98337288  0.19171032  0.79352233  1  0.101197  0.099458  8e-06  1.024729  0.0
H  H17  1  0.20891409  0.52976043  0.45280772  1  0.120113  0.090158  -0.000713  1.024096  -0.001
H  H18  1  0.79107867  0.47024365  0.54719665  1  0.120126  0.090185  -0.000713  1.024118  -0.001
H  H19  1  0.00099140  0.36681954  0.44912734  1  0.110837  0.124147  -0.000248  1.008905  0.0
H  H20  1  0.99900579  0.63318323  0.55086778  1  0.110834  0.124108  -0.000248  1.00894  0.0
H  H21  1  0.30376207  0.01770842  0.47355473  1  0.108224  0.128638  -0.000287  1.035386  0.0
H  H22  1  0.69623977  0.98230006  0.52644577  1  0.108204  0.12864  -0.000287  1.035331  0.0
H  H23  1  0.49856528  0.19574836  0.47303224  1  0.119397  0.089671  -0.000694  1.043626  -0.001
H  H24  1  0.50143638  0.80425900  0.52696869  1  0.119386  0.089655  -0.000694  1.043642  -0.001
H  H25  1  0.89884970  0.12724168  0.47140174  1  0.106283  0.11606  4.3e-05  1.043504  0.0
H  H26  1  0.10115565  0.87275987  0.52859068  1  0.106265  0.11602  4.3e-05  1.04353  0.0
C  C27  1  0.43802837  0.78306889  0.30506850  1  0.207517  0.556061  0.001847  4.209462  0.0
C  C28  1  0.56198016  0.21693717  0.69492525  1  0.207425  0.55586  0.001848  4.209598  0.0
C  C29  1  0.62630581  0.91718379  0.01570916  1  -0.000339  0.049531  0.000873  3.954074  0.001
C  C30  1  0.37369199  0.08281557  0.98428484  1  -0.000358  0.049503  0.000872  3.95411  0.001
C  C31  1  0.47925384  0.89894808  0.14678677  1  -0.013826  -0.068292  0.005075  3.940509  0.004
C  C32  1  0.52074959  0.10104902  0.85320881  1  -0.013822  -0.068282  0.005076  3.940473  0.004
C  C33  1  0.35798839  0.98258429  0.12865070  1  -0.08234  -0.136826  0.00137  3.952501  0.001
C  C34  1  0.64201560  0.01741617  0.87134359  1  -0.082323  -0.13677  0.00137  3.952661  0.001
C  C35  1  0.19988440  0.66238227  0.01676036  1  0.235943  0.579588  1e-06  4.104505  0.0
C  C36  1  0.80010417  0.33760387  0.98324840  1  0.235862  0.579355  1e-06  4.104929  0.0
C  C37  1  0.05063033  0.72487158  0.02117620  1  -0.022611  -0.060402  4.9e-05  3.996722  0.0
C  C38  1  0.94936614  0.27511898  0.97882914  1  -0.022617  -0.060311  4.9e-05  3.996724  0.0
C  C39  1  0.98970000  0.71341487  0.91653806  1  -0.082471  -0.080797  -0.000331  3.954596  0.0
C  C40  1  0.01029782  0.28657677  0.08346542  1  -0.082455  -0.080825  -0.000331  3.954709  0.0
C  C41  1  0.85007011  0.77256955  0.91812931  1  -0.086946  -0.120959  7e-06  3.949092  0.0
C  C42  1  0.14993016  0.22742987  0.08186872  1  -0.086892  -0.120806  7e-06  3.949023  0.0
C  C43  1  0.76821883  0.84509066  0.02289790  1  0.006284  0.098542  0.000271  3.961243  0.0
C  C44  1  0.23177904  0.15490878  0.97710004  1  0.006247  0.098489  0.000271  3.961439  0.0
C  C45  1  0.83073572  0.85713676  0.12616599  1  -0.084084  -0.11007  0.000122  3.947759  0.0
C  C46  1  0.16926838  0.14285701  0.87383241  1  -0.08409  -0.110182  0.000122  3.947797  0.0
C  C47  1  0.96920827  0.79717225  0.12640944  1  -0.075356  -0.062539  -6.2e-05  3.942468  0.0
C  C48  1  0.03079174  0.20281824  0.87359357  1  -0.075397  -0.062608  -6.2e-05  3.942391  0.0
C  C49  1  0.22402262  0.41529565  0.45861368  1  0.048487  0.098277  -0.000465  3.936904  0.0
C  C50  1  0.77597251  0.58470841  0.54138979  1  0.048441  0.098162  -0.000465  3.937103  0.0
C  C51  1  0.10832740  0.32329976  0.45804349  1  -0.08017  -0.176709  -0.002079  3.914241  -0.002
C  C52  1  0.89167226  0.67670306  0.54195567  1  -0.080163  -0.176625  -0.002079  3.914299  -0.002
C  C53  1  0.12859557  0.17378467  0.47154881  1  0.006446  0.143785  0.000699  4.029811  0.001
C  C54  1  0.87140387  0.82621700  0.52844881  1  0.006424  0.1438  0.000699  4.029747  0.001
C  C55  1  0.27501901  0.12904072  0.47275292  1  -0.08115  -0.169293  -0.002127  3.899767  -0.002
C  C56  1  0.72497983  0.87096436  0.52724582  1  -0.081137  -0.16936  -0.002128  3.899714  -0.002
C  C57  1  0.38557760  0.22852389  0.47040928  1  0.042912  0.082559  -0.00093  3.942353  0.0
C  C58  1  0.61441891  0.77148126  0.52959332  1  0.042864  0.082533  -0.000929  3.942414  0.0
C  C59  1  0.00094181  0.07461869  0.48407334  1  -0.081216  -0.127253  0.000168  3.955353  0.0
C  C60  1  0.99906256  0.92538402  0.51592107  1  -0.081091  -0.127077  0.000168  3.955271  0.0
N  N61  1  0.35967617  0.36864222  0.46868493  1  -0.32846  -0.19606  -0.032125  3.583845  -0.03
N  N62  1  0.64032208  0.63136628  0.53131592  1  -0.328404  -0.195982  -0.032125  3.583885  -0.03
O  O63  1  0.50658846  0.66539461  0.30828445  1  -0.295365  -0.512354  0.046302  2.376019  0.05
O  O64  1  0.49341075  0.33460589  0.69171064  1  -0.295291  -0.512215  0.046297  2.376101  0.05
O  O65  1  0.33498177  0.80704120  0.42310042  1  -0.312437  -0.554906  0.000608  2.254649  0.001
O  O66  1  0.66504074  0.19296933  0.57689556  1  -0.312395  -0.554855  0.000608  2.254743  0.001
O  O67  1  0.23119375  0.65815983  0.13935533  1  -0.327224  -0.480975  -3.7e-05  2.29337  0.0
O  O68  1  0.76879322  0.34183087  0.86065555  1  -0.327154  -0.480865  -3.7e-05  2.293639  0.0
O  O69  1  0.29174937  0.61703470  0.91508696  1  -0.289028  -0.506365  1.3e-05  2.158383  0.0
O  O70  1  0.70824185  0.38294488  0.08493389  1  -0.288992  -0.506275  1.3e-05  2.158572  0.0
O  O71  1  0.26254595  0.55869010  0.66969818  1  -0.587071  -0.766036  -0.024623  2.082632  -0.025
O  O72  1  0.73745822  0.44131829  0.33029847  1  -0.58711  -0.766095  -0.024621  2.082568  -0.025
