# generated using pymatgen
data_ZnH18C17N2(ClO2)2
_symmetry_space_group_name_H-M   'P 1'
_cell_length_a   10.35600480
_cell_length_b   14.57525602
_cell_length_c   14.81715713
_cell_angle_alpha   113.94934731
_cell_angle_beta   90.00009532
_cell_angle_gamma   89.99990528
_symmetry_Int_Tables_number   1
_chemical_formula_structural   ZnH18C17N2(ClO2)2
_chemical_formula_sum   'Zn4 H72 C68 N8 Cl8 O16'
_cell_volume   2043.96861113
_cell_formula_units_Z   4
loop_
 _symmetry_equiv_pos_site_id
 _symmetry_equiv_pos_as_xyz
  1  'x, y, z'
loop_
 _atom_site_type_symbol
 _atom_site_label
 _atom_site_symmetry_multiplicity
 _atom_site_fract_x
 _atom_site_fract_y
 _atom_site_fract_z
 _atom_site_occupancy
 _atom_site_pbe_bader_charge
 _atom_site_pbe_bader_spin_density
 _atom_site_pbe_cm5_charge
 _atom_site_pbe_ddec_charge
 _atom_site_pbe_ddec_spin_density
 _atom_site_pbe_ddec_sum_bond_order
 _atom_site_pbe_magmom
Zn  Zn0  1  0.88171278  0.49329337  0.63181165  1  1.12824  0  0.553681  0.621587  0  2.687357  0
Zn  Zn1  1  0.38171289  0.00670843  0.86818870  1  1.128238  0  0.553674  0.621551  0  2.687444  0
Zn  Zn2  1  0.11828773  0.50670843  0.36818888  1  1.128235  0  0.553681  0.621549  0  2.687432  0
Zn  Zn3  1  0.61828665  0.99329186  0.13181124  1  1.128233  0  0.553687  0.621563  0  2.687428  0
H  H4  1  0.30660450  0.08759395  0.71875999  1  0.154002  0  0.114293  0.097524  0  1.03286  0
H  H5  1  0.80660203  0.41240564  0.78123738  1  0.153998  0  0.114294  0.097508  0  1.032882  0
H  H6  1  0.69339504  0.91240634  0.28123995  1  0.153989  0  0.11428  0.0975  0  1.03288  0
H  H7  1  0.19339654  0.58759466  0.21876256  1  0.153972  0  0.114285  0.097505  0  1.032872  0
H  H8  1  0.81133111  0.57690320  0.48464587  1  0.149098  0  0.108666  0.086293  0  1.032971  0
H  H9  1  0.31133039  0.92309691  0.01535306  1  0.149122  0  0.108672  0.08628  0  1.032997  0
H  H10  1  0.18866746  0.42309708  0.51535339  1  0.149538  0  0.108671  0.086286  0  1.032974  0
H  H11  1  0.68866819  0.07690413  0.98464717  1  0.149508  0  0.108662  0.086278  0  1.032972  0
H  H12  1  0.10075175  0.85090109  0.48581881  1  0.108079  0  0.10695  0.110964  0  1.011131  0
H  H13  1  0.60075313  0.64909771  0.01418071  1  0.108105  0  0.106922  0.110924  0  1.011132  0
H  H14  1  0.89924876  0.14909770  0.51417986  1  0.108091  0  0.106941  0.110946  0  1.011166  0
H  H15  1  0.39924641  0.35090184  0.98582029  1  0.108133  0  0.106925  0.110936  0  1.011121  0
H  H16  1  0.52621175  0.20403350  0.32039010  1  0.066971  0  0.093146  0.014752  0  1.063648  0
H  H17  1  0.02621074  0.29596813  0.17961047  1  0.066967  0  0.093137  0.014727  0  1.06372  0
H  H18  1  0.47378972  0.79596531  0.67961061  1  0.06697  0  0.093148  0.014762  0  1.063666  0
H  H19  1  0.97378976  0.70403216  0.82038947  1  0.066967  0  0.093141  0.01476  0  1.063669  0
H  H20  1  0.09306250  0.06078946  0.52560086  1  0.045176  0  0.102896  0.010807  0  0.989571  0
H  H21  1  0.59306139  0.43920881  0.97439710  1  0.045168  0  0.102901  0.010841  0  0.989581  0
H  H22  1  0.90693608  0.93921008  0.47439879  1  0.045206  0  0.102908  0.010836  0  0.989579  0
H  H23  1  0.40693816  0.56078998  0.02560225  1  0.045165  0  0.102906  0.010812  0  0.989568  0
H  H24  1  0.50856282  0.38628438  0.30377682  1  0.069791  0  0.106786  0.10484  0  1.017111  0
H  H25  1  0.00856518  0.11371727  0.19622510  1  0.069767  0  0.106772  0.104817  0  1.017134  0
H  H26  1  0.49143576  0.61371369  0.69622495  1  0.069735  0  0.106832  0.104854  0  1.017047  0
H  H27  1  0.99143437  0.88628303  0.80377552  1  0.069774  0  0.106782  0.104832  0  1.017133  0
H  H28  1  0.21848765  0.82664778  0.75443076  1  0.096596  0  0.116067  0.091367  0  1.014611  0
H  H29  1  0.71848952  0.67335515  0.74557115  1  0.096643  0  0.116056  0.091374  0  1.014534  0
H  H30  1  0.78151189  0.17335176  0.24556889  1  0.096593  0  0.116066  0.091382  0  1.01462  0
H  H31  1  0.28150906  0.32664515  0.25442947  1  0.096633  0  0.11604  0.091354  0  1.014563  0
H  H32  1  0.68059282  0.33888295  0.54572219  1  0.117934  0  0.12202  0.100268  0  0.998566  0
H  H33  1  0.18059182  0.16111827  0.95427769  1  0.117921  0  0.122005  0.100245  0  0.998596  0
H  H34  1  0.31940962  0.66111736  0.45427911  1  0.117956  0  0.122011  0.100265  0  0.998592  0
H  H35  1  0.81940676  0.83888202  0.04572157  1  0.117928  0  0.122012  0.100262  0  0.998571  0
H  H36  1  0.48228105  0.08966310  0.48684066  1  0.093402  0  0.112216  0.098907  0  0.966416  0
H  H37  1  0.98228085  0.41033664  0.01315836  1  0.093455  0  0.112229  0.098932  0  0.966418  0
H  H38  1  0.51771849  0.91033494  0.51315840  1  0.093485  0  0.112223  0.098917  0  0.966439  0
H  H39  1  0.01772063  0.58966290  0.98684061  1  0.093397  0  0.112231  0.09892  0  0.966424  0
H  H40  1  0.49441881  0.06855351  0.35929080  1  0.0743  0  0.093944  0.057796  0  1.020772  0
H  H41  1  0.99441693  0.43144772  0.14070881  1  0.074303  0  0.09394  0.057796  0  1.020797  0
H  H42  1  0.50558073  0.93144677  0.64070846  1  0.074306  0  0.093936  0.057804  0  1.020812  0
H  H43  1  0.00558455  0.56855258  0.85929112  1  0.074308  0  0.093945  0.057815  0  1.020806  0
H  H44  1  0.14118416  0.04926953  0.36513309  1  0.026561  0  0.092551  0.05608  0  0.994846  0
H  H45  1  0.64118126  0.45072899  0.13486505  1  0.026501  0  0.092595  0.056102  0  0.994842  0
H  H46  1  0.85881635  0.95073151  0.63486714  1  0.026559  0  0.092561  0.056065  0  0.994861  0
H  H47  1  0.35882022  0.54927130  0.86513421  1  0.026497  0  0.092583  0.056095  0  0.994825  0
H  H48  1  0.28922754  0.98743490  0.30964671  1  0.095185  0  0.108238  0.089192  0  0.979743  0
H  H49  1  0.78922386  0.51256449  0.19035259  1  0.095232  0  0.108219  0.089172  0  0.979727  0
H  H50  1  0.71077297  0.01256539  0.69035323  1  0.095188  0  0.108237  0.089182  0  0.979729  0
H  H51  1  0.21077665  0.48743654  0.80964697  1  0.095236  0  0.108218  0.089164  0  0.979763  0
H  H52  1  0.10455268  0.75325950  0.59062918  1  0.123296  0  0.093866  0.118783  0  1.054073  0
H  H53  1  0.60455283  0.74674054  0.90937281  1  0.12328  0  0.093867  0.118794  0  1.054056  0
H  H54  1  0.89544783  0.24673928  0.40936949  1  0.123313  0  0.093889  0.118804  0  1.054075  0
H  H55  1  0.39544574  0.25325976  0.09062781  1  0.123293  0  0.093875  0.11881  0  1.054056  0
H  H56  1  0.31600040  0.14921902  0.28587098  1  0.088225  0  0.089944  0.060643  0  1.02531  0
H  H57  1  0.81599888  0.35078160  0.21412820  1  0.088252  0  0.089945  0.060648  0  1.02536  0
H  H58  1  0.68400107  0.85078128  0.71412964  1  0.088507  0  0.089948  0.060641  0  1.025309  0
H  H59  1  0.18400259  0.64921944  0.78587203  1  0.087844  0  0.089958  0.06065  0  1.025344  0
H  H60  1  0.19130561  0.22265696  0.36775077  1  0.061507  0  0.096665  0.080801  0  1.008961  0
H  H61  1  0.69130407  0.27734301  0.13224800  1  0.061496  0  0.096684  0.080846  0  1.00891  0
H  H62  1  0.80869587  0.77734408  0.63224946  1  0.061498  0  0.096669  0.080816  0  1.008926  0
H  H63  1  0.30869644  0.72265878  0.86775252  1  0.061478  0  0.09669  0.08085  0  1.008859  0
H  H64  1  0.65439403  0.53635047  0.34490095  1  0.06359  0  0.112386  0.117033  0  0.990114  0
H  H65  1  0.15439450  0.96364903  0.15509823  1  0.063597  0  0.112366  0.11701  0  0.990139  0
H  H66  1  0.34560358  0.46364758  0.65509879  1  0.063571  0  0.112372  0.117  0  0.990067  0
H  H67  1  0.84560408  0.03635050  0.84490006  1  0.063582  0  0.112372  0.11702  0  0.990091  0
H  H68  1  0.31492298  0.26070376  0.57391629  1  0.080807  0  0.110435  0.09735  0  0.962268  0
H  H69  1  0.81492318  0.23929583  0.92608244  1  0.080786  0  0.110477  0.097407  0  0.962221  0
H  H70  1  0.68507657  0.73929654  0.42608432  1  0.080804  0  0.110455  0.097366  0  0.962276  0
H  H71  1  0.18507636  0.76070371  0.07391789  1  0.080785  0  0.110446  0.09736  0  0.962269  0
H  H72  1  0.15720288  0.21662291  0.52808460  1  0.073642  0  0.088098  0.067465  0  1.026304  0
H  H73  1  0.65720310  0.28337605  0.97191303  1  0.073616  0  0.088122  0.0675  0  1.026298  0
H  H74  1  0.84279666  0.78337663  0.47191505  1  0.073638  0  0.088103  0.067477  0  1.026276  0
H  H75  1  0.34279838  0.71662425  0.02808759  1  0.073611  0  0.088105  0.067497  0  1.02629  0
C  C76  1  0.31331808  0.13724879  0.42739218  1  0.01577  0  -0.040578  0.007879  0  3.866359  0
C  C77  1  0.81331717  0.36275034  0.07260641  1  0.015832  0  -0.040595  0.007792  0  3.866382  0
C  C78  1  0.68668146  0.86275151  0.57260776  1  0.015983  0  -0.040603  0.007916  0  3.866301  0
C  C79  1  0.18668334  0.63724995  0.92739285  1  0.01594  0  -0.040575  0.007725  0  3.866524  0
C  C80  1  0.25931605  0.01448960  0.68798554  1  0.476911  0  0.049964  0.055813  0  3.884664  0
C  C81  1  0.75931541  0.48550928  0.81201217  1  0.47691  0  0.049948  0.05575  0  3.884658  0
C  C82  1  0.74068446  0.98551069  0.31201440  1  0.476905  0  0.049966  0.055813  0  3.884697  0
C  C83  1  0.24068317  0.51449027  0.18798816  1  0.476919  0  0.049949  0.055717  0  3.884767  0
C  C84  1  0.19857420  0.97919085  0.59617889  1  0.011373  0  -0.002305  -0.002202  0  3.924663  0
C  C85  1  0.69857294  0.52080908  0.90381980  1  0.011382  0  -0.002294  -0.002055  0  3.924601  0
C  C86  1  0.80142534  0.02080869  0.40382076  1  0.011247  0  -0.002301  -0.002194  0  3.924668  0
C  C87  1  0.30142660  0.47919122  0.09618014  1  0.011438  0  -0.00231  -0.002057  0  3.924608  0
C  C88  1  0.74380995  0.51455337  0.46551048  1  0.503529  0  0.053055  0.107021  0  3.936327  0
C  C89  1  0.24380912  0.98544530  0.03448849  1  0.503285  0  0.05303  0.107043  0  3.936192  0
C  C90  1  0.25618959  0.48544617  0.53448917  1  0.503064  0  0.05304  0.107019  0  3.936245  0
C  C91  1  0.75619042  0.01455424  0.96551116  1  0.502891  0  0.053024  0.107035  0  3.936246  0
C  C92  1  0.14385046  0.88332565  0.55931631  1  -0.100354  0  -0.058464  -0.058539  0  3.919168  0
C  C93  1  0.64385100  0.61667282  0.94068242  1  -0.100341  0  -0.058457  -0.058591  0  3.919185  0
C  C94  1  0.85615101  0.11667463  0.44068295  1  -0.100226  0  -0.058427  -0.058493  0  3.919176  0
C  C95  1  0.35614758  0.38332599  0.05931897  1  -0.100383  0  -0.058397  -0.05856  0  3.919203  0
C  C96  1  0.58355621  0.35154909  0.42218593  1  0.021673  0  -0.004433  -0.002659  0  3.936975  0
C  C97  1  0.08355627  0.14845249  0.07781537  1  0.022093  0  -0.004402  -0.00258  0  3.936897  0
C  C98  1  0.41644623  0.64844973  0.57781613  1  0.021679  0  -0.004446  -0.002543  0  3.93676  0
C  C99  1  0.91644424  0.85154780  0.92218525  1  0.021956  0  -0.004421  -0.002624  0  3.936921  0
C  C100  1  0.50279252  0.25880200  0.39626898  1  0.963712  0  0.080464  0.258154  0  3.979384  0
C  C101  1  0.00279242  0.24119891  0.10373196  1  0.963694  0  0.080469  0.258162  0  3.979428  0
C  C102  1  0.49720896  0.74119830  0.60373163  1  0.96372  0  0.080416  0.258042  0  3.979406  0
C  C103  1  0.99720712  0.75880064  0.89626837  1  0.963848  0  0.08044  0.258128  0  3.979362  0
C  C104  1  0.19456693  0.04156683  0.53637611  1  0.969853  0  0.09102  0.275868  0  3.989941  0
C  C105  1  0.69456478  0.45843136  0.96362194  1  0.969833  0  0.091009  0.275722  0  3.990076  0
C  C106  1  0.80543358  0.95843271  0.46362354  1  0.969806  0  0.091  0.275804  0  3.990024  0
C  C107  1  0.30543380  0.54156743  0.03637742  1  0.969844  0  0.091019  0.275797  0  3.989977  0
C  C108  1  0.57633321  0.40802178  0.36524512  1  -0.073362  0  -0.059246  -0.05001  0  3.904312  0
C  C109  1  0.07633354  0.09197756  0.13475530  1  -0.077036  0  -0.059234  -0.049958  0  3.904294  0
C  C110  1  0.42366633  0.59197703  0.63475559  1  -0.076615  0  -0.059244  -0.049985  0  3.904292  0
C  C111  1  0.92366600  0.90802198  0.86524435  1  -0.077007  0  -0.059218  -0.049949  0  3.904168  0
C  C112  1  0.21057427  0.86775569  0.70738308  1  0.443344  0  0.044577  0.084886  0  3.925644  0
C  C113  1  0.71057538  0.63224574  0.79261756  1  0.443571  0  0.044594  0.084894  0  3.925581  0
C  C114  1  0.78942624  0.13224460  0.29261686  1  0.44334  0  0.044535  0.084785  0  3.925723  0
C  C115  1  0.28942417  0.36775382  0.20738344  1  0.443273  0  0.044565  0.084858  0  3.92557  0
C  C116  1  0.67123100  0.38103648  0.49987078  1  0.488604  0  0.049018  0.05169  0  3.900467  0
C  C117  1  0.17123095  0.11896428  0.00012963  1  0.488629  0  0.049002  0.051631  0  3.900409  0
C  C118  1  0.32876951  0.61896306  0.50012887  1  0.488638  0  0.048992  0.051615  0  3.900323  0
C  C119  1  0.82876859  0.88103526  0.99987002  1  0.488615  0  0.049016  0.051662  0  3.900398  0
C  C120  1  0.45916006  0.12068522  0.43264797  1  0.358876  0  -0.070805  -0.017264  0  3.850309  0
C  C121  1  0.95915910  0.37931605  0.06735229  1  0.358813  0  -0.070808  -0.017257  0  3.850418  0
C  C122  1  0.54083948  0.87931433  0.56735235  1  0.358803  0  -0.070794  -0.017307  0  3.850414  0
C  C123  1  0.04084045  0.62068424  0.93264764  1  0.358874  0  -0.070793  -0.017209  0  3.850431  0
C  C124  1  0.24323417  0.03631058  0.37953936  1  0.38871  0  -0.067342  -0.017824  0  3.883713  0
C  C125  1  0.74323023  0.46368860  0.12045849  1  0.38867  0  -0.067385  -0.017885  0  3.88379  0
C  C126  1  0.75676634  0.96368971  0.62045990  1  0.388536  0  -0.067354  -0.017823  0  3.883706  0
C  C127  1  0.25676835  0.53631169  0.87954145  1  0.388552  0  -0.067409  -0.017878  0  3.883834  0
C  C128  1  0.14794581  0.82760833  0.61656668  1  0.041555  0  -0.085061  -0.125991  0  3.97095  0
C  C129  1  0.64794607  0.67239390  0.88343419  1  0.041531  0  -0.085078  -0.126  0  3.970918  0
C  C130  1  0.85205470  0.17239121  0.38343296  1  0.041544  0  -0.085091  -0.126009  0  3.971053  0
C  C131  1  0.35205347  0.32760715  0.11656672  1  0.04152  0  -0.085116  -0.126039  0  3.971  0
C  C132  1  0.29163873  0.19659916  0.36370444  1  0.364756  0  -0.075923  -0.030773  0  3.867416  0
C  C133  1  0.79163810  0.30340073  0.13629442  1  0.364764  0  -0.075975  -0.03086  0  3.867598  0
C  C134  1  0.70836275  0.80340112  0.63629482  1  0.364045  0  -0.075973  -0.030829  0  3.867441  0
C  C135  1  0.20836241  0.69660032  0.86370649  1  0.364768  0  -0.075976  -0.030824  0  3.867499  0
C  C136  1  0.65698393  0.49066629  0.38756941  1  0.016988  0  -0.079803  -0.123646  0  3.973469  0
C  C137  1  0.15698247  0.00933297  0.11242904  1  0.020288  0  -0.079783  -0.123672  0  3.973464  0
C  C138  1  0.34301657  0.50933250  0.61242994  1  0.020277  0  -0.079781  -0.123628  0  3.973377  0
C  C139  1  0.84301610  0.99066808  0.88757119  1  0.020282  0  -0.079767  -0.123652  0  3.973364  0
C  C140  1  0.25805648  0.19350249  0.53148139  1  0.375909  0  -0.072791  -0.021397  0  3.856034  0
C  C141  1  0.75805567  0.30649639  0.96851700  1  0.375922  0  -0.072841  -0.021458  0  3.856032  0
C  C142  1  0.74194403  0.80649706  0.46851894  1  0.375905  0  -0.07281  -0.021426  0  3.856003  0
C  C143  1  0.24194388  0.69350315  0.03148332  1  0.375939  0  -0.0728  -0.021382  0  3.856154  0
N  N144  1  0.74964148  0.46076398  0.52067362  1  -1.260469  0  -0.334451  -0.212053  0  3.617491  0
N  N145  1  0.24964082  0.03923642  0.97932535  1  -1.260253  0  -0.334425  -0.212001  0  3.617318  0
N  N146  1  0.25035903  0.53923632  0.47932632  1  -1.260474  0  -0.334436  -0.212029  0  3.617436  0
N  N147  1  0.75035776  0.96076387  0.02067459  1  -1.260254  0  -0.334434  -0.212049  0  3.617396  0
N  N148  1  0.26661318  0.95910107  0.74175936  1  -1.259078  0  -0.333088  -0.219716  0  3.587328  0
N  N149  1  0.76661250  0.54090106  0.75824094  1  -1.259373  0  -0.33307  -0.21969  0  3.587345  0
N  N150  1  0.73338636  0.04089847  0.25824029  1  -1.259076  0  -0.333056  -0.219631  0  3.5873  0
N  N151  1  0.23338608  0.45910073  0.24175959  1  -1.259104  0  -0.333018  -0.219587  0  3.587306  0
Cl  Cl152  1  0.98584544  0.62996479  0.63691208  1  -0.664565  0  -0.289038  -0.474549  0  1.312274  0
Cl  Cl153  1  0.48584566  0.87003642  0.86308879  1  -0.664558  0  -0.28903  -0.474533  0  1.312269  0
Cl  Cl154  1  0.01415507  0.37003701  0.36308912  1  -0.664549  0  -0.289036  -0.474535  0  1.312298  0
Cl  Cl155  1  0.51415388  0.12996389  0.13691251  1  -0.664549  0  -0.289038  -0.474539  0  1.312281  0
Cl  Cl156  1  0.98535618  0.35960370  0.63173190  1  -0.664973  0  -0.330507  -0.497091  0  1.158646  0
Cl  Cl157  1  0.48535792  0.14039650  0.86826727  1  -0.665002  0  -0.330507  -0.497093  0  1.158664  0
Cl  Cl158  1  0.01464240  0.64039660  0.36826872  1  -0.66498  0  -0.330501  -0.497091  0  1.15867  0
Cl  Cl159  1  0.51464163  0.85960302  0.13173102  1  -0.664993  0  -0.330509  -0.497099  0  1.158658  0
O  O160  1  0.37012356  0.28582038  0.39707988  1  -1.021569  0  -0.222765  -0.273077  0  2.444509  0
O  O161  1  0.87012307  0.21418021  0.10292070  1  -1.021558  0  -0.222747  -0.27305  0  2.444545  0
O  O162  1  0.62987888  0.71417917  0.60292044  1  -1.021197  0  -0.222737  -0.273059  0  2.444529  0
O  O163  1  0.12987648  0.78582084  0.89708022  1  -1.021154  0  -0.222772  -0.273082  0  2.444471  0
O  O164  1  0.24748284  0.98222417  0.44175431  1  -1.017346  0  -0.22434  -0.265858  0  2.40287  0
O  O165  1  0.74747884  0.51777524  0.05824359  1  -1.017305  0  -0.224281  -0.265705  0  2.402948  0
O  O166  1  0.75251671  0.01777537  0.55824466  1  -1.01735  0  -0.224319  -0.265813  0  2.402916  0
O  O167  1  0.25252071  0.48222428  0.94175470  1  -1.017319  0  -0.22431  -0.265762  0  2.4029  0
O  O168  1  0.26350273  0.13134412  0.58600816  1  -1.046922  0  -0.217697  -0.261237  0  2.454047  0
O  O169  1  0.76350261  0.36865627  0.91399150  1  -1.04695  0  -0.217703  -0.261202  0  2.454087  0
O  O170  1  0.73649681  0.86865617  0.41399178  1  -1.046895  0  -0.217705  -0.261238  0  2.45403  0
O  O171  1  0.23649693  0.63134402  0.08600844  1  -1.046954  0  -0.217697  -0.26122  0  2.45415  0
O  O172  1  0.52731465  0.21446878  0.46352574  1  -1.049316  0  -0.222311  -0.269874  0  2.455922  0
O  O173  1  0.02731430  0.28553210  0.03647455  1  -1.049291  0  -0.222307  -0.269872  0  2.455954  0
O  O174  1  0.47268586  0.78553078  0.53647527  1  -1.049299  0  -0.222278  -0.269836  0  2.455945  0
O  O175  1  0.97268621  0.71446744  0.96352510  1  -1.0493  0  -0.222305  -0.269886  0  2.455919  0
