# generated using pymatgen
data_CdH4C6(SN2)2
_symmetry_space_group_name_H-M   'P 1'
_cell_length_a   7.29136233
_cell_length_b   7.29323701
_cell_length_c   10.24250440
_cell_angle_alpha   98.80284636
_cell_angle_beta   103.85863687
_cell_angle_gamma   116.64839585
_symmetry_Int_Tables_number   1
_chemical_formula_structural   CdH4C6(SN2)2
_chemical_formula_sum   'Cd2 H8 C12 S4 N8'
_cell_volume   450.84924089
_cell_formula_units_Z   2
loop_
 _symmetry_equiv_pos_site_id
 _symmetry_equiv_pos_as_xyz
  1  'x, y, z'
loop_
 _atom_site_type_symbol
 _atom_site_label
 _atom_site_symmetry_multiplicity
 _atom_site_fract_x
 _atom_site_fract_y
 _atom_site_fract_z
 _atom_site_occupancy
 _atom_site_hle17_bader_spin_density
 _atom_site_hle17_ddec_charge
 _atom_site_hle17_ddec_spin_density
 _atom_site_hle17_ddec_sum_bond_order
 _atom_site_hle17_magmom
 _atom_site_hse06_10hf_bader_spin_density
 _atom_site_hse06_10hf_ddec_charge
 _atom_site_hse06_10hf_ddec_spin_density
 _atom_site_hse06_10hf_ddec_sum_bond_order
 _atom_site_hse06_10hf_magmom
 _atom_site_hse06_bader_spin_density
 _atom_site_hse06_ddec_charge
 _atom_site_hse06_ddec_spin_density
 _atom_site_hse06_ddec_sum_bond_order
 _atom_site_hse06_magmom
 _atom_site_pbe_bader_spin_density
 _atom_site_pbe_cm5_charge
 _atom_site_pbe_ddec_charge
 _atom_site_pbe_ddec_spin_density
 _atom_site_pbe_ddec_sum_bond_order
 _atom_site_pbe_magmom
Cd  Cd0  1  0.65887501  0.90874260  0.75001380  1  0  0.937642  0  1.99066  0  0  0.764894  0  2.44762  0  0  0.809472  0  2.412621  0  0  0.717093  0.733995  0  2.470966  0
Cd  Cd1  1  0.34112734  0.09126143  0.24999164  1  0  0.93769  0  1.990573  0  0  0.764951  0  2.447523  0  0  0.809537  0  2.412523  0  0  0.717097  0.734053  0  2.470865  0
H  H2  1  0.44165052  0.68226434  0.96852308  1  0  0.095334  0  0.968531  0  0  0.100139  0  1.03783  0  0  0.102701  0  1.036389  0  0  0.110682  0.097946  0  1.039428  0
H  H3  1  0.78604956  0.52674107  0.46848932  1  0  0.096735  0  0.967085  0  0  0.10193  0  1.03601  0  0  0.104597  0  1.034412  0  0  0.111921  0.100076  0  1.037081  0
H  H4  1  0.55835464  0.31773964  0.03147697  1  0  0.095319  0  0.968606  0  0  0.100135  0  1.037878  0  0  0.102705  0  1.036416  0  0  0.110683  0.097942  0  1.039477  0
H  H5  1  0.21394943  0.47325649  0.53150704  1  0  0.096703  0  0.967044  0  0  0.101901  0  1.035973  0  0  0.104568  0  1.03437  0  0  0.111907  0.100045  0  1.037049  0
H  H6  1  0.11090283  0.35525086  0.96959188  1  0  0.08703  0  0.970411  0  0  0.092821  0  1.038372  0  0  0.09445  0  1.038509  0  0  0.112867  0.091382  0  1.038972  0
H  H7  1  0.11413200  0.85867300  0.46963811  1  0  0.086118  0  0.96933  0  0  0.091686  0  1.037889  0  0  0.093315  0  1.038063  0  0  0.112618  0.090173  0  1.038503  0
H  H8  1  0.88910347  0.64474989  0.03040704  1  0  0.087051  0  0.970425  0  0  0.092854  0  1.038376  0  0  0.094481  0  1.038517  0  0  0.112866  0.091414  0  1.038977  0
H  H9  1  0.88587009  0.14132778  0.53036205  1  0  0.086138  0  0.969312  0  0  0.09171  0  1.037863  0  0  0.093339  0  1.038036  0  0  0.112635  0.090194  0  1.038474  0
C  C10  1  0.90856622  0.12987963  0.09853671  1  0  0.295932  0  4.013878  0  0  0.276742  0  4.315534  0  0  0.299353  0  4.329076  0  0  0.142514  0.261596  0  4.305287  0
C  C11  1  0.46858774  0.18979417  0.59852234  1  0  0.295791  0  4.01233  0  0  0.276645  0  4.313622  0  0  0.299106  0  4.327221  0  0  0.143031  0.261286  0  4.303978  0
C  C12  1  0.09141899  0.87011314  0.90145289  1  0  0.295872  0  4.014668  0  0  0.27668  0  4.316304  0  0  0.299288  0  4.329841  0  0  0.142417  0.261536  0  4.306064  0
C  C13  1  0.53141800  0.81020823  0.40148252  1  0  0.295801  0  4.012925  0  0  0.276651  0  4.314217  0  0  0.29911  0  4.327813  0  0  0.142983  0.261287  0  4.304579  0
C  C14  1  0.31590073  0.56055711  0.87083743  1  0  0.085267  0  3.665629  0  0  0.056593  0  3.917711  0  0  0.059048  0  3.935486  0  0  0.055911  0.054954  0  3.906332  0
C  C15  1  0.81019585  0.55486948  0.37081405  1  0  0.08296  0  3.661916  0  0  0.054227  0  3.914178  0  0  0.056622  0  3.931893  0  0  0.054795  0.052455  0  3.902532  0
C  C16  1  0.68409769  0.43944207  0.12915998  1  0  0.08521  0  3.665538  0  0  0.056558  0  3.917608  0  0  0.059017  0  3.935384  0  0  0.055883  0.054915  0  3.906231  0
C  C17  1  0.18980482  0.44513130  0.62918294  1  0  0.082994  0  3.661791  0  0  0.054261  0  3.91405  0  0  0.056658  0  3.931766  0  0  0.054778  0.052485  0  3.902401  0
C  C18  1  0.13290741  0.37943148  0.87081891  1  0  0.087017  0  3.66001  0  0  0.059721  0  3.911709  0  0  0.062053  0  3.930298  0  0  0.055222  0.057904  0  3.899582  0
C  C19  1  0.99130207  0.73786168  0.37082702  1  0  0.089202  0  3.657557  0  0  0.061355  0  3.910401  0  0  0.063708  0  3.928979  0  0  0.055108  0.059706  0  3.898247  0
C  C20  1  0.86709383  0.62056768  0.12917801  1  0  0.087071  0  3.659918  0  0  0.059732  0  3.911665  0  0  0.062062  0  3.930255  0  0  0.055234  0.057917  0  3.899542  0
C  C21  1  0.00869693  0.26213590  0.62917227  1  0  0.089177  0  3.657519  0  0  0.061333  0  3.910357  0  0  0.063687  0  3.928931  0  0  0.055101  0.059692  0  3.898193  0
S  S22  1  0.10791749  0.29743043  0.24440788  1  0  -0.316234  0  2.220553  0  0  -0.292161  0  2.56387  0  0  -0.31048  0  2.561767  0  0  -0.136704  -0.279227  0  2.565295  0
S  S23  1  0.44703119  0.13633077  0.74440776  1  0  -0.316188  0  2.220465  0  0  -0.291883  0  2.563422  0  0  -0.309861  0  2.561084  0  0  -0.136961  -0.27868  0  2.565142  0
S  S24  1  0.89211124  0.70259447  0.75561308  1  0  -0.316171  0  2.221043  0  0  -0.292096  0  2.564367  0  0  -0.31041  0  2.562268  0  0  -0.136651  -0.279157  0  2.565794  0
S  S25  1  0.55296028  0.86366048  0.25560324  1  0  -0.316175  0  2.220638  0  0  -0.291874  0  2.563595  0  0  -0.30985  0  2.561257  0  0  -0.13693  -0.278662  0  2.565312  0
N  N26  1  0.76246345  0.01027181  0.99184060  1  0  -0.533672  0  2.868454  0  0  -0.475359  0  3.140548  0  0  -0.496344  0  3.147116  0  0  -0.397386  -0.460523  0  3.135088  0
N  N27  1  0.48142750  0.22924699  0.49180560  1  0  -0.534023  0  2.867372  0  0  -0.475601  0  3.139203  0  0  -0.496561  0  3.145842  0  0  -0.397979  -0.460902  0  3.134456  0
N  N28  1  0.23751247  0.98971939  0.00814431  1  0  -0.533712  0  2.868653  0  0  -0.475381  0  3.140665  0  0  -0.496388  0  3.147278  0  0  -0.397368  -0.460542  0  3.135207  0
N  N29  1  0.51858693  0.77075852  0.50819034  1  0  -0.534043  0  2.867723  0  0  -0.475605  0  3.13952  0  0  -0.496565  0  3.146156  0  0  -0.397976  -0.460904  0  3.134776  0
N  N30  1  0.34321451  0.59323329  0.75001758  1  0  -0.264023  0  3.245273  0  0  -0.194648  0  3.50535  0  0  -0.209243  0  3.524856  0  0  -0.303428  -0.184966  0  3.492492  0
N  N31  1  0.65678617  0.40676749  0.24998137  1  0  -0.26399  0  3.245245  0  0  -0.194615  0  3.505304  0  0  -0.20921  0  3.52481  0  0  -0.303424  -0.18493  0  3.492439  0
N  N32  1  0.97969503  0.22964978  0.74998478  1  0  -0.274889  0  3.23986  0  0  -0.20713  0  3.50011  0  0  -0.221964  0  3.520937  0  0  -0.29926  -0.197211  0  3.48565  0
N  N33  1  0.02030481  0.77034940  0.25001483  1  0  -0.274936  0  3.239785  0  0  -0.207167  0  3.500053  0  0  -0.222002  0  3.520881  0  0  -0.29928  -0.197247  0  3.4856  0
