# generated using pymatgen
data_P2H34Au2C31Cl2
_symmetry_space_group_name_H-M   'P 1'
_cell_length_a   9.12599971
_cell_length_b   9.12593935
_cell_length_c   20.77791442
_cell_angle_alpha   95.57759302
_cell_angle_beta   95.57784758
_cell_angle_gamma   113.58857848
_symmetry_Int_Tables_number   1
_chemical_formula_structural   P2H34Au2C31Cl2
_chemical_formula_sum   'P4 H68 Au4 C62 Cl4'
_cell_volume   1560.68507545
_cell_formula_units_Z   2
loop_
 _symmetry_equiv_pos_site_id
 _symmetry_equiv_pos_as_xyz
  1  'x, y, z'
loop_
 _atom_site_type_symbol
 _atom_site_label
 _atom_site_symmetry_multiplicity
 _atom_site_fract_x
 _atom_site_fract_y
 _atom_site_fract_z
 _atom_site_occupancy
 _atom_site_hle17_bader_spin_density
 _atom_site_hle17_ddec_charge
 _atom_site_hle17_ddec_spin_density
 _atom_site_hle17_ddec_sum_bond_order
 _atom_site_hle17_magmom
 _atom_site_hse06_10hf_bader_spin_density
 _atom_site_hse06_10hf_ddec_charge
 _atom_site_hse06_10hf_ddec_spin_density
 _atom_site_hse06_10hf_ddec_sum_bond_order
 _atom_site_hse06_10hf_magmom
 _atom_site_hse06_bader_spin_density
 _atom_site_hse06_ddec_charge
 _atom_site_hse06_ddec_spin_density
 _atom_site_hse06_ddec_sum_bond_order
 _atom_site_hse06_magmom
 _atom_site_pbe_bader_spin_density
 _atom_site_pbe_cm5_charge
 _atom_site_pbe_ddec_charge
 _atom_site_pbe_ddec_spin_density
 _atom_site_pbe_ddec_sum_bond_order
 _atom_site_pbe_magmom
P  P0  1  0.93336294  0.36869999  0.82852434  1  0  0.46222  0  3.984004  0  0  0.415528  0  4.447442  0  0  0.425584  0  4.446006  0  0  -0.002456  0.408367  0  4.44836  0
P  P1  1  0.36870052  0.93336633  0.32852420  1  0  0.462131  0  3.983976  0  0  0.415471  0  4.447385  0  0  0.425525  0  4.445946  0  0  -0.00248  0.408305  0  4.4483  0
P  P2  1  0.57792762  0.49473936  0.00285784  1  0  0.467942  0  3.9876  0  0  0.420641  0  4.451996  0  0  0.430734  0  4.450926  0  0  -0.003773  0.413479  0  4.452651  0
P  P3  1  0.49474781  0.57792990  0.50285885  1  0  0.467893  0  3.98755  0  0  0.420626  0  4.451991  0  0  0.430719  0  4.450918  0  0  -0.003811  0.413458  0  4.452647  0
H  H4  1  0.78724852  0.42203826  0.70692897  1  0  0.075903  0  0.992356  0  0  0.083566  0  1.06729  0  0  0.086375  0  1.064909  0  0  0.091042  0.081543  0  1.069009  0
H  H5  1  0.42204086  0.78725237  0.20692772  1  0  0.075883  0  0.992392  0  0  0.083557  0  1.06731  0  0  0.086362  0  1.064935  0  0  0.091036  0.081533  0  1.069024  0
H  H6  1  0.88468473  0.47581785  0.59991677  1  0  0.084142  0  0.975573  0  0  0.094536  0  1.039546  0  0  0.096708  0  1.039426  0  0  0.097921  0.092988  0  1.039698  0
H  H7  1  0.47582070  0.88468591  0.09991440  1  0  0.08418  0  0.975462  0  0  0.094581  0  1.039425  0  0  0.096751  0  1.039309  0  0  0.09792  0.09304  0  1.039563  0
H  H8  1  0.15693545  0.49132062  0.58368200  1  0  0.070727  0  1.001693  0  0  0.073796  0  1.084147  0  0  0.077201  0  1.080777  0  0  0.08135  0.071306  0  1.086617  0
H  H9  1  0.49132581  0.15694201  0.08367982  1  0  0.070732  0  1.001655  0  0  0.073786  0  1.084121  0  0  0.077191  0  1.08075  0  0  0.081329  0.071296  0  1.086588  0
H  H10  1  0.32706980  0.44339298  0.67329285  1  0  0.089646  0  0.969917  0  0  0.100982  0  1.027866  0  0  0.102952  0  1.028704  0  0  0.09814  0.099556  0  1.0274  0
H  H11  1  0.44339239  0.32707594  0.17328921  1  0  0.089615  0  0.969888  0  0  0.100931  0  1.027868  0  0  0.102903  0  1.028702  0  0  0.098113  0.099503  0  1.027402  0
H  H12  1  0.23081108  0.38763483  0.77853061  1  0  0.091252  0  0.983268  0  0  0.098386  0  1.052908  0  0  0.10146  0  1.051005  0  0  0.093438  0.096111  0  1.054376  0
H  H13  1  0.38762945  0.23081364  0.27852521  1  0  0.091275  0  0.98331  0  0  0.098372  0  1.053021  0  0  0.101442  0  1.05112  0  0  0.093444  0.096148  0  1.054422  0
H  H14  1  0.15589501  0.69182297  0.80463897  1  0  0.091557  0  0.957609  0  0  0.105932  0  1.009888  0  0  0.108298  0  1.009742  0  0  0.101968  0.104226  0  1.010087  0
H  H15  1  0.69182657  0.15590863  0.30464255  1  0  0.091526  0  0.957823  0  0  0.105946  0  1.010041  0  0  0.10832  0  1.009886  0  0  0.102002  0.104241  0  1.010228  0
H  H16  1  0.32596563  0.94455422  0.87932335  1  0  0.088468  0  0.987263  0  0  0.09179  0  1.061557  0  0  0.094933  0  1.059706  0  0  0.086204  0.089464  0  1.063012  0
H  H17  1  0.94455370  0.32597526  0.37932812  1  0  0.088537  0  0.987224  0  0  0.091825  0  1.061548  0  0  0.094955  0  1.059709  0  0  0.086229  0.089513  0  1.062988  0
H  H18  1  0.33289589  0.95213218  0.99954696  1  0  0.077538  0  0.982294  0  0  0.086181  0  1.052222  0  0  0.088447  0  1.051056  0  0  0.090105  0.084559  0  1.053077  0
H  H19  1  0.95212947  0.33289960  0.49955139  1  0  0.077558  0  0.982202  0  0  0.086153  0  1.052184  0  0  0.088423  0  1.051009  0  0  0.090121  0.084535  0  1.053034  0
H  H20  1  0.16714899  0.70532261  0.04482048  1  0  0.080483  0  0.980474  0  0  0.090622  0  1.044768  0  0  0.092079  0  1.046276  0  0  0.09341  0.089565  0  1.043804  0
H  H21  1  0.70532065  0.16714417  0.54482144  1  0  0.080424  0  0.980498  0  0  0.090582  0  1.044793  0  0  0.092035  0  1.046301  0  0  0.093381  0.08953  0  1.043831  0
H  H22  1  0.99417088  0.45240797  0.97055577  1  0  0.078345  0  0.98634  0  0  0.084807  0  1.062334  0  0  0.087302  0  1.060917  0  0  0.087312  0.082959  0  1.063483  0
H  H23  1  0.45240858  0.99417439  0.47055711  1  0  0.07834  0  0.986328  0  0  0.084819  0  1.062296  0  0  0.087314  0  1.06088  0  0  0.087304  0.082975  0  1.063446  0
H  H24  1  0.98223105  0.21092215  0.90616504  1  0  0.110163  0  0.965864  0  0  0.124397  0  1.030861  0  0  0.12557  0  1.031903  0  0  0.094923  0.123492  0  1.030211  0
H  H25  1  0.21092103  0.98223374  0.40616312  1  0  0.110171  0  0.965733  0  0  0.124375  0  1.030763  0  0  0.125544  0  1.031805  0  0  0.094914  0.123469  0  1.030127  0
H  H26  1  0.11210728  0.23439025  0.84565151  1  0  0.113354  0  0.954802  0  0  0.130093  0  1.013674  0  0  0.131464  0  1.01414  0  0  0.093738  0.129027  0  1.013493  0
H  H27  1  0.23438514  0.11211294  0.34564911  1  0  0.113338  0  0.954807  0  0  0.130065  0  1.013706  0  0  0.131437  0  1.014168  0  0  0.093742  0.128996  0  1.01353  0
H  H28  1  0.84305729  0.05453281  0.76375340  1  0  0.04663  0  0.981273  0  0  0.064643  0  1.050324  0  0  0.064327  0  1.052232  0  0  0.079867  0.064812  0  1.049036  0
H  H29  1  0.05453356  0.84305577  0.26375088  1  0  0.04663  0  0.981227  0  0  0.064644  0  1.050293  0  0  0.064334  0  1.052188  0  0  0.079861  0.064813  0  1.048999  0
H  H30  1  0.74973745  0.01769660  0.83420882  1  0  0.058075  0  0.982986  0  0  0.073022  0  1.053558  0  0  0.074042  0  1.05281  0  0  0.075215  0.072178  0  1.054225  0
H  H31  1  0.01769872  0.74973909  0.33420801  1  0  0.058052  0  0.983033  0  0  0.073013  0  1.053597  0  0  0.074031  0  1.052851  0  0  0.075208  0.072168  0  1.054265  0
H  H32  1  0.95855948  0.90688763  0.87313059  1  0  0.064441  0  0.935089  0  0  0.08696  0  0.988674  0  0  0.087214  0  0.990201  0  0  0.085449  0.086711  0  0.987716  0
H  H33  1  0.90688720  0.95856495  0.37312721  1  0  0.064267  0  0.934969  0  0  0.086764  0  0.988649  0  0  0.087013  0  0.990177  0  0  0.085363  0.08651  0  0.987708  0
H  H34  1  0.02357187  0.92794279  0.79649326  1  0  0.062321  0  0.935896  0  0  0.080727  0  0.995815  0  0  0.08131  0  0.996586  0  0  0.081916  0.080251  0  0.99535  0
H  H35  1  0.92794109  0.02356730  0.29648759  1  0  0.062229  0  0.936033  0  0  0.080689  0  0.995896  0  0  0.081271  0  0.996666  0  0  0.081898  0.080216  0  0.995426  0
H  H36  1  0.73987520  0.74706536  0.74112371  1  0  0.057005  0  0.939181  0  0  0.078136  0  0.994937  0  0  0.078181  0  0.996837  0  0  0.082076  0.078061  0  0.993656  0
H  H37  1  0.74707248  0.73986667  0.24112061  1  0  0.057111  0  0.93924  0  0  0.078209  0  0.995009  0  0  0.078253  0  0.996911  0  0  0.082122  0.078136  0  0.993716  0
H  H38  1  0.82976387  0.65015801  0.79077922  1  0  0.042477  0  0.975638  0  0  0.057184  0  1.05116  0  0  0.057081  0  1.0524  0  0  0.072825  0.057163  0  1.050392  0
H  H39  1  0.65016149  0.82975884  0.29077061  1  0  0.042635  0  0.975501  0  0  0.05727  0  1.051071  0  0  0.057166  0  1.052312  0  0  0.07286  0.057247  0  1.050304  0
H  H40  1  0.54290849  0.57298595  0.80289550  1  0  0.055414  0  0.954433  0  0  0.072056  0  1.0212  0  0  0.072716  0  1.021287  0  0  0.07653  0.071526  0  1.021175  0
H  H41  1  0.57298550  0.54290693  0.30289288  1  0  0.055338  0  0.954495  0  0  0.071996  0  1.021261  0  0  0.07266  0  1.021346  0  0  0.076495  0.07147  0  1.021228  0
H  H42  1  0.57955767  0.77489374  0.83107305  1  0  0.067604  0  0.934524  0  0  0.087855  0  0.989676  0  0  0.088686  0  0.990186  0  0  0.084858  0.087155  0  0.989471  0
H  H43  1  0.77488961  0.57955150  0.33107219  1  0  0.067597  0  0.934499  0  0  0.087831  0  0.989689  0  0  0.088678  0  0.990183  0  0  0.084848  0.087136  0  0.989477  0
H  H44  1  0.76509395  0.77713705  0.92883097  1  0  0.068775  0  0.943147  0  0  0.088368  0  1.000211  0  0  0.089081  0  1.001239  0  0  0.084831  0.087809  0  0.99955  0
H  H45  1  0.77713326  0.76509811  0.42882747  1  0  0.068764  0  0.943201  0  0  0.088356  0  1.000263  0  0  0.089074  0  1.001279  0  0  0.084864  0.087802  0  0.999613  0
H  H46  1  0.74565385  0.58313662  0.89662937  1  0  0.040772  0  0.993372  0  0  0.056175  0  1.071963  0  0  0.056142  0  1.072504  0  0  0.067508  0.056081  0  1.071681  0
H  H47  1  0.58313065  0.74564860  0.39662518  1  0  0.040804  0  0.99338  0  0  0.056188  0  1.071988  0  0  0.056155  0  1.072531  0  0  0.067515  0.056095  0  1.071713  0
H  H48  1  0.48418255  0.67367313  0.94967739  1  0  0.115879  0  0.939167  0  0  0.131266  0  1.000006  0  0  0.132167  0  1.001986  0  0  0.099173  0.130506  0  0.998802  0
H  H49  1  0.67368215  0.48418816  0.44967758  1  0  0.115929  0  0.939144  0  0  0.13132  0  0.999973  0  0  0.132221  0  1.001953  0  0  0.099221  0.130573  0  0.998755  0
H  H50  1  0.43523503  0.48541980  0.90034181  1  0  0.111339  0  0.946696  0  0  0.127039  0  1.009257  0  0  0.128283  0  1.009975  0  0  0.095608  0.126038  0  1.008908  0
H  H51  1  0.48542692  0.43523185  0.40034332  1  0  0.111347  0  0.946643  0  0  0.127052  0  1.00922  0  0  0.128296  0  1.009937  0  0  0.0956  0.126051  0  1.008869  0
H  H52  1  0.48917903  0.62713796  0.12344194  1  0  0.086565  0  0.977196  0  0  0.098946  0  1.037921  0  0  0.100935  0  1.038169  0  0  0.098931  0.097502  0  1.037846  0
H  H53  1  0.62713927  0.48918464  0.62344688  1  0  0.086562  0  0.977162  0  0  0.098871  0  1.037984  0  0  0.100862  0  1.038228  0  0  0.098905  0.097435  0  1.0379  0
H  H54  1  0.23052864  0.53619588  0.16955448  1  0  0.079013  0  0.97594  0  0  0.085457  0  1.048272  0  0  0.088563  0  1.045863  0  0  0.09092  0.083222  0  1.050029  0
H  H55  1  0.53619696  0.23053223  0.66956240  1  0  0.07906  0  0.975831  0  0  0.085476  0  1.048164  0  0  0.088578  0  1.04576  0  0  0.09097  0.08324  0  1.049922  0
H  H56  1  0.99143301  0.29529816  0.11290226  1  0  0.083642  0  0.953558  0  0  0.097456  0  1.008846  0  0  0.100361  0  1.00702  0  0  0.101338  0.095305  0  1.010294  0
H  H57  1  0.29530128  0.99143705  0.61290772  1  0  0.083681  0  0.95353  0  0  0.097506  0  1.008801  0  0  0.100408  0  1.006979  0  0  0.101369  0.095355  0  1.01025  0
H  H58  1  0.01175115  0.13593871  0.01299581  1  0  0.092043  0  0.973172  0  0  0.100095  0  1.0373  0  0  0.103253  0  1.035947  0  0  0.094781  0.097813  0  1.038376  0
H  H59  1  0.13595375  0.01174952  0.51299668  1  0  0.092106  0  0.973171  0  0  0.100149  0  1.037309  0  0  0.103312  0  1.035949  0  0  0.094826  0.097869  0  1.038399  0
H  H60  1  0.27114736  0.22299285  0.96730846  1  0  0.093167  0  0.948769  0  0  0.103513  0  1.012122  0  0  0.106303  0  1.010792  0  0  0.099586  0.101485  0  1.013146  0
H  H61  1  0.22300940  0.27114457  0.46730643  1  0  0.0931  0  0.948747  0  0  0.103414  0  1.012143  0  0  0.106204  0  1.01081  0  0  0.099556  0.101388  0  1.01317  0
H  H62  1  0.86824276  0.51607470  0.08481526  1  0  0.079388  0  0.97554  0  0  0.087614  0  1.045106  0  0  0.090346  0  1.043253  0  0  0.09058  0.085617  0  1.046465  0
H  H63  1  0.51607794  0.86824234  0.58481996  1  0  0.079394  0  0.975523  0  0  0.087605  0  1.045098  0  0  0.090339  0  1.043241  0  0  0.090579  0.085613  0  1.046452  0
H  H64  1  0.08468547  0.74336611  0.16143269  1  0  0.082986  0  0.966697  0  0  0.093845  0  1.030087  0  0  0.095789  0  1.030072  0  0  0.097186  0.092402  0  1.030283  0
H  H65  1  0.74336267  0.08468367  0.66143769  1  0  0.08294  0  0.96672  0  0  0.093809  0  1.0301  0  0  0.095755  0  1.030082  0  0  0.097181  0.092368  0  1.030291  0
H  H66  1  0.07240570  0.01170221  0.17976932  1  0  0.093778  0  0.948087  0  0  0.10504  0  1.006287  0  0  0.107162  0  1.006433  0  0  0.103203  0.103495  0  1.006262  0
H  H67  1  0.01170588  0.07241271  0.67977420  1  0  0.093728  0  0.948052  0  0  0.104998  0  1.006257  0  0  0.107126  0  1.006402  0  0  0.103194  0.103455  0  1.006222  0
H  H68  1  0.84094698  0.05080132  0.12169073  1  0  0.086535  0  0.960571  0  0  0.098415  0  1.018642  0  0  0.100824  0  1.017982  0  0  0.101603  0.096663  0  1.019252  0
H  H69  1  0.05080831  0.84095139  0.62169194  1  0  0.086541  0  0.960356  0  0  0.098414  0  1.018457  0  0  0.100824  0  1.017794  0  0  0.101596  0.096665  0  1.019056  0
H  H70  1  0.63407159  0.83072423  0.04261086  1  0  0.087909  0  0.983624  0  0  0.096871  0  1.05138  0  0  0.09983  0  1.049311  0  0  0.095431  0.094725  0  1.052954  0
H  H71  1  0.83072706  0.63407723  0.54261208  1  0  0.087985  0  0.983622  0  0  0.096916  0  1.051392  0  0  0.099874  0  1.049321  0  0  0.095443  0.094772  0  1.052963  0
Au  Au72  1  0.66509666  0.29395069  0.82482356  1  0  0.059427  0  2.244579  0  0  0.002611  0  2.759668  0  0  0.017856  0  2.719492  0  0  0.271552  -0.007461  0  2.786606  0
Au  Au73  1  0.29395202  0.66510308  0.32482235  1  0  0.059429  0  2.244655  0  0  0.002631  0  2.759723  0  0  0.01788  0  2.719542  0  0  0.271599  -0.007448  0  2.786677  0
Au  Au74  1  0.64001289  0.28401026  0.97654374  1  0  0.026383  0  2.264211  0  0  -0.034238  0  2.784127  0  0  -0.019032  0  2.745065  0  0  0.264437  -0.044375  0  2.810495  0
Au  Au75  1  0.28401440  0.64001156  0.47654426  1  0  0.026369  0  2.264209  0  0  -0.034269  0  2.784112  0  0  -0.019063  0  2.745051  0  0  0.264413  -0.044399  0  2.810474  0
C  C76  1  0.00113442  0.40070129  0.74960261  1  0  -0.120262  0  3.770595  0  0  -0.081368  0  4.005747  0  0  -0.087224  0  4.03207  0  0  -0.026661  -0.077436  0  3.987841  0
C  C77  1  0.40070438  0.00113626  0.24959974  1  0  -0.120155  0  3.770574  0  0  -0.081306  0  4.005792  0  0  -0.087157  0  4.032111  0  0  -0.026688  -0.077385  0  3.987911  0
C  C78  1  0.90522647  0.42632663  0.69892134  1  0  -0.083576  0  3.77774  0  0  -0.103667  0  4.021352  0  0  -0.104812  0  4.043667  0  0  -0.088687  -0.102717  0  4.006193  0
C  C79  1  0.42633070  0.90522873  0.19891851  1  0  -0.083563  0  3.777516  0  0  -0.103649  0  4.021146  0  0  -0.104796  0  4.043458  0  0  -0.088705  -0.102698  0  4.005985  0
C  C80  1  0.96065765  0.45769760  0.63930065  1  0  -0.068586  0  3.76171  0  0  -0.078468  0  4.000464  0  0  -0.081881  0  4.024333  0  0  -0.091206  -0.076159  0  3.984221  0
C  C81  1  0.45770372  0.96066493  0.13929521  1  0  -0.06881  0  3.761486  0  0  -0.078687  0  4.00024  0  0  -0.082102  0  4.024111  0  0  -0.091212  -0.076357  0  3.983939  0
C  C82  1  0.11274427  0.46501903  0.63010842  1  0  -0.055249  0  3.752452  0  0  -0.064382  0  3.989407  0  0  -0.065888  0  4.011391  0  0  -0.08688  -0.063182  0  3.974462  0
C  C83  1  0.46501608  0.11274975  0.13010780  1  0  -0.055181  0  3.752749  0  0  -0.064293  0  3.989659  0  0  -0.065799  0  4.011644  0  0  -0.086873  -0.063085  0  3.974697  0
C  C84  1  0.20899466  0.43952353  0.68044404  1  0  -0.063836  0  3.748567  0  0  -0.072927  0  3.986049  0  0  -0.075965  0  4.008666  0  0  -0.0873  -0.070897  0  3.970668  0
C  C85  1  0.43952049  0.20899465  0.18043919  1  0  -0.063774  0  3.748596  0  0  -0.07284  0  3.986066  0  0  -0.075876  0  4.008682  0  0  -0.087269  -0.070816  0  3.970698  0
C  C86  1  0.15384272  0.40751298  0.73997044  1  0  -0.062349  0  3.726708  0  0  -0.083393  0  3.970224  0  0  -0.083607  0  3.990152  0  0  -0.080675  -0.083051  0  3.95671  0
C  C87  1  0.40751235  0.15384421  0.23996819  1  0  -0.062388  0  3.726669  0  0  -0.083418  0  3.97024  0  0  -0.083631  0  3.990165  0  0  -0.080643  -0.083119  0  3.95673  0
C  C88  1  0.06445751  0.55433921  0.88241961  1  0  -0.117985  0  3.758879  0  0  -0.079497  0  3.994061  0  0  -0.085064  0  4.020674  0  0  -0.029155  -0.075751  0  3.976033  0
C  C89  1  0.55433688  0.06446596  0.38242122  1  0  -0.117991  0  3.758756  0  0  -0.079487  0  3.993922  0  0  -0.085053  0  4.020536  0  0  -0.029078  -0.075735  0  3.97589  0
C  C90  1  0.15800705  0.69390986  0.85724954  1  0  -0.063683  0  3.735106  0  0  -0.081739  0  3.972187  0  0  -0.082922  0  3.994101  0  0  -0.082163  -0.08083  0  3.95724  0
C  C91  1  0.69390724  0.15801520  0.35725021  1  0  -0.063539  0  3.735039  0  0  -0.08163  0  3.972117  0  0  -0.082816  0  3.994019  0  0  -0.082156  -0.08071  0  3.957152  0
C  C92  1  0.25427057  0.83657100  0.89939274  1  0  -0.064138  0  3.760012  0  0  -0.07652  0  4.00882  0  0  -0.07875  0  4.029557  0  0  -0.089537  -0.074975  0  3.994818  0
C  C93  1  0.83657122  0.25428275  0.39939761  1  0  -0.064321  0  3.760127  0  0  -0.076684  0  4.008972  0  0  -0.078902  0  4.029722  0  0  -0.089583  -0.07514  0  3.994962  0
C  C94  1  0.25747597  0.84052866  0.96683562  1  0  -0.06704  0  3.765418  0  0  -0.08009  0  4.008243  0  0  -0.081025  0  4.028898  0  0  -0.092245  -0.079375  0  3.994195  0
C  C95  1  0.84053087  0.25748148  0.46683836  1  0  -0.067015  0  3.765505  0  0  -0.080013  0  4.008331  0  0  -0.080946  0  4.028987  0  0  -0.092265  -0.079297  0  3.994288  0
C  C96  1  0.16464240  0.70211817  0.99221510  1  0  -0.069351  0  3.768688  0  0  -0.078197  0  4.007282  0  0  -0.08105  0  4.031134  0  0  -0.093762  -0.076222  0  3.991033  0
C  C97  1  0.70212179  0.16464074  0.49221755  1  0  -0.069274  0  3.768541  0  0  -0.078153  0  4.007161  0  0  -0.081  0  4.031007  0  0  -0.093727  -0.076181  0  3.990923  0
C  C98  1  0.06765681  0.55942583  0.95031895  1  0  -0.07328  0  3.751498  0  0  -0.090117  0  3.991121  0  0  -0.092339  0  4.015098  0  0  -0.090223  -0.088494  0  3.974846  0
C  C99  1  0.55942272  0.06766132  0.45031988  1  0  -0.073354  0  3.751401  0  0  -0.090196  0  3.991025  0  0  -0.092418  0  4.015  0  0  -0.090268  -0.088573  0  3.97476  0
C  C100  1  0.98705088  0.20812594  0.85345868  1  0  -0.293189  0  3.648574  0  0  -0.315574  0  3.895294  0  0  -0.32087  0  3.908714  0  0  -0.169576  -0.311769  0  3.886006  0
C  C101  1  0.20812605  0.98705651  0.35345597  1  0  -0.293107  0  3.648269  0  0  -0.315533  0  3.89516  0  0  -0.320838  0  3.908609  0  0  -0.169598  -0.311727  0  3.885885  0
C  C102  1  0.86543144  0.04532911  0.81583282  1  0  -0.086923  0  3.716184  0  0  -0.125999  0  3.969205  0  0  -0.126445  0  3.98454  0  0  -0.175128  -0.125489  0  3.958546  0
C  C103  1  0.04533033  0.86543110  0.31583130  1  0  -0.086905  0  3.716067  0  0  -0.125971  0  3.969067  0  0  -0.126421  0  3.984396  0  0  -0.175085  -0.125462  0  3.958396  0
C  C104  1  0.91749028  0.90722237  0.82153024  1  0  -0.101884  0  3.666836  0  0  -0.138227  0  3.922936  0  0  -0.139617  0  3.938066  0  0  -0.16966  -0.137134  0  3.912386  0
C  C105  1  0.90722150  0.91748844  0.32152610  1  0  -0.101553  0  3.666619  0  0  -0.137934  0  3.92272  0  0  -0.139311  0  3.937832  0  0  -0.169559  -0.136838  0  3.912176  0
C  C106  1  0.78103524  0.74297610  0.79234607  1  0  -0.099378  0  3.684747  0  0  -0.135483  0  3.938845  0  0  -0.13652  0  3.95441  0  0  -0.169318  -0.134588  0  3.92797  0
C  C107  1  0.74297614  0.78103009  0.29234228  1  0  -0.099701  0  3.684766  0  0  -0.135697  0  3.938846  0  0  -0.136739  0  3.954413  0  0  -0.169425  -0.134807  0  3.927962  0
C  C108  1  0.63579383  0.68821067  0.82959424  1  0  -0.110269  0  3.677033  0  0  -0.145666  0  3.930241  0  0  -0.146801  0  3.944773  0  0  -0.171814  -0.144702  0  3.920089  0
C  C109  1  0.68820915  0.63579118  0.32959204  1  0  -0.110129  0  3.676972  0  0  -0.145562  0  3.930187  0  0  -0.146712  0  3.944725  0  0  -0.171728  -0.144594  0  3.920031  0
C  C110  1  0.68059067  0.66241291  0.89911002  1  0  -0.074504  0  3.690734  0  0  -0.111829  0  3.941191  0  0  -0.112676  0  3.957225  0  0  -0.17154  -0.111049  0  3.930045  0
C  C111  1  0.66241076  0.68058815  0.39910676  1  0  -0.074609  0  3.690861  0  0  -0.111879  0  3.94125  0  0  -0.112731  0  3.957297  0  0  -0.171604  -0.111111  0  3.930138  0
C  C112  1  0.53298952  0.58625900  0.93330751  1  0  -0.286649  0  3.64014  0  0  -0.308394  0  3.887133  0  0  -0.313616  0  3.90099  0  0  -0.165292  -0.304629  0  3.877573  0
C  C113  1  0.58626188  0.53298990  0.43330803  1  0  -0.286633  0  3.639909  0  0  -0.308374  0  3.886856  0  0  -0.313591  0  3.900704  0  0  -0.165316  -0.304613  0  3.877286  0
C  C114  1  0.39577556  0.43329598  0.04151739  1  0  -0.111832  0  3.754213  0  0  -0.073304  0  3.990346  0  0  -0.078816  0  4.01719  0  0  -0.025396  -0.069604  0  3.972172  0
C  C115  1  0.43330217  0.39577692  0.54151839  1  0  -0.111781  0  3.754172  0  0  -0.073316  0  3.990375  0  0  -0.078832  0  4.017226  0  0  -0.025375  -0.069612  0  3.972191  0
C  C116  1  0.38414067  0.52082640  0.09862987  1  0  -0.081308  0  3.75295  0  0  -0.100136  0  3.991537  0  0  -0.10144  0  4.0137  0  0  -0.087812  -0.099136  0  3.976467  0
C  C117  1  0.52083414  0.38414370  0.59863497  1  0  -0.081309  0  3.752884  0  0  -0.10008  0  3.991506  0  0  -0.10138  0  4.013666  0  0  -0.087839  -0.099084  0  3.976425  0
C  C118  1  0.23878265  0.47045917  0.12429655  1  0  -0.068157  0  3.767729  0  0  -0.077153  0  4.011632  0  0  -0.079937  0  4.033871  0  0  -0.088794  -0.075216  0  3.996481  0
C  C119  1  0.47045688  0.23878238  0.62429975  1  0  -0.068325  0  3.767915  0  0  -0.077265  0  4.011801  0  0  -0.080048  0  4.034039  0  0  -0.088833  -0.075322  0  3.996636  0
C  C120  1  0.10491339  0.33342328  0.09299339  1  0  -0.058407  0  3.752325  0  0  -0.072252  0  3.996067  0  0  -0.07392  0  4.018112  0  0  -0.084298  -0.070969  0  3.981015  0
C  C121  1  0.33343238  0.10491688  0.59300012  1  0  -0.058404  0  3.752015  0  0  -0.072261  0  3.99577  0  0  -0.073925  0  4.01781  0  0  -0.084362  -0.070979  0  3.980722  0
C  C122  1  0.11657116  0.24383145  0.03673880  1  0  -0.066174  0  3.759594  0  0  -0.077994  0  4.006144  0  0  -0.080493  0  4.028034  0  0  -0.088126  -0.076254  0  3.991252  0
C  C123  1  0.24383890  0.11657703  0.53674063  1  0  -0.066358  0  3.759542  0  0  -0.07819  0  4.006109  0  0  -0.080692  0  4.027992  0  0  -0.088237  -0.076455  0  3.991233  0
C  C124  1  0.26148137  0.29320992  0.01111678  1  0  -0.072253  0  3.735465  0  0  -0.089402  0  3.97471  0  0  -0.091133  0  3.997074  0  0  -0.08401  -0.088091  0  3.959469  0
C  C125  1  0.29322235  0.26147855  0.51111787  1  0  -0.072036  0  3.735533  0  0  -0.08911  0  3.974756  0  0  -0.09084  0  3.997124  0  0  -0.083857  -0.087798  0  3.959514  0
C  C126  1  0.73507060  0.65714592  0.05966937  1  0  -0.116223  0  3.767657  0  0  -0.07622  0  3.999357  0  0  -0.082662  0  4.026376  0  0  -0.027134  -0.071956  0  3.981075  0
C  C127  1  0.65715346  0.73507754  0.55967054  1  0  -0.116217  0  3.767756  0  0  -0.076289  0  3.999534  0  0  -0.082739  0  4.026566  0  0  -0.027107  -0.072013  0  3.981245  0
C  C128  1  0.86277740  0.63364449  0.09339494  1  0  -0.069305  0  3.761999  0  0  -0.085418  0  3.995208  0  0  -0.086726  0  4.018269  0  0  -0.084087  -0.084306  0  3.979486  0
C  C129  1  0.63364603  0.86277180  0.59339756  1  0  -0.069294  0  3.762098  0  0  -0.085357  0  3.995313  0  0  -0.086665  0  4.018375  0  0  -0.084082  -0.084242  0  3.979581  0
C  C130  1  0.98386124  0.76114530  0.13625061  1  0  -0.071922  0  3.76395  0  0  -0.081497  0  4.004927  0  0  -0.084527  0  4.026778  0  0  -0.088731  -0.079509  0  3.990124  0
C  C131  1  0.76114665  0.98386783  0.63625423  1  0  -0.071822  0  3.763463  0  0  -0.081403  0  4.00445  0  0  -0.084428  0  4.026295  0  0  -0.088683  -0.079408  0  3.989635  0
C  C132  1  0.97715916  0.91181170  0.14659557  1  0  -0.042279  0  3.723961  0  0  -0.05533  0  3.967245  0  0  -0.055194  0  3.987621  0  0  -0.077836  -0.055244  0  3.953339  0
C  C133  1  0.91181980  0.97715804  0.64659788  1  0  -0.042233  0  3.723982  0  0  -0.055293  0  3.967273  0  0  -0.055163  0  3.987659  0  0  -0.077827  -0.0552  0  3.953352  0
C  C134  1  0.84872675  0.93460532  0.11386918  1  0  -0.065888  0  3.759108  0  0  -0.079108  0  4.008881  0  0  -0.082627  0  4.030804  0  0  -0.086125  -0.076776  0  3.994007  0
C  C135  1  0.93460444  0.84873653  0.61387077  1  0  -0.065879  0  3.759352  0  0  -0.079095  0  4.009125  0  0  -0.082618  0  4.031051  0  0  -0.086119  -0.076755  0  3.994231  0
C  C136  1  0.72941834  0.80875341  0.06998511  1  0  -0.069127  0  3.754123  0  0  -0.092074  0  4.000571  0  0  -0.091996  0  4.021031  0  0  -0.084222  -0.091961  0  3.98668  0
C  C137  1  0.80876466  0.72942267  0.56998458  1  0  -0.069267  0  3.754038  0  0  -0.092168  0  4.000514  0  0  -0.092098  0  4.020998  0  0  -0.084243  -0.092055  0  3.986622  0
Cl  Cl138  1  0.38575739  0.20143873  0.81213383  1  0  -0.453893  0  1.115602  0  0  -0.386722  0  1.406288  0  0  -0.403782  0  1.384944  0  0  -0.297475  -0.374584  0  1.420596  0
Cl  Cl139  1  0.20143808  0.38576102  0.31212878  1  0  -0.45387  0  1.115573  0  0  -0.386682  0  1.406246  0  0  -0.403744  0  1.384901  0  0  -0.297462  -0.374553  0  1.420559  0
Cl  Cl140  1  0.69529445  0.05854629  0.96198745  1  0  -0.414406  0  1.191057  0  0  -0.342157  0  1.505129  0  0  -0.360196  0  1.485968  0  0  -0.263898  -0.329328  0  1.517942  0
Cl  Cl141  1  0.05855186  0.69529222  0.46199009  1  0  -0.414411  0  1.191053  0  0  -0.342131  0  1.505069  0  0  -0.360171  0  1.485912  0  0  -0.263876  -0.329292  0  1.517877  0
