# generated using pymatgen
data_AgH8C13NO4
_symmetry_space_group_name_H-M   'P 1'
_cell_length_a   5.15886909
_cell_length_b   7.42784734
_cell_length_c   14.94269551
_cell_angle_alpha   104.79977017
_cell_angle_beta   94.02535319
_cell_angle_gamma   102.61053901
_symmetry_Int_Tables_number   1
_chemical_formula_structural   AgH8C13NO4
_chemical_formula_sum   'Ag2 H16 C26 N2 O8'
_cell_volume   535.40622132
_cell_formula_units_Z   2
loop_
 _symmetry_equiv_pos_site_id
 _symmetry_equiv_pos_as_xyz
  1  'x, y, z'
loop_
 _atom_site_type_symbol
 _atom_site_label
 _atom_site_symmetry_multiplicity
 _atom_site_fract_x
 _atom_site_fract_y
 _atom_site_fract_z
 _atom_site_occupancy
 _atom_site_hle17_bader_spin_density
 _atom_site_hle17_ddec_charge
 _atom_site_hle17_ddec_spin_density
 _atom_site_hle17_ddec_sum_bond_order
 _atom_site_hle17_magmom
 _atom_site_hse06_10hf_bader_spin_density
 _atom_site_hse06_10hf_ddec_charge
 _atom_site_hse06_10hf_ddec_spin_density
 _atom_site_hse06_10hf_ddec_sum_bond_order
 _atom_site_hse06_10hf_magmom
 _atom_site_hse06_bader_spin_density
 _atom_site_hse06_ddec_charge
 _atom_site_hse06_ddec_spin_density
 _atom_site_hse06_ddec_sum_bond_order
 _atom_site_hse06_magmom
 _atom_site_pbe_bader_spin_density
 _atom_site_pbe_cm5_charge
 _atom_site_pbe_ddec_charge
 _atom_site_pbe_ddec_spin_density
 _atom_site_pbe_ddec_sum_bond_order
 _atom_site_pbe_magmom
Ag  Ag0  1  0.83840327  0.14855288  0.02652826  1  0  0.591681  0  1.401658  0  0  0.465062  0  1.848416  0  0  0.498942  0  1.795866  0  0  0.446274  0.441529  0  1.884658  0
Ag  Ag1  1  0.16161038  0.85144934  0.97347068  1  0  0.591687  0  1.401623  0  0  0.465088  0  1.848363  0  0  0.498964  0  1.795811  0  0  0.446294  0.441553  0  1.884607  0
H  H2  1  0.43898420  0.84197527  0.46665718  1  0  0.393842  0  0.896503  0  0  0.362483  0  0.974375  0  0  0.375405  0  0.960863  0  0  0.304006  0.353439  0  0.983714  0
H  H3  1  0.56099449  0.15802178  0.53334096  1  0  0.393936  0  0.896537  0  0  0.362599  0  0.974339  0  0  0.375517  0  0.960826  0  0  0.304083  0.353556  0  0.983676  0
H  H4  1  0.71820308  0.52865750  0.54751027  1  0  0.107095  0  0.969112  0  0  0.114337  0  1.035034  0  0  0.117888  0  1.032346  0  0  0.105839  0.111802  0  1.036906  0
H  H5  1  0.28177632  0.47133108  0.45249356  1  0  0.107104  0  0.969164  0  0  0.114426  0  1.034977  0  0  0.117957  0  1.032335  0  0  0.105866  0.111889  0  1.036851  0
H  H6  1  0.00621345  0.39756477  0.63887669  1  0  0.107983  0  0.971379  0  0  0.116232  0  1.034768  0  0  0.119841  0  1.032608  0  0  0.102881  0.11363  0  1.036454  0
H  H7  1  0.99378350  0.60242915  0.36112352  1  0  0.107925  0  0.97139  0  0  0.116187  0  1.034767  0  0  0.119796  0  1.032612  0  0  0.102892  0.113585  0  1.036455  0
H  H8  1  0.51349355  0.96812812  0.76194146  1  0  0.112231  0  0.944635  0  0  0.123711  0  1.001745  0  0  0.12667  0  1.001012  0  0  0.107649  0.121589  0  1.002376  0
H  H9  1  0.48650134  0.03187590  0.23805858  1  0  0.112222  0  0.944649  0  0  0.123712  0  1.001735  0  0  0.126671  0  1.001  0  0  0.107664  0.121589  0  1.002367  0
H  H10  1  0.22499875  0.09682713  0.66796228  1  0  0.096325  0  0.957784  0  0  0.105392  0  1.023397  0  0  0.108144  0  1.021725  0  0  0.103279  0.103371  0  1.024717  0
H  H11  1  0.77498156  0.90317431  0.33203911  1  0  0.096306  0  0.957871  0  0  0.105383  0  1.023463  0  0  0.108136  0  1.021789  0  0  0.103278  0.103361  0  1.024784  0
H  H12  1  0.08874899  0.35944713  0.77310788  1  0  0.11382  0  0.94346  0  0  0.122698  0  1.006842  0  0  0.126398  0  1.003374  0  0  0.112578  0.119988  0  1.009403  0
H  H13  1  0.91127711  0.64055197  0.22689033  1  0  0.11372  0  0.943485  0  0  0.122566  0  1.006922  0  0  0.126266  0  1.003454  0  0  0.112511  0.119859  0  1.009478  0
H  H14  1  0.80257722  0.42923553  0.95566622  1  0  0.067075  0  0.977908  0  0  0.071629  0  1.060773  0  0  0.07526  0  1.055186  0  0  0.103932  0.068888  0  1.064903  0
H  H15  1  0.19743418  0.57077107  0.04433319  1  0  0.067187  0  0.977889  0  0  0.071691  0  1.060786  0  0  0.075328  0  1.055187  0  0  0.103962  0.068955  0  1.064912  0
H  H16  1  0.79287376  0.82328841  0.80361116  1  0  0.093108  0  0.960621  0  0  0.098677  0  1.030479  0  0  0.101687  0  1.027687  0  0  0.115945  0.096513  0  1.032476  0
H  H17  1  0.20713025  0.17671402  0.19638892  1  0  0.093194  0  0.960576  0  0  0.098735  0  1.030456  0  0  0.101743  0  1.027667  0  0  0.115962  0.096569  0  1.032451  0
C  C18  1  0.89239904  0.62451267  0.59432460  1  0  -0.048107  0  3.718324  0  0  -0.07439  0  3.967663  0  0  -0.072683  0  3.98822  0  0  -0.078938  -0.07517  0  3.953593  0
C  C19  1  0.10759108  0.37547860  0.40567915  1  0  -0.048144  0  3.718397  0  0  -0.07454  0  3.967653  0  0  -0.072835  0  3.988206  0  0  -0.078922  -0.075323  0  3.95359  0
C  C20  1  0.76240492  0.90389419  0.55601593  1  0  0.659558  0  3.807589  0  0  0.602307  0  4.113121  0  0  0.636759  0  4.104558  0  0  0.23652  0.578958  0  4.118379  0
C  C21  1  0.23759599  0.09611557  0.44398696  1  0  0.659581  0  3.807304  0  0  0.602247  0  4.112868  0  0  0.636698  0  4.104304  0  0  0.236527  0.578909  0  4.118111  0
C  C22  1  0.05404368  0.55154385  0.64681851  1  0  -0.111932  0  3.698003  0  0  -0.129287  0  3.945576  0  0  -0.134908  0  3.966969  0  0  -0.088116  -0.125616  0  3.931033  0
C  C23  1  0.94595683  0.44845444  0.35318567  1  0  -0.111747  0  3.69792  0  0  -0.12907  0  3.94557  0  0  -0.134681  0  3.966946  0  0  -0.088123  -0.125402  0  3.931028  0
C  C24  1  0.28482116  0.20244612  0.89644759  1  0  0.63287  0  3.954447  0  0  0.581515  0  4.238589  0  0  0.615726  0  4.236501  0  0  0.195928  0.558304  0  4.239031  0
C  C25  1  0.71519164  0.79755903  0.10355235  1  0  0.632854  0  3.954387  0  0  0.581579  0  4.238497  0  0  0.615772  0  4.236413  0  0  0.195973  0.558367  0  4.238938  0
C  C26  1  0.34061798  0.87059287  0.71456098  1  0  -0.113626  0  3.695786  0  0  -0.131336  0  3.946473  0  0  -0.136863  0  3.967855  0  0  -0.086214  -0.127834  0  3.932077  0
C  C27  1  0.65937123  0.12940116  0.28543839  1  0  -0.113523  0  3.695888  0  0  -0.131183  0  3.946624  0  0  -0.136706  0  3.968001  0  0  -0.086222  -0.127682  0  3.932226  0
C  C28  1  0.94868573  0.82234246  0.60369017  1  0  -0.093037  0  3.786984  0  0  -0.069852  0  4.024653  0  0  -0.080813  0  4.049728  0  0  -0.022011  -0.062824  0  4.007771  0
C  C29  1  0.05129545  0.17765610  0.39631156  1  0  -0.093178  0  3.787117  0  0  -0.069749  0  4.024495  0  0  -0.080711  0  4.049577  0  0  -0.022031  -0.062726  0  4.007613  0
C  C30  1  0.43078467  0.37023856  0.86516531  1  0  -0.102973  0  3.732587  0  0  -0.072824  0  3.963271  0  0  -0.08543  0  3.987212  0  0  -0.01335  -0.065065  0  3.947598  0
C  C31  1  0.56921911  0.62975801  0.13483138  1  0  -0.102885  0  3.732532  0  0  -0.07293  0  3.963436  0  0  -0.085471  0  3.987296  0  0  -0.013346  -0.065171  0  3.947767  0
C  C32  1  0.17806549  0.94387346  0.66242178  1  0  -0.043536  0  3.717281  0  0  -0.073358  0  3.972334  0  0  -0.070807  0  3.991805  0  0  -0.081245  -0.074791  0  3.959152  0
C  C33  1  0.82191591  0.05613090  0.33758132  1  0  -0.043526  0  3.717569  0  0  -0.073412  0  3.972551  0  0  -0.070857  0  3.992012  0  0  -0.081185  -0.074846  0  3.959371  0
C  C34  1  0.29603717  0.43510566  0.80029138  1  0  -0.054239  0  3.668904  0  0  -0.092288  0  3.919309  0  0  -0.086673  0  3.934232  0  0  -0.060101  -0.095633  0  3.909273  0
C  C35  1  0.70397539  0.56489363  0.19970518  1  0  -0.054018  0  3.668681  0  0  -0.091947  0  3.919077  0  0  -0.086352  0  3.933985  0  0  -0.059934  -0.095293  0  3.90904  0
C  C36  1  0.69147877  0.47424499  0.90409847  1  0  0.131886  0  3.667442  0  0  0.091165  0  3.915868  0  0  0.100341  0  3.933459  0  0  0.049691  0.085238  0  3.904021  0
C  C37  1  0.30852330  0.52575743  0.09590021  1  0  0.131683  0  3.667665  0  0  0.091029  0  3.916174  0  0  0.100184  0  3.933751  0  0  0.049587  0.085098  0  3.904334  0
C  C38  1  0.27524658  0.67391472  0.71005577  1  0  0.075601  0  3.763823  0  0  0.087093  0  3.996278  0  0  0.08964  0  4.020888  0  0  0.002603  0.085668  0  3.979463  0
C  C39  1  0.72476339  0.32607766  0.28994860  1  0  0.075485  0  3.763504  0  0  0.086805  0  3.996241  0  0  0.089348  0  4.020854  0  0  0.002533  0.085383  0  3.979421  0
C  C40  1  0.42166949  0.59830162  0.77458747  1  0  -0.002292  0  3.770663  0  0  0.016018  0  4.009245  0  0  0.010851  0  4.031278  0  0  -0.003337  0.019027  0  3.994471  0
C  C41  1  0.57832901  0.40169645  0.22540793  1  0  -0.002341  0  3.77035  0  0  0.015979  0  4.008981  0  0  0.010811  0  4.031018  0  0  -0.00343  0.018988  0  3.994206  0
C  C42  1  0.68318864  0.69312976  0.81820170  1  0  0.096503  0  3.643879  0  0  0.057366  0  3.898696  0  0  0.065973  0  3.914409  0  0  0.052038  0.051439  0  3.888688  0
C  C43  1  0.31681095  0.30687125  0.18179675  1  0  0.096376  0  3.644134  0  0  0.057295  0  3.898902  0  0  0.065901  0  3.914617  0  0  0.052015  0.051366  0  3.888896  0
N  N44  1  0.81340443  0.63388922  0.88218905  1  0  -0.316107  0  3.336667  0  0  -0.235217  0  3.62436  0  0  -0.256145  0  3.64131  0  0  -0.342098  -0.220978  0  3.612375  0
N  N45  1  0.18661490  0.36612302  0.11781124  1  0  -0.316056  0  3.336904  0  0  -0.235148  0  3.624535  0  0  -0.256078  0  3.641495  0  0  -0.342004  -0.220908  0  3.612549  0
O  O46  1  0.03348681  0.14942428  0.87462326  1  0  -0.63055  0  1.995181  0  0  -0.57196  0  2.24829  0  0  -0.600077  0  2.239318  0  0  -0.323301  -0.551906  0  2.253451  0
O  O47  1  0.96653394  0.85058655  0.12537890  1  0  -0.630662  0  1.995033  0  0  -0.572084  0  2.248118  0  0  -0.600201  0  2.239154  0  0  -0.323415  -0.552027  0  2.253277  0
O  O48  1  0.42129006  0.12626617  0.94464549  1  0  -0.648049  0  2.177233  0  0  -0.561808  0  2.466189  0  0  -0.595716  0  2.453699  0  0  -0.338995  -0.537992  0  2.473926  0
O  O49  1  0.57872218  0.87373748  0.05535226  1  0  -0.647985  0  2.177283  0  0  -0.561744  0  2.466202  0  0  -0.595656  0  2.453722  0  0  -0.338941  -0.537929  0  2.473939  0
O  O50  1  0.77931301  0.08082407  0.57632701  1  0  -0.579232  0  2.010072  0  0  -0.523813  0  2.230891  0  0  -0.546963  0  2.222549  0  0  -0.284977  -0.507938  0  2.236259  0
O  O51  1  0.22067069  0.91916554  0.42366567  1  0  -0.579105  0  2.009633  0  0  -0.523764  0  2.230578  0  0  -0.546929  0  2.222264  0  0  -0.284952  -0.50789  0  2.235939  0
O  O52  1  0.57494703  0.77699113  0.49204781  1  0  -0.535976  0  2.120222  0  0  -0.479652  0  2.342453  0  0  -0.502526  0  2.329611  0  0  -0.31653  -0.463732  0  2.350727  0
O  O53  1  0.42504887  0.22299999  0.50795472  1  0  -0.53601  0  2.120524  0  0  -0.47965  0  2.342707  0  0  -0.502538  0  2.329901  0  0  -0.316593  -0.463736  0  2.350979  0
