# generated using pymatgen
data_Zn3H10(CN3)8
_symmetry_space_group_name_H-M   'P 1'
_cell_length_a   7.84660228
_cell_length_b   8.03939298
_cell_length_c   9.31504168
_cell_angle_alpha   71.53825977
_cell_angle_beta   81.16052952
_cell_angle_gamma   78.06676748
_symmetry_Int_Tables_number   1
_chemical_formula_structural   Zn3H10(CN3)8
_chemical_formula_sum   'Zn3 H10 C8 N24'
_cell_volume   542.85660113
_cell_formula_units_Z   1
loop_
 _symmetry_equiv_pos_site_id
 _symmetry_equiv_pos_as_xyz
  1  'x, y, z'
loop_
 _atom_site_type_symbol
 _atom_site_label
 _atom_site_symmetry_multiplicity
 _atom_site_fract_x
 _atom_site_fract_y
 _atom_site_fract_z
 _atom_site_occupancy
 _atom_site_pbe_bader_spin_density
 _atom_site_pbe_cm5_charge
 _atom_site_pbe_ddec_charge
 _atom_site_pbe_ddec_spin_density
 _atom_site_pbe_ddec_sum_bond_order
 _atom_site_pbe_magmom
Zn  Zn0  1  0.99999974  0.50000065  0.99999943  1  0  0.706453  0.719548  0  2.537027  0
Zn  Zn1  1  0.03315423  0.41238333  0.68099653  1  0  0.723689  0.759093  0  2.534817  0
Zn  Zn2  1  0.96684534  0.58761707  0.31900378  1  0  0.723694  0.759114  0  2.534784  0
H  H3  1  0.28691856  0.73327851  0.81330566  1  0  0.121849  0.108235  0  1.026942  0
H  H4  1  0.71308359  0.26672188  0.18669432  1  0  0.121854  0.108248  0  1.026906  0
H  H5  1  0.77351842  0.19175880  0.81907854  1  0  0.119233  0.098853  0  1.057697  0
H  H6  1  0.22648115  0.80824158  0.18092070  1  0  0.119239  0.098847  0  1.057698  0
H  H7  1  0.75585035  0.87041692  0.94185660  1  0  0.11827  0.098695  0  1.03546  0
H  H8  1  0.24414944  0.12958213  0.05814190  1  0  0.118297  0.098762  0  1.035439  0
H  H9  1  0.34831349  0.19309649  0.60937203  1  0  0.308577  0.310843  0  0.970006  0
H  H10  1  0.65168737  0.80690390  0.39062811  1  0  0.308568  0.310843  0  0.970027  0
H  H11  1  0.44409971  0.96955428  0.66972742  1  0  0.307704  0.318566  0  0.988185  0
H  H12  1  0.55590092  0.03044745  0.33027345  1  0  0.307701  0.318567  0  0.988176  0
C  C13  1  0.17118423  0.83503758  0.81347232  1  0  0.058828  -0.031895  0  3.830817  0
C  C14  1  0.82881663  0.16496281  0.18652782  1  0  0.058843  -0.031912  0  3.830728  0
C  C15  1  0.18379902  0.01809316  0.73913823  1  0  0.243485  0.421073  0  4.048769  0
C  C16  1  0.81620184  0.98190723  0.26086191  1  0  0.243453  0.42107  0  4.048658  0
C  C17  1  0.88800143  0.08919869  0.81568805  1  0  0.041989  0.064395  0  3.95717  0
C  C18  1  0.11199836  0.91080037  0.18431153  1  0  0.041979  0.064399  0  3.957072  0
C  C19  1  0.87809375  0.91205863  0.88484274  1  0  0.011568  -0.028603  0  3.981093  0
C  C20  1  0.12190582  0.08794175  0.11515650  1  0  0.011543  -0.028692  0  3.98105  0
N  N21  1  0.20009122  0.42223130  0.84027553  1  0  -0.330723  -0.569753  0  3.196182  0
N  N22  1  0.79990834  0.57776909  0.15972370  1  0  -0.330713  -0.569751  0  3.196222  0
N  N23  1  0.35353716  0.36771325  0.85814900  1  0  0.087878  0.430251  0  4.466565  0
N  N24  1  0.64646370  0.63228714  0.14185114  1  0  0.087896  0.430262  0  4.466481  0
N  N25  1  0.50005649  0.31485248  0.87767650  1  0  -0.17531  -0.345091  0  2.610274  0
N  N26  1  0.49994201  0.68514657  0.12232324  1  0  -0.175346  -0.345119  0  2.610144  0
N  N27  1  0.15493393  0.48542531  0.17799017  1  0  -0.327074  -0.535969  0  3.20689  0
N  N28  1  0.84506564  0.51457508  0.82200906  1  0  -0.327082  -0.535941  0  3.206914  0
N  N29  1  0.27476581  0.36873084  0.22566735  1  0  0.100621  0.44058  0  4.472926  0
N  N30  1  0.72523375  0.63126955  0.77433188  1  0  0.10058  0.440497  0  4.472828  0
N  N31  1  0.39064729  0.25787132  0.27045936  1  0  -0.16054  -0.3504  0  2.700308  0
N  N32  1  0.60935334  0.74213039  0.72953830  1  0  -0.160498  -0.350344  0  2.70021  0
N  N33  1  0.83269758  0.46489678  0.51009635  1  0  -0.339483  -0.573136  0  3.183671  0
N  N34  1  0.16730199  0.53510361  0.48990396  1  0  -0.339463  -0.573105  0  3.183696  0
N  N35  1  0.72392749  0.37550593  0.51424859  1  0  0.095742  0.438664  0  4.474621  0
N  N36  1  0.27607229  0.62449313  0.48575206  1  0  0.095672  0.438595  0  4.474552  0
N  N37  1  0.61988568  0.28871378  0.52218671  1  0  -0.164519  -0.335435  0  2.623814  0
N  N38  1  0.38011517  0.71128661  0.47781343  1  0  -0.16447  -0.335387  0  2.623687  0
N  N39  1  0.02247925  0.78547423  0.88479820  1  0  -0.300746  -0.164586  0  3.564835  0
N  N40  1  0.97752160  0.21452615  0.11519979  1  0  -0.300769  -0.164581  0  3.564873  0
N  N41  1  0.03939592  0.14343835  0.74497723  1  0  -0.336683  -0.31305  0  3.498038  0
N  N42  1  0.96060494  0.85656204  0.25502183  1  0  -0.336643  -0.313013  0  3.497985  0
N  N43  1  0.33552225  0.06523606  0.66752821  1  0  -0.557578  -0.60111  0  3.368959  0
N  N44  1  0.66447839  0.93476566  0.33247159  1  0  -0.557562  -0.601126  0  3.368979  0
