# generated using pymatgen
data_CuH15C11(NO2)2
_symmetry_space_group_name_H-M   'P 1'
_cell_length_a   8.76490585
_cell_length_b   12.82965637
_cell_length_c   13.05432292
_cell_angle_alpha   119.42557425
_cell_angle_beta   92.65058280
_cell_angle_gamma   89.99050391
_symmetry_Int_Tables_number   1
_chemical_formula_structural   CuH15C11(NO2)2
_chemical_formula_sum   'Cu4 H60 C44 N8 O16'
_cell_volume   1276.79521420
_cell_formula_units_Z   4
loop_
 _symmetry_equiv_pos_site_id
 _symmetry_equiv_pos_as_xyz
  1  'x, y, z'
loop_
 _atom_site_type_symbol
 _atom_site_label
 _atom_site_symmetry_multiplicity
 _atom_site_fract_x
 _atom_site_fract_y
 _atom_site_fract_z
 _atom_site_occupancy
 _atom_site_pbe_cm5_charge
 _atom_site_pbe_ddec_charge
 _atom_site_pbe_ddec_spin_density
 _atom_site_pbe_ddec_sum_bond_order
 _atom_site_pbe_magmom
Cu  Cu0  1  0.56494731  0.97677574  0.40345762  1  0.655253  0.712696  -0.003625  2.408913  -0.002
Cu  Cu1  1  0.93514879  0.57346610  0.59665485  1  0.654824  0.712322  0.007081  2.408623  0.005
Cu  Cu2  1  0.43505088  0.02323059  0.59655095  1  0.655146  0.712723  0.004059  2.408708  0.002
Cu  Cu3  1  0.06478528  0.42660739  0.40345075  1  0.655179  0.713293  -0.00669  2.407573  -0.005
H  H4  1  0.75714987  0.11681459  0.32742467  1  0.346511  0.292898  3.3e-05  0.899017  0.0
H  H5  1  0.74267880  0.78918461  0.67288388  1  0.346667  0.292351  -2.9e-05  0.899364  0.0
H  H6  1  0.24284714  0.88318995  0.67257611  1  0.346474  0.292897  -3.4e-05  0.899077  0.0
H  H7  1  0.25732039  0.21081724  0.32711873  1  0.346607  0.292265  2.3e-05  0.899438  0.0
H  H8  1  0.66534563  0.67762593  0.10754244  1  0.095137  0.133426  1e-06  0.994597  0.0
H  H9  1  0.83486777  0.57005439  0.89276061  1  0.095033  0.133129  4e-06  0.995088  0.0
H  H10  1  0.33465010  0.32237502  0.89245963  1  0.095105  0.133426  1.1e-05  0.994595  0.0
H  H11  1  0.16512905  0.42994477  0.10723911  1  0.095033  0.133157  -3e-06  0.995008  0.0
H  H12  1  0.55578477  0.69768555  0.00090257  1  0.09182  0.1271  -4e-06  1.032176  0.0
H  H13  1  0.94455280  0.69658098  0.99945703  1  0.091922  0.126966  -6e-06  1.032863  0.0
H  H14  1  0.44421222  0.30231899  0.99910128  1  0.091801  0.127142  -5e-06  1.032063  0.0
H  H15  1  0.05544736  0.30341550  0.00054303  1  0.091913  0.126985  5e-06  1.032842  0.0
H  H16  1  0.48973494  0.75211203  0.14586488  1  0.100138  0.149795  -6e-06  0.995452  0.0
H  H17  1  0.01061279  0.60605737  0.85450483  1  0.100228  0.149518  0.0  0.995019  0.0
H  H18  1  0.51026329  0.24789519  0.85414030  1  0.100158  0.149833  2e-06  0.995513  0.0
H  H19  1  0.98938730  0.39393732  0.14549359  1  0.100221  0.149512  -0.0  0.995068  0.0
H  H20  1  0.80908132  0.18664228  0.14902793  1  0.097952  0.150657  2.8e-05  1.002549  0.0
H  H21  1  0.69108479  0.03753849  0.85119377  1  0.097723  0.15  -3.7e-05  1.002827  0.0
H  H22  1  0.19091892  0.81335688  0.85097189  1  0.097965  0.150691  -3.2e-05  1.00259  0.0
H  H23  1  0.30892002  0.96246067  0.14880773  1  0.097723  0.150019  2.5e-05  1.002802  0.0
H  H24  1  0.90086003  0.06617816  0.03099788  1  0.097162  0.141985  8e-06  1.012271  0.0
H  H25  1  0.59939009  0.03518954  0.96928879  1  0.097076  0.141542  -7e-06  1.012096  0.0
H  H26  1  0.09914367  0.93382190  0.96900248  1  0.097124  0.141932  -8e-06  1.012366  0.0
H  H27  1  0.40061361  0.96481052  0.03071234  1  0.097077  0.14153  1e-05  1.012123  0.0
H  H28  1  0.98141279  0.13426695  0.17775406  1  0.097573  0.136351  -7e-06  1.045083  0.0
H  H29  1  0.51883603  0.95638985  0.82254234  1  0.09766  0.136724  1.5e-05  1.043915  0.0
H  H30  1  0.01858644  0.86573579  0.82224669  1  0.097554  0.136302  1.4e-05  1.045039  0.0
H  H31  1  0.48116992  0.04360931  0.17745920  1  0.097656  0.136691  -2e-06  1.043874  0.0
H  H32  1  0.47784739  0.36995904  0.52780697  1  0.101193  0.121921  0.00012  1.009036  0.0
H  H33  1  0.02207612  0.84210502  0.47212437  1  0.101231  0.121736  -0.000127  1.009665  0.0
H  H34  1  0.52215757  0.63004460  0.47219823  1  0.101232  0.121995  -0.000127  1.008974  0.0
H  H35  1  0.97792244  0.15787804  0.52786762  1  0.101214  0.121692  0.00012  1.009699  0.0
H  H36  1  0.63455988  0.38638002  0.62313529  1  0.106312  0.13347  0.000106  0.972375  0.0
H  H37  1  0.86541439  0.76327217  0.37674950  1  0.106375  0.133829  -9.9e-05  0.97221  0.0
H  H38  1  0.36544150  0.61361915  0.37687146  1  0.106304  0.133474  -0.0001  0.97237  0.0
H  H39  1  0.13459003  0.23671536  0.62324560  1  0.106431  0.13388  0.000103  0.972162  0.0
H  H40  1  0.42816825  0.71271936  0.71774900  1  0.09734  0.112482  0.000196  0.98839  0.0
H  H41  1  0.07199599  0.99477829  0.28199485  1  0.097199  0.112677  -0.000204  0.988719  0.0
H  H42  1  0.57182356  0.28726638  0.28224024  1  0.097353  0.112493  -0.000203  0.988533  0.0
H  H43  1  0.92800099  0.00522536  0.71800396  1  0.097216  0.112699  0.000205  0.98876  0.0
H  H44  1  0.51013290  0.58039825  0.60738845  1  0.09822  0.118669  -0.000229  1.031366  0.0
H  H45  1  0.98990888  0.97293031  0.39237643  1  0.098342  0.118403  0.00024  1.031319  0.0
H  H46  1  0.48988073  0.41959107  0.39260627  1  0.098288  0.118741  0.000226  1.031252  0.0
H  H47  1  0.01009495  0.02707333  0.60762566  1  0.098334  0.118405  -0.000244  1.031329  0.0
H  H48  1  0.36837449  0.61741914  0.83308669  1  0.088509  0.08026  -6.7e-05  0.987406  0.0
H  H49  1  0.13192030  0.78418143  0.16686244  1  0.088264  0.07971  6.3e-05  0.987803  0.0
H  H50  1  0.63162352  0.38258181  0.16691699  1  0.088493  0.080296  7.3e-05  0.987382  0.0
H  H51  1  0.86807548  0.21582042  0.83313241  1  0.088261  0.07972  -7.3e-05  0.987871  0.0
H  H52  1  0.56276573  0.59450864  0.79759816  1  0.090114  0.083028  4.5e-05  1.015955  0.0
H  H53  1  0.93747050  0.79677241  0.20220304  1  0.089724  0.082395  -5.4e-05  1.016657  0.0
H  H54  1  0.43723121  0.40549411  0.20240558  1  0.090109  0.083085  -4.1e-05  1.015906  0.0
H  H55  1  0.06252539  0.20323303  0.79779737  1  0.089705  0.082423  5.2e-05  1.016699  0.0
H  H56  1  0.44348272  0.41116685  0.77816516  1  0.089942  0.084436  4.5e-05  0.997552  0.0
H  H57  1  0.05665007  0.63292788  0.22183632  1  0.090104  0.08487  -4.5e-05  0.99789  0.0
H  H58  1  0.55652094  0.58883231  0.22183937  1  0.08998  0.084443  -4.7e-05  0.997539  0.0
H  H59  1  0.94334566  0.36707219  0.77815459  1  0.090115  0.084879  4.5e-05  0.997972  0.0
H  H60  1  0.29592540  0.41180057  0.68283419  1  0.088156  0.083521  1.9e-05  0.997982  0.0
H  H61  1  0.20411941  0.72890711  0.31724189  1  0.088213  0.08325  -1.5e-05  0.998408  0.0
H  H62  1  0.70407596  0.58819770  0.31716907  1  0.088149  0.083545  -1.8e-05  0.997915  0.0
H  H63  1  0.79587740  0.27109117  0.68275050  1  0.088183  0.083166  1.6e-05  0.998348  0.0
C  C64  1  0.74233742  0.89763346  0.06379605  1  -0.03484  -0.14616  -1.3e-05  4.065166  0.0
C  C65  1  0.75840944  0.83399210  0.93663990  1  -0.035245  -0.146861  -8e-06  4.065547  0.0
C  C66  1  0.25766856  0.10236660  0.93620515  1  -0.034865  -0.146191  -2.7e-05  4.06516  0.0
C  C67  1  0.24159874  0.16600527  0.06336161  1  -0.035299  -0.146912  -6.6e-05  4.065596  0.0
C  C68  1  0.50541117  0.22472488  0.56125119  1  0.212801  0.622673  7.4e-05  4.12606  0.0
C  C69  1  0.99443307  0.66343995  0.43871175  1  0.212689  0.622388  -7.2e-05  4.127425  0.0
C  C70  1  0.49459951  0.77527787  0.43873690  1  0.212687  0.62259  -5.4e-05  4.126339  0.0
C  C71  1  0.00559451  0.33652161  0.56124550  1  0.212824  0.622663  8.1e-05  4.126629  0.0
C  C72  1  0.79075385  0.01587378  0.14232095  1  0.099246  0.195208  4e-06  4.005178  0.0
C  C73  1  0.70965148  0.87357366  0.85805246  1  0.099479  0.195583  1.4e-05  4.005369  0.0
C  C74  1  0.20924874  0.98412718  0.85767981  1  0.099234  0.195195  8.3e-05  4.00518  0.0
C  C75  1  0.29035222  0.12642640  0.14194867  1  0.099451  0.195658  -1.5e-05  4.005445  0.0
C  C76  1  0.66963851  0.85717345  0.13367326  1  0.101077  0.211309  1.4e-05  4.001931  0.0
C  C77  1  0.83085196  0.72353224  0.86673987  1  0.101339  0.210993  -4.7e-05  4.001146  0.0
C  C78  1  0.33036636  0.14282750  0.86632681  1  0.101058  0.211218  -2.7e-05  4.001919  0.0
C  C79  1  0.16915063  0.27646871  0.13326319  1  0.101346  0.211023  5.9e-05  4.001056  0.0
C  C80  1  0.59070257  0.73976121  0.09479674  1  -0.233669  -0.42204  3e-06  3.953742  0.0
C  C81  1  0.90965450  0.64486658  0.90556486  1  -0.234057  -0.421367  -1.1e-05  3.953374  0.0
C  C82  1  0.40929789  0.26024422  0.90520688  1  -0.233653  -0.42213  -1.5e-05  3.953629  0.0
C  C83  1  0.09034219  0.35512901  0.09443312  1  -0.234142  -0.421534  -3e-06  3.953282  0.0
C  C84  1  0.87425120  0.10513728  0.12355640  1  -0.240427  -0.44027  5e-06  3.969438  0.0
C  C85  1  0.62601450  0.98153047  0.87673575  1  -0.239548  -0.438816  -1.3e-05  3.968072  0.0
C  C86  1  0.12575367  0.89486368  0.87644596  1  -0.240431  -0.440257  -7e-06  3.969471  0.0
C  C87  1  0.37399038  0.01847049  0.12326509  1  -0.239558  -0.438838  2e-06  3.967992  0.0
C  C88  1  0.51280961  0.35842626  0.60335936  1  -0.16095  -0.283193  0.00016  3.873615  0.0
C  C89  1  0.98715100  0.75503437  0.39657315  1  -0.161565  -0.283886  -0.000202  3.874181  0.0
C  C90  1  0.48719187  0.64157560  0.39664257  1  -0.160965  -0.28327  -0.000193  3.873575  0.0
C  C91  1  0.01286129  0.24494868  0.60340932  1  -0.161664  -0.283999  0.000175  3.873884  0.0
C  C92  1  0.26478600  0.57468872  0.60610683  1  0.213996  0.625942  -5.8e-05  4.113463  0.0
C  C93  1  0.23524973  0.96843847  0.39375867  1  0.213629  0.626797  6.8e-05  4.111246  0.0
C  C94  1  0.73523487  0.42527732  0.39385391  1  0.21412  0.626445  2.2e-05  4.113297  0.0
C  C95  1  0.76476311  0.03156069  0.60622394  1  0.213823  0.627083  -3.3e-05  4.111233  0.0
C  C96  1  0.42076096  0.61436456  0.67117273  1  -0.163906  -0.288022  5.7e-05  3.883532  0.0
C  C97  1  0.07933964  0.94306628  0.32864309  1  -0.163966  -0.288607  -8.2e-05  3.883889  0.0
C  C98  1  0.57924450  0.38561938  0.32881455  1  -0.164037  -0.288275  -6.8e-05  3.883757  0.0
C  C99  1  0.92066296  0.05693468  0.67135385  1  -0.16397  -0.288634  6.7e-05  3.883881  0.0
C  C100  1  0.44465732  0.56961095  0.76032244  1  -0.16247  -0.124141  -7.5e-05  3.925945  0.0
C  C101  1  0.05550889  0.80916359  0.23956208  1  -0.161649  -0.122528  5.9e-05  3.924546  0.0
C  C102  1  0.55534062  0.43038732  0.23967688  1  -0.162407  -0.124154  6.7e-05  3.925883  0.0
C  C103  1  0.94448812  0.19084095  0.76043564  1  -0.161692  -0.122645  -8.1e-05  3.924617  0.0
C  C104  1  0.41787256  0.43471499  0.70897122  1  -0.168094  -0.120987  -0.000288  3.936884  0.0
C  C105  1  0.08220460  0.72567566  0.29101623  1  -0.1683  -0.12134  0.000257  3.936414  0.0
C  C106  1  0.58212764  0.56528328  0.29103429  1  -0.168126  -0.121023  0.000263  3.936834  0.0
C  C107  1  0.91779677  0.27432261  0.70897477  1  -0.168203  -0.121133  -0.000252  3.935951  0.0
N  N108  1  0.67436523  0.94430474  0.24665523  1  -0.264926  -0.243082  0.000244  3.403155  0.0
N  N109  1  0.82575247  0.69752250  0.75368333  1  -0.264824  -0.243108  -0.000306  3.402995  0.0
N  N110  1  0.32564196  0.05569711  0.75334458  1  -0.264872  -0.242908  -0.00042  3.403165  0.0
N  N111  1  0.17425015  0.30247935  0.24631863  1  -0.264706  -0.243453  0.000294  3.402242  0.0
N  N112  1  0.74802025  0.03866418  0.24974349  1  -0.288421  -0.146228  -4.1e-05  3.716851  0.0
N  N113  1  0.75204955  0.78879632  0.75060490  1  -0.288801  -0.145846  -1.4e-05  3.718604  0.0
N  N114  1  0.25198006  0.96133678  0.75025490  1  -0.288378  -0.146253  -1.5e-05  3.716829  0.0
N  N115  1  0.24795307  0.21120553  0.24939400  1  -0.288769  -0.145807  -4.8e-05  3.718856  0.0
O  O116  1  0.56256116  0.15636340  0.46247242  1  -0.324199  -0.543479  -0.012431  2.315833  -0.013
O  O117  1  0.93746864  0.69404942  0.53762235  1  -0.324109  -0.542941  0.012267  2.314729  0.013
O  O118  1  0.43743430  0.84362950  0.53752729  1  -0.324211  -0.543612  0.01237  2.315397  0.013
O  O119  1  0.06252152  0.30598824  0.46237659  1  -0.323988  -0.542728  -0.012243  2.316028  -0.013
O  O120  1  0.26258210  0.49287927  0.49868134  1  -0.307625  -0.519853  0.011283  2.380467  0.012
O  O121  1  0.23725989  0.99442804  0.50131765  1  -0.307434  -0.52017  -0.011949  2.378179  -0.012
O  O122  1  0.73736678  0.50712081  0.50131728  1  -0.307779  -0.520312  -0.011315  2.379274  -0.012
O  O123  1  0.76273596  0.00557561  0.49867500  1  -0.30756  -0.520268  0.011923  2.378754  0.012
O  O124  1  0.14957757  0.62471266  0.66586673  1  -0.312655  -0.526855  -0.010623  2.363064  -0.011
O  O125  1  0.35057102  0.95835609  0.33402131  1  -0.312668  -0.527128  0.011106  2.363239  0.011
O  O126  1  0.85044861  0.37531156  0.33416517  1  -0.312613  -0.526935  0.010536  2.364512  0.011
O  O127  1  0.64944174  0.04164128  0.66597345  1  -0.312713  -0.527307  -0.011194  2.362853  -0.011
O  O128  1  0.44491286  0.19219625  0.62805611  1  -0.306187  -0.513345  0.012207  2.380325  0.012
O  O129  1  0.05461529  0.56399543  0.37187620  1  -0.305726  -0.512907  -0.012149  2.382051  -0.013
O  O130  1  0.55508213  0.80781635  0.37194773  1  -0.306037  -0.513106  -0.01226  2.381057  -0.012
O  O131  1  0.94536937  0.43598316  0.62813616  1  -0.30592  -0.513374  0.012093  2.380436  0.013
