# generated using pymatgen
data_CuH6C8NO2
_symmetry_space_group_name_H-M   'P 1'
_cell_length_a   5.48966635
_cell_length_b   6.92775003
_cell_length_c   10.08151439
_cell_angle_alpha   94.66437319
_cell_angle_beta   103.35675220
_cell_angle_gamma   110.06203922
_symmetry_Int_Tables_number   1
_chemical_formula_structural   CuH6C8NO2
_chemical_formula_sum   'Cu2 H12 C16 N2 O4'
_cell_volume   344.95368846
_cell_formula_units_Z   2
loop_
 _symmetry_equiv_pos_site_id
 _symmetry_equiv_pos_as_xyz
  1  'x, y, z'
loop_
 _atom_site_type_symbol
 _atom_site_label
 _atom_site_symmetry_multiplicity
 _atom_site_fract_x
 _atom_site_fract_y
 _atom_site_fract_z
 _atom_site_occupancy
 _atom_site_hle17_bader_spin_density
 _atom_site_hle17_ddec_charge
 _atom_site_hle17_ddec_spin_density
 _atom_site_hle17_ddec_sum_bond_order
 _atom_site_hle17_magmom
 _atom_site_hse06_10hf_bader_spin_density
 _atom_site_hse06_10hf_ddec_charge
 _atom_site_hse06_10hf_ddec_spin_density
 _atom_site_hse06_10hf_ddec_sum_bond_order
 _atom_site_hse06_10hf_magmom
 _atom_site_hse06_bader_spin_density
 _atom_site_hse06_ddec_charge
 _atom_site_hse06_ddec_spin_density
 _atom_site_hse06_ddec_sum_bond_order
 _atom_site_hse06_magmom
 _atom_site_pbe_bader_spin_density
 _atom_site_pbe_cm5_charge
 _atom_site_pbe_ddec_charge
 _atom_site_pbe_ddec_spin_density
 _atom_site_pbe_ddec_sum_bond_order
 _atom_site_pbe_magmom
Cu  Cu0  1  0.45097021  0.60888471  0.67020465  1  0  0.632967  0  1.939437  0  0  0.583507  0  2.38411  0  0  0.584371  0  2.345263  0  0  0.601497  0.58467  0  2.408857  0
Cu  Cu1  1  0.54902438  0.39111840  0.32979492  1  0  0.632952  0  1.939197  0  0  0.583467  0  2.383874  0  0  0.584314  0  2.34505  0  0  0.601489  0.584618  0  2.408661  0
H  H2  1  0.81783589  0.51251941  0.15883025  1  0  0.107019  0  0.979519  0  0  0.11688  0  1.047332  0  0  0.118443  0  1.047474  0  0  0.095654  0.115942  0  1.046998  0
H  H3  1  0.18216958  0.48749790  0.84115968  1  0  0.106984  0  0.979693  0  0  0.11685  0  1.04751  0  0  0.118415  0  1.047648  0  0  0.095618  0.115911  0  1.047176  0
H  H4  1  0.87232607  0.77084417  0.43646176  1  0  0.114894  0  0.941366  0  0  0.12433  0  1.006267  0  0  0.127134  0  1.00324  0  0  0.108235  0.122258  0  1.008549  0
H  H5  1  0.12768353  0.22915894  0.56353781  1  0  0.114843  0  0.941491  0  0  0.124275  0  1.006393  0  0  0.127084  0  1.003366  0  0  0.108215  0.122204  0  1.008672  0
H  H6  1  0.75829888  0.06951398  0.41291380  1  0  0.094326  0  0.952362  0  0  0.102506  0  1.016462  0  0  0.10562  0  1.013403  0  0  0.119033  0.100132  0  1.018762  0
H  H7  1  0.24167761  0.93048287  0.58708699  1  0  0.094393  0  0.952233  0  0  0.102566  0  1.016349  0  0  0.105682  0  1.013283  0  0  0.119044  0.100185  0  1.018656  0
H  H8  1  0.39301469  0.55452694  0.06874379  1  0  0.082989  0  0.962057  0  0  0.094434  0  1.029724  0  0  0.098001  0  1.025248  0  0  0.101  0.09184  0  1.03296  0
H  H9  1  0.60700329  0.44547448  0.93126472  1  0  0.08298  0  0.962003  0  0  0.094422  0  1.029689  0  0  0.097989  0  1.025212  0  0  0.100972  0.091823  0  1.032923  0
H  H10  1  0.18266078  0.10054604  0.08001785  1  0  0.069615  0  0.965028  0  0  0.077883  0  1.035588  0  0  0.080567  0  1.032401  0  0  0.111362  0.075997  0  1.037793  0
H  H11  1  0.81733827  0.89946191  0.91997069  1  0  0.069639  0  0.965121  0  0  0.077931  0  1.035648  0  0  0.080608  0  1.032468  0  0  0.11136  0.076045  0  1.037848  0
H  H12  1  0.12161535  0.75231238  0.95306769  1  0  0.109837  0  0.96961  0  0  0.118765  0  1.032056  0  0  0.122095  0  1.031371  0  0  0.10412  0.116342  0  1.032635  0
H  H13  1  0.87839527  0.24768132  0.04693345  1  0  0.109802  0  0.969674  0  0  0.118735  0  1.032104  0  0  0.122063  0  1.031425  0  0  0.104082  0.116313  0  1.032686  0
C  C14  1  0.11838248  0.52756376  0.34959254  1  0  0.684251  0  3.926067  0  0  0.645251  0  4.210545  0  0  0.678754  0  4.204215  0  0  0.190668  0.622323  0  4.214375  0
C  C15  1  0.88158034  0.47241606  0.65039554  1  0  0.684354  0  3.925933  0  0  0.645351  0  4.210412  0  0  0.678851  0  4.204083  0  0  0.190715  0.622425  0  4.214238  0
C  C16  1  0.87385694  0.56088644  0.27089386  1  0  -0.302619  0  3.762161  0  0  -0.327115  0  4.060434  0  0  -0.332094  0  4.06878  0  0  -0.1704  -0.32377  0  4.054289  0
C  C17  1  0.12613914  0.43911199  0.72910465  1  0  -0.30255  0  3.761513  0  0  -0.327061  0  4.059782  0  0  -0.332041  0  4.068131  0  0  -0.170359  -0.323715  0  4.053614  0
C  C18  1  0.77323875  0.69782825  0.32805718  1  0  -0.122134  0  3.758196  0  0  -0.163757  0  4.052523  0  0  -0.155902  0  4.059165  0  0  -0.145557  -0.168838  0  4.048032  0
C  C19  1  0.22678430  0.30216392  0.67194154  1  0  -0.122152  0  3.757913  0  0  -0.163759  0  4.052255  0  0  -0.155919  0  4.058918  0  0  -0.145555  -0.168845  0  4.047762  0
C  C20  1  0.60391755  0.79699927  0.24994335  1  0  0.055204  0  3.789092  0  0  0.085621  0  4.013314  0  0  0.08026  0  4.03884  0  0  -0.005414  0.088686  0  3.996524  0
C  C21  1  0.39609076  0.20299753  0.75006064  1  0  0.055346  0  3.789093  0  0  0.085737  0  4.013359  0  0  0.080378  0  4.038888  0  0  -0.005408  0.0888  0  3.996558  0
C  C22  1  0.62238895  0.99281901  0.31064649  1  0  0.116251  0  3.59097  0  0  0.080242  0  3.832267  0  0  0.086459  0  3.848066  0  0  0.056161  0.076291  0  3.821734  0
C  C23  1  0.37761873  0.00718407  0.68935481  1  0  0.116152  0  3.590983  0  0  0.080125  0  3.832313  0  0  0.086351  0  3.848123  0  0  0.056142  0.076183  0  3.821774  0
C  C24  1  0.41968940  0.70899446  0.11862958  1  0  -0.059317  0  3.696598  0  0  -0.085536  0  3.939575  0  0  -0.081997  0  3.95732  0  0  -0.074105  -0.088008  0  3.927955  0
C  C25  1  0.58031064  0.29100077  0.88137422  1  0  -0.059296  0  3.696558  0  0  -0.085518  0  3.939572  0  0  -0.081974  0  3.957301  0  0  -0.074056  -0.087981  0  3.927944  0
C  C26  1  0.29761755  0.00968974  0.12437130  1  0  0.111838  0  3.705697  0  0  0.080072  0  3.958986  0  0  0.086755  0  3.976261  0  0  0.036263  0.075064  0  3.948454  0
C  C27  1  0.70237306  0.99030548  0.87563424  1  0  0.111716  0  3.705604  0  0  0.079907  0  3.958895  0  0  0.086607  0  3.976174  0  0  0.036185  0.074877  0  3.948406  0
C  C28  1  0.26458478  0.81604779  0.05565325  1  0  -0.130245  0  3.762039  0  0  -0.137882  0  4.009391  0  0  -0.146484  0  4.03376  0  0  -0.092116  -0.132171  0  3.993217  0
C  C29  1  0.73542397  0.18396151  0.94435152  1  0  -0.130241  0  3.762007  0  0  -0.137865  0  4.009351  0  0  -0.146463  0  4.033713  0  0  -0.092096  -0.132155  0  3.993178  0
N  N30  1  0.47585802  0.09774605  0.24947154  1  0  -0.282699  0  3.343352  0  0  -0.218185  0  3.636381  0  0  -0.228492  0  3.644668  0  0  -0.354957  -0.211752  0  3.630722  0
N  N31  1  0.52413248  0.90225241  0.75052524  1  0  -0.282638  0  3.343357  0  0  -0.218079  0  3.636354  0  0  -0.228421  0  3.644674  0  0  -0.354912  -0.211644  0  3.630674  0
O  O32  1  0.25885178  0.64544489  0.46382369  1  0  -0.63242  0  2.075448  0  0  -0.581762  0  2.343735  0  0  -0.603507  0  2.328888  0  0  -0.329504  -0.567047  0  2.353599  0
O  O33  1  0.74113301  0.35454245  0.53618658  1  0  -0.632436  0  2.07587  0  0  -0.581752  0  2.34412  0  0  -0.603494  0  2.329279  0  0  -0.32947  -0.567043  0  2.353991  0
O  O34  1  0.17219866  0.38124411  0.28971832  1  0  -0.649739  0  2.080039  0  0  -0.595228  0  2.36467  0  0  -0.619942  0  2.349463  0  0  -0.351932  -0.577916  0  2.37396  0
O  O35  1  0.82779172  0.61876538  0.71027215  1  0  -0.649865  0  2.07991  0  0  -0.595357  0  2.364527  0  0  -0.620072  0  2.349314  0  0  -0.351975  -0.578043  0  2.373808  0
