# generated using pymatgen
data_CdH24C28N7O4
_symmetry_space_group_name_H-M   'P 1'
_cell_length_a   9.76111822
_cell_length_b   13.49258185
_cell_length_c   22.80973112
_cell_angle_alpha   90.00023151
_cell_angle_beta   89.99937101
_cell_angle_gamma   111.51697826
_symmetry_Int_Tables_number   1
_chemical_formula_structural   CdH24C28N7O4
_chemical_formula_sum   'Cd4 H96 C112 N28 O16'
_cell_volume   2794.74370302
_cell_formula_units_Z   4
loop_
 _symmetry_equiv_pos_site_id
 _symmetry_equiv_pos_as_xyz
  1  'x, y, z'
loop_
 _atom_site_type_symbol
 _atom_site_label
 _atom_site_symmetry_multiplicity
 _atom_site_fract_x
 _atom_site_fract_y
 _atom_site_fract_z
 _atom_site_occupancy
 _atom_site_pbe_bader_charge
 _atom_site_pbe_bader_spin_density
 _atom_site_pbe_cm5_charge
 _atom_site_pbe_ddec_charge
 _atom_site_pbe_ddec_spin_density
 _atom_site_pbe_ddec_sum_bond_order
 _atom_site_pbe_magmom
Cd  Cd0  1  0.07429168  0.40611460  0.71813153  1  1.249457  0  0.782602  0.793305  0  2.27113  0
Cd  Cd1  1  0.42571060  0.59388844  0.21812723  1  1.249628  0  0.782636  0.793387  0  2.271085  0
Cd  Cd2  1  0.92570770  0.59389127  0.28186990  1  1.249504  0  0.782615  0.79343  0  2.271078  0
Cd  Cd3  1  0.57428298  0.40611181  0.78187245  1  1.249588  0  0.782668  0.793424  0  2.271008  0
H  H4  1  0.06634052  0.35869714  0.56171974  1  0.216874  0  0.14317  0.134644  0  0.992563  0
H  H5  1  0.43366334  0.64130507  0.06171288  1  0.216828  0  0.143144  0.134697  0  0.992467  0
H  H6  1  0.93365718  0.64130950  0.43828257  1  0.216841  0  0.143169  0.134693  0  0.992511  0
H  H7  1  0.56634379  0.35869141  0.93828417  1  0.216781  0  0.143156  0.134672  0  0.992533  0
H  H8  1  0.35897651  0.19583456  0.58877354  1  0.10097  0  0.117801  0.115664  0  1.012752  0
H  H9  1  0.14101725  0.80416515  0.08876581  1  0.101131  0  0.117806  0.115599  0  1.012754  0
H  H10  1  0.64101669  0.80417123  0.41123140  1  0.100834  0  0.117797  0.115631  0  1.012685  0
H  H11  1  0.85898871  0.19583527  0.91122773  1  0.100871  0  0.117786  0.115596  0  1.012707  0
H  H12  1  0.30626265  0.27796725  0.69551592  1  0.12323  0  0.108875  0.101689  0  1.074971  0
H  H13  1  0.19372990  0.72203565  0.19551082  1  0.123193  0  0.108851  0.101583  0  1.075081  0
H  H14  1  0.69372951  0.72203853  0.30448682  1  0.123237  0  0.108839  0.101598  0  1.074999  0
H  H15  1  0.80626910  0.27796942  0.80448710  1  0.123135  0  0.108839  0.101608  0  1.075042  0
H  H16  1  0.33604627  0.65463031  0.74907502  1  0.111462  0  0.115159  0.11141  0  1.017471  0
H  H17  1  0.16395625  0.34536642  0.24907442  1  0.111203  0  0.115191  0.111457  0  1.01745  0
H  H18  1  0.66395904  0.34537089  0.25092553  1  0.111181  0  0.115183  0.11141  0  1.017493  0
H  H19  1  0.83603992  0.65463071  0.75092569  1  0.11119  0  0.115187  0.111428  0  1.01748  0
H  H20  1  0.06608716  0.56305652  0.59793040  1  0.251603  0  0.143085  0.131051  0  1.024106  0
H  H21  1  0.43390675  0.43694398  0.09792525  1  0.251367  0  0.143038  0.13099  0  1.024254  0
H  H22  1  0.93390295  0.43694289  0.40207410  1  0.251408  0  0.143058  0.131007  0  1.024238  0
H  H23  1  0.56608890  0.56305630  0.90207442  1  0.251456  0  0.143064  0.131043  0  1.024266  0
H  H24  1  0.38327361  0.83251706  0.67847631  1  0.067548  0  0.108276  0.101825  0  1.050795  0
H  H25  1  0.11674440  0.16747827  0.17847594  1  0.067544  0  0.108342  0.101883  0  1.050736  0
H  H26  1  0.61673816  0.16748265  0.32152293  1  0.067612  0  0.108299  0.101855  0  1.050778  0
H  H27  1  0.88325757  0.83251814  0.82152330  1  0.067645  0  0.108314  0.1019  0  1.050758  0
H  H28  1  0.12755996  0.73060684  0.54586540  1  0.15176  0  0.130441  0.140846  0  0.965888  0
H  H29  1  0.37244085  0.26938187  0.04586277  1  0.151053  0  0.130463  0.140862  0  0.96593  0
H  H30  1  0.87243492  0.26939184  0.45413735  1  0.151104  0  0.130408  0.140803  0  0.965884  0
H  H31  1  0.62755738  0.73061528  0.95413691  1  0.151539  0  0.130455  0.140885  0  0.965869  0
H  H32  1  0.28189770  0.84551760  0.56661378  1  0.044209  0  0.108557  0.093122  0  0.963672  0
H  H33  1  0.21810192  0.15447822  0.06661072  1  0.044117  0  0.108579  0.093143  0  0.963668  0
H  H34  1  0.71810181  0.15448432  0.43338941  1  0.044206  0  0.108563  0.093105  0  0.963661  0
H  H35  1  0.78189335  0.84552126  0.93338765  1  0.044416  0  0.108577  0.093152  0  0.963673  0
H  H36  1  0.23595897  0.99160422  0.61296620  1  0.045048  0  0.091783  0.081501  0  1.041371  0
H  H37  1  0.26404719  0.00838854  0.11296171  1  0.045037  0  0.091789  0.08149  0  1.041252  0
H  H38  1  0.76405073  0.00839546  0.38704312  1  0.045036  0  0.091784  0.081476  0  1.041305  0
H  H39  1  0.73595362  0.99160548  0.88703359  1  0.0451  0  0.091793  0.081509  0  1.041275  0
H  H40  1  0.07673878  0.06314416  0.66802268  1  0.114885  0  0.096151  0.095943  0  1.048106  0
H  H41  1  0.42326738  0.93684942  0.16801613  1  0.114984  0  0.096119  0.095907  0  1.048115  0
H  H42  1  0.92326306  0.93684987  0.33198752  1  0.1155  0  0.096148  0.095994  0  1.048113  0
H  H43  1  0.57673833  0.06314625  0.83197522  1  0.114878  0  0.096156  0.09595  0  1.048092  0
H  H44  1  0.73981845  0.74795033  0.67558362  1  0.081388  0  0.099357  0.099805  0  1.019058  0
H  H45  1  0.76017304  0.25204877  0.17558411  1  0.081472  0  0.099397  0.099822  0  1.019099  0
H  H46  1  0.26017153  0.25204671  0.32441518  1  0.081453  0  0.099413  0.099839  0  1.019077  0
H  H47  1  0.23981578  0.74794588  0.82441732  1  0.081338  0  0.099377  0.099846  0  1.019109  0
H  H48  1  0.90328808  0.67662447  0.62056760  1  0.14217  0  0.103764  0.105828  0  1.045381  0
H  H49  1  0.59670251  0.32336985  0.12056902  1  0.142056  0  0.103775  0.105825  0  1.045387  0
H  H50  1  0.09670641  0.32337342  0.37943076  1  0.142013  0  0.103753  0.10581  0  1.045351  0
H  H51  1  0.40328875  0.67662563  0.87943416  1  0.142155  0  0.103751  0.105826  0  1.045347  0
H  H52  1  0.83861341  0.16403013  0.67502241  1  0.155573  0  0.140378  0.107838  0  0.985741  0
H  H53  1  0.66139201  0.83597232  0.17501642  1  0.155388  0  0.140401  0.107867  0  0.985674  0
H  H54  1  0.16138288  0.83596937  0.32497595  1  0.155616  0  0.140354  0.107756  0  0.985622  0
H  H55  1  0.33861060  0.16402331  0.82498107  1  0.155534  0  0.140397  0.107874  0  0.985739  0
H  H56  1  0.95228136  0.00198655  0.81446682  1  0.061993  0  0.116457  0.110632  0  1.034896  0
H  H57  1  0.54773234  0.99801290  0.31446525  1  0.061693  0  0.116445  0.110597  0  1.034829  0
H  H58  1  0.04771956  0.99802250  0.18553417  1  0.061855  0  0.116484  0.110601  0  1.034884  0
H  H59  1  0.45227440  0.00198279  0.68553223  1  0.061924  0  0.116465  0.110635  0  1.034927  0
H  H60  1  0.08650096  0.22138116  0.83091604  1  0.102432  0  0.123042  0.119521  0  1.002149  0
H  H61  1  0.41350693  0.77862041  0.33091267  1  0.102526  0  0.123065  0.119528  0  1.002157  0
H  H62  1  0.91349596  0.77863021  0.16908233  1  0.102245  0  0.123057  0.119478  0  1.002116  0
H  H63  1  0.58649852  0.22137683  0.66908525  1  0.102286  0  0.123062  0.119535  0  1.002153  0
H  H64  1  0.71404441  0.96424832  0.67732224  1  0.067395  0  0.114265  0.094948  0  0.967767  0
H  H65  1  0.78595928  0.03575490  0.17731945  1  0.067405  0  0.114272  0.095043  0  0.967687  0
H  H66  1  0.28595202  0.03574722  0.32267876  1  0.067371  0  0.114277  0.094977  0  0.967763  0
H  H67  1  0.21403753  0.96424144  0.82267672  1  0.067566  0  0.114259  0.095  0  0.967687  0
H  H68  1  0.72746816  0.89349409  0.74103265  1  0.101621  0  0.1145  0.100403  0  0.983115  0
H  H69  1  0.77253428  0.10650993  0.24102878  1  0.101415  0  0.114524  0.10042  0  0.983101  0
H  H70  1  0.27253316  0.10650943  0.25897273  1  0.101457  0  0.11451  0.100393  0  0.983103  0
H  H71  1  0.22746911  0.89348729  0.75896651  1  0.101558  0  0.114508  0.100385  0  0.983156  0
H  H72  1  0.28964260  0.24021368  0.47746819  1  0.070683  0  0.111921  0.099659  0  0.969569  0
H  H73  1  0.21036345  0.75978555  0.97746305  1  0.070383  0  0.111917  0.099616  0  0.969555  0
H  H74  1  0.71035949  0.75979777  0.52253236  1  0.07061  0  0.111869  0.0996  0  0.969555  0
H  H75  1  0.78963569  0.24020291  0.02253137  1  0.070692  0  0.11191  0.099704  0  0.969505  0
H  H76  1  0.13230464  0.27606753  0.47505691  1  0.157385  0  0.116924  0.111977  0  1.034938  0
H  H77  1  0.36769927  0.72393563  0.97505051  1  0.157263  0  0.116908  0.111944  0  1.034877  0
H  H78  1  0.86769087  0.72393671  0.52494759  1  0.15738  0  0.116921  0.111956  0  1.034972  0
H  H79  1  0.63230618  0.27606162  0.02494566  1  0.157422  0  0.116912  0.111982  0  1.034986  0
H  H80  1  0.90561475  0.13231093  0.54230386  1  0.038656  0  0.103978  0.105542  0  0.992953  0
H  H81  1  0.59438224  0.86768819  0.04229782  1  0.038768  0  0.103974  0.105534  0  0.992977  0
H  H82  1  0.09439121  0.86769582  0.45770152  1  0.038781  0  0.103995  0.105585  0  0.992981  0
H  H83  1  0.40560980  0.13230888  0.95769485  1  0.038629  0  0.103975  0.105549  0  0.992987  0
H  H84  1  0.24906993  0.06062358  0.45549368  1  0.043593  0  0.095036  0.090856  0  1.0069  0
H  H85  1  0.25093268  0.93937797  0.95548615  1  0.043502  0  0.095075  0.090927  0  1.006855  0
H  H86  1  0.75093950  0.93938401  0.54451214  1  0.043472  0  0.095067  0.090869  0  1.006889  0
H  H87  1  0.74906026  0.06061673  0.04450696  1  0.043695  0  0.095018  0.090795  0  1.006942  0
H  H88  1  0.91298557  0.52027010  0.80042791  1  0.120827  0  0.107181  0.079543  0  1.07102  0
H  H89  1  0.58702267  0.47974273  0.30042054  1  0.12071  0  0.107208  0.079528  0  1.070983  0
H  H90  1  0.08702567  0.47973910  0.19957352  1  0.120762  0  0.10722  0.079591  0  1.071007  0
H  H91  1  0.41297491  0.52026154  0.69957914  1  0.120733  0  0.10722  0.07957  0  1.070979  0
H  H92  1  0.90484647  0.58103780  0.90528193  1  0.099718  0  0.106476  0.119255  0  1.014783  0
H  H93  1  0.59517067  0.41898626  0.40527569  1  0.099663  0  0.106479  0.119255  0  1.014861  0
H  H94  1  0.09517276  0.41897308  0.09471906  1  0.0997  0  0.106494  0.119277  0  1.014656  0
H  H95  1  0.40483619  0.58102446  0.59472442  1  0.099781  0  0.10646  0.11922  0  1.01486  0
H  H96  1  0.08508508  0.55757507  0.97637541  1  0.073317  0  0.107202  0.106615  0  1.008772  0
H  H97  1  0.41492241  0.44243763  0.47636905  1  0.073361  0  0.10721  0.106655  0  1.008783  0
H  H98  1  0.91492746  0.44242623  0.02362558  1  0.072729  0  0.107196  0.106654  0  1.008707  0
H  H99  1  0.58508007  0.55756828  0.52363107  1  0.073343  0  0.107248  0.106673  0  1.008859  0
C  C100  1  0.13504334  0.32412206  0.58535813  1  0.944187  0  0.146467  0.100192  0  3.861984  0
C  C101  1  0.36495733  0.67588328  0.08535343  1  0.944185  0  0.146444  0.099967  0  3.86206  0
C  C102  1  0.86495758  0.67588699  0.41464330  1  0.944341  0  0.146463  0.100021  0  3.86209  0
C  C103  1  0.63504348  0.32411707  0.91464361  1  0.944355  0  0.146495  0.100123  0  3.862085  0
C  C104  1  0.28970803  0.23987194  0.60021580  1  0.305544  0  -0.009733  -0.119933  0  3.946603  0
C  C105  1  0.21028995  0.76012862  0.10020940  1  0.305832  0  -0.009713  -0.119798  0  3.946727  0
C  C106  1  0.71028684  0.76013308  0.39978738  1  0.305994  0  -0.009717  -0.119903  0  3.94653  0
C  C107  1  0.78971318  0.23987017  0.89978502  1  0.305582  0  -0.009718  -0.119797  0  3.946461  0
C  C108  1  0.26208470  0.28001313  0.65226256  1  0.380766  0  -0.014064  -0.037372  0  4.030156  0
C  C109  1  0.23791335  0.71998825  0.15225725  1  0.380427  0  -0.014027  -0.037353  0  4.03014  0
C  C110  1  0.73791545  0.71999434  0.34773887  1  0.380264  0  -0.014036  -0.037328  0  4.029945  0
C  C111  1  0.76208539  0.28001208  0.84773893  1  0.380796  0  -0.014086  -0.037432  0  4.030256  0
C  C112  1  0.28636846  0.66191735  0.70761346  1  0.426805  0  -0.00876  -0.041484  0  4.055309  0
C  C113  1  0.21363242  0.33808012  0.20761129  1  0.427229  0  -0.008843  -0.041649  0  4.055364  0
C  C114  1  0.71363325  0.33808063  0.29238754  1  0.427357  0  -0.008807  -0.04147  0  4.055422  0
C  C115  1  0.78635949  0.66191457  0.79238663  1  0.427407  0  -0.008739  -0.041456  0  4.055241  0
C  C116  1  0.14582173  0.60919956  0.63046156  1  0.945709  0  0.155775  0.12011  0  3.840173  0
C  C117  1  0.35418179  0.39079713  0.13045580  1  0.94572  0  0.155855  0.120268  0  3.839986  0
C  C118  1  0.85417675  0.39080234  0.36954075  1  0.945822  0  0.155816  0.120271  0  3.840119  0
C  C119  1  0.64581296  0.60919918  0.86954300  1  0.945654  0  0.155817  0.120157  0  3.840036  0
C  C120  1  0.31157037  0.75014504  0.67301993  1  0.23973  0  -0.01797  -0.142565  0  3.991496  0
C  C121  1  0.18844495  0.24984866  0.17301943  1  0.239174  0  -0.017982  -0.142524  0  3.991325  0
C  C122  1  0.68844191  0.24985151  0.32697931  1  0.239428  0  -0.017982  -0.14259  0  3.991454  0
C  C123  1  0.81155586  0.75014536  0.82698025  1  0.239536  0  -0.017998  -0.142669  0  3.99127  0
C  C124  1  0.18170955  0.78252548  0.58281579  1  0.286957  0  -0.041899  -0.116009  0  3.87161  0
C  C125  1  0.31829262  0.21746800  0.08281417  1  0.287571  0  -0.041948  -0.116068  0  3.87168  0
C  C126  1  0.81829332  0.21747489  0.41718695  1  0.28754  0  -0.041865  -0.115886  0  3.871506  0
C  C127  1  0.68170690  0.78252758  0.91718551  1  0.286772  0  -0.041922  -0.116118  0  3.871727  0
C  C128  1  0.08162618  0.82896325  0.61383574  1  -0.10502  0  -0.013325  0.081525  0  3.976465  0
C  C129  1  0.41837094  0.17102781  0.11383441  1  -0.104951  0  -0.013231  0.081604  0  3.976374  0
C  C130  1  0.91837257  0.17103707  0.38616876  1  -0.105123  0  -0.013281  0.081581  0  3.976604  0
C  C131  1  0.58162562  0.82896378  0.88616702  1  -0.10497  0  -0.013299  0.081619  0  3.976527  0
C  C132  1  0.12794462  0.93725073  0.62742426  1  0.00076  0  -0.09635  -0.136748  0  4.026282  0
C  C133  1  0.37205834  0.06274041  0.12741982  1  0.000575  0  -0.096417  -0.136849  0  4.026234  0
C  C134  1  0.87205683  0.06274884  0.37258024  1  0.001164  0  -0.096297  -0.136692  0  4.026084  0
C  C135  1  0.62793861  0.93725197  0.87257679  1  0.000994  0  -0.096318  -0.136708  0  4.026169  0
C  C136  1  0.03708000  0.97797683  0.65855772  1  -0.127472  0  -0.101066  -0.138756  0  4.00457  0
C  C137  1  0.46292512  0.02201831  0.15855189  1  -0.126982  0  -0.101055  -0.138604  0  4.004504  0
C  C138  1  0.96292300  0.02201959  0.34145336  1  -0.127919  0  -0.101182  -0.138901  0  4.004636  0
C  C139  1  0.53707595  0.97797413  0.84144122  1  -0.127999  0  -0.101107  -0.138816  0  4.004573  0
C  C140  1  0.89695660  0.91022955  0.67634716  1  -0.054864  0  -0.022131  0.068633  0  3.993173  0
C  C141  1  0.60304351  0.08977046  0.17634624  1  -0.055532  0  -0.022135  0.068639  0  3.993188  0
C  C142  1  0.10304008  0.08977075  0.32365646  1  -0.055417  0  -0.022137  0.06868  0  3.993155  0
C  C143  1  0.39695356  0.91022430  0.82365256  1  -0.054517  0  -0.022178  0.068583  0  3.993155  0
C  C144  1  0.84950039  0.80158801  0.66241011  1  -0.002949  0  -0.094567  -0.132797  0  3.988999  0
C  C145  1  0.65049582  0.19840956  0.16240966  1  -0.002974  0  -0.094594  -0.132851  0  3.989064  0
C  C146  1  0.15049616  0.19840990  0.33759133  1  -0.002952  0  -0.09464  -0.13292  0  3.989198  0
C  C147  1  0.34949635  0.80158355  0.83759133  1  -0.003235  0  -0.094594  -0.13284  0  3.989153  0
C  C148  1  0.94109999  0.76112269  0.63193513  1  -0.080655  0  -0.08878  -0.12143  0  3.957994  0
C  C149  1  0.55889405  0.23887089  0.13193390  1  -0.080406  0  -0.088841  -0.121438  0  3.957908  0
C  C150  1  0.05889579  0.23887364  0.36806718  1  -0.080454  0  -0.088796  -0.121417  0  3.958074  0
C  C151  1  0.44110070  0.76112542  0.86806710  1  -0.080436  0  -0.088782  -0.121493  0  3.958101  0
C  C152  1  0.88738976  0.15101034  0.71564749  1  0.970012  0  0.147307  0.090174  0  3.924549  0
C  C153  1  0.61261913  0.84899297  0.21564482  1  0.969955  0  0.14727  0.089949  0  3.924562  0
C  C154  1  0.11260357  0.84899149  0.28435044  1  0.970346  0  0.14745  0.090429  0  3.924488  0
C  C155  1  0.38738838  0.15100431  0.78435442  1  0.97001  0  0.147297  0.090071  0  3.924563  0
C  C156  1  0.94963800  0.06842397  0.78858059  1  0.336982  0  -0.006333  -0.125224  0  3.96053  0
C  C157  1  0.55037197  0.93157700  0.28857797  1  0.337868  0  -0.006199  -0.125116  0  3.960415  0
C  C158  1  0.05035557  0.93158261  0.21141997  1  0.337012  0  -0.006344  -0.125176  0  3.960405  0
C  C159  1  0.44962896  0.06841939  0.71141689  1  0.337383  0  -0.006287  -0.125065  0  3.960578  0
C  C160  1  0.01495055  0.17679121  0.79598457  1  0.417753  0  0.004207  -0.02397  0  3.998879  0
C  C161  1  0.48505605  0.82320795  0.29598141  1  0.417525  0  0.0041  -0.024066  0  3.999044  0
C  C162  1  0.98504586  0.82321699  0.20401379  1  0.418217  0  0.004258  -0.023808  0  3.998768  0
C  C163  1  0.51495069  0.17678773  0.70401695  1  0.418027  0  0.004099  -0.024187  0  3.999017  0
C  C164  1  0.79267972  0.95162211  0.70832021  1  0.280058  0  -0.040302  -0.104064  0  3.919381  0
C  C165  1  0.70732420  0.04838112  0.20831695  1  0.280771  0  -0.040256  -0.104153  0  3.919247  0
C  C166  1  0.20731941  0.04837901  0.29168298  1  0.280791  0  -0.0402  -0.10392  0  3.919194  0
C  C167  1  0.29267815  0.95161608  0.79168010  1  0.280535  0  -0.040224  -0.103956  0  3.919306  0
C  C168  1  0.18322921  0.22717773  0.49854452  1  0.248634  0  -0.049087  -0.130052  0  3.904013  0
C  C169  1  0.31677410  0.77282543  0.99853803  1  0.248881  0  -0.049103  -0.129955  0  3.903695  0
C  C170  1  0.81677377  0.77283136  0.50145955  1  0.248752  0  -0.049078  -0.130028  0  3.903865  0
C  C171  1  0.68322413  0.22717172  0.00145770  1  0.248656  0  -0.049151  -0.130257  0  3.903968  0
C  C172  1  0.08820409  0.10982477  0.49865552  1  -0.03012  0  -0.010438  0.094863  0  3.969157  0
C  C173  1  0.41179626  0.89017439  0.99864887  1  -0.029667  0  -0.010364  0.095016  0  3.969104  0
C  C174  1  0.91180225  0.89018277  0.50134942  1  -0.029736  0  -0.010455  0.09495  0  3.96901  0
C  C175  1  0.58819450  0.10981791  0.00134599  1  -0.030076  0  -0.010372  0.09504  0  3.968804  0
C  C176  1  0.94740361  0.07427339  0.52368752  1  -0.047607  0  -0.091273  -0.126451  0  3.980309  0
C  C177  1  0.55259914  0.92572818  0.02368049  1  -0.048017  0  -0.091309  -0.126626  0  3.980359  0
C  C178  1  0.05260724  0.92573501  0.47631874  1  -0.047943  0  -0.09122  -0.12651  0  3.980315  0
C  C179  1  0.44739484  0.07426654  0.97631042  1  -0.047731  0  -0.091347  -0.126632  0  3.980398  0
C  C180  1  0.13939627  0.03402995  0.47511711  1  -0.008452  0  -0.094824  -0.135807  0  4.014029  0
C  C181  1  0.36060301  0.96596998  0.97511263  1  -0.008461  0  -0.094854  -0.135938  0  4.014262  0
C  C182  1  0.86060904  0.96597758  0.52488520  1  -0.008478  0  -0.094834  -0.135911  0  4.0141  0
C  C183  1  0.63939019  0.03402315  0.02488135  1  -0.008464  0  -0.094729  -0.135643  0  4.013892  0
C  C184  1  0.99034854  0.51498061  0.83339435  1  0.455007  0  0.029568  0.071956  0  3.986655  0
C  C185  1  0.50966181  0.48503621  0.33338999  1  0.454188  0  0.029482  0.071935  0  3.986863  0
C  C186  1  0.00966437  0.48502781  0.16660620  1  0.455175  0  0.029419  0.071681  0  3.986989  0
C  C187  1  0.49034079  0.51497208  0.66660925  1  0.45461  0  0.029438  0.071802  0  3.986845  0
C  C188  1  0.98576904  0.54756779  0.89132231  1  0.005227  0  -0.086437  -0.118251  0  3.973787  0
C  C189  1  0.51423880  0.45244902  0.39131828  1  0.006046  0  -0.086329  -0.118062  0  3.973996  0
C  C190  1  0.01424220  0.45244141  0.10867824  1  0.005231  0  -0.086405  -0.118115  0  3.973832  0
C  C191  1  0.48576484  0.54755928  0.60868096  1  0.005167  0  -0.086338  -0.118029  0  3.973901  0
C  C192  1  0.08442384  0.53294448  0.93080536  1  -0.094067  0  -0.072323  -0.072834  0  3.949924  0
C  C193  1  0.41557322  0.46706332  0.43079993  1  -0.094381  0  -0.072342  -0.072872  0  3.950122  0
C  C194  1  0.91557826  0.46705431  0.06919564  1  -0.093369  0  -0.072293  -0.072819  0  3.950073  0
C  C195  1  0.58442668  0.53293939  0.56919931  1  -0.093767  0  -0.072373  -0.072932  0  3.950161  0
C  C196  1  0.18593191  0.48674277  0.91320556  1  4.2e-05  0  0.000157  -0.050147  0  3.892256  0
C  C197  1  0.31406199  0.51326181  0.41320203  1  0.000206  0  0.000173  -0.050251  0  3.89263  0
C  C198  1  0.81406864  0.51325282  0.08679675  1  3.7e-05  0  0.000206  -0.050166  0  3.892482  0
C  C199  1  0.68593546  0.48674008  0.58679765  1  0.000169  0  0.000222  -0.050113  0  3.892493  0
C  C200  1  0.18544543  0.45914386  0.85367743  1  0.488349  0  0.095978  0.052677  0  3.939009  0
C  C201  1  0.31455129  0.54085916  0.35367527  1  0.487606  0  0.095948  0.052818  0  3.938692  0
C  C202  1  0.81455731  0.54085415  0.14632401  1  0.487939  0  0.09603  0.052766  0  3.939005  0
C  C203  1  0.68544513  0.45913638  0.64632572  1  0.487742  0  0.096001  0.052774  0  3.938752  0
C  C204  1  0.28931410  0.47872940  0.96128873  1  1.696806  0  0.180713  0.577194  0  4.337354  0
C  C205  1  0.21068102  0.52126967  0.46128527  1  1.697127  0  0.180646  0.57718  0  4.337588  0
C  C206  1  0.71068659  0.52126224  0.03871270  1  1.697567  0  0.180664  0.577099  0  4.337583  0
C  C207  1  0.78932145  0.47873624  0.53871485  1  1.697029  0  0.180623  0.577091  0  4.337778  0
C  C208  1  0.29689530  0.41836803  0.82724585  1  1.533476  0  0.185234  0.513411  0  4.272666  0
C  C209  1  0.20309502  0.58163093  0.32724388  1  1.533581  0  0.185207  0.513351  0  4.272607  0
C  C210  1  0.70310203  0.58162515  0.17275514  1  1.534  0  0.185236  0.513471  0  4.272791  0
C  C211  1  0.79689714  0.41836851  0.67275667  1  1.533442  0  0.185209  0.513435  0  4.27279  0
N  N212  1  0.16602087  0.33202631  0.64238329  1  -1.215222  0  -0.360751  -0.29663  0  3.526044  0
N  N213  1  0.33397653  0.66797743  0.14237740  1  -1.215097  0  -0.360745  -0.296492  0  3.526047  0
N  N214  1  0.83397709  0.66797875  0.35761902  1  -1.215099  0  -0.360733  -0.296553  0  3.526041  0
N  N215  1  0.66602260  0.33202369  0.85761877  1  -1.215176  0  -0.360745  -0.296613  0  3.526105  0
N  N216  1  0.20886393  0.26854117  0.55828041  1  -1.222389  0  -0.246312  0.039903  0  3.778444  0
N  N217  1  0.29113551  0.73146019  0.05827400  1  -1.222507  0  -0.246314  0.039952  0  3.778454  0
N  N218  1  0.79113596  0.73146787  0.44172277  1  -1.222523  0  -0.246313  0.040015  0  3.778369  0
N  N219  1  0.70886620  0.26853780  0.94172217  1  -1.222446  0  -0.246254  0.040058  0  3.778253  0
N  N220  1  0.18251603  0.57513882  0.68074612  1  -1.20325  0  -0.36085  -0.290522  0  3.517729  0
N  N221  1  0.31748335  0.42486258  0.18074411  1  -1.203267  0  -0.36085  -0.290512  0  3.517338  0
N  N222  1  0.81748065  0.42486147  0.31925444  1  -1.20344  0  -0.360899  -0.290673  0  3.517624  0
N  N223  1  0.68251668  0.57513617  0.81925601  1  -1.203418  0  -0.360902  -0.29056  0  3.517544  0
N  N224  1  0.22236506  0.71526465  0.62428038  1  -1.206696  0  -0.242464  0.050346  0  3.75574  0
N  N225  1  0.27763734  0.28472727  0.12427779  1  -1.205874  0  -0.242513  0.050245  0  3.755831  0
N  N226  1  0.77763704  0.28473413  0.37572062  1  -1.206436  0  -0.242414  0.050274  0  3.755594  0
N  N227  1  0.72236218  0.71526831  0.87572189  1  -1.20645  0  -0.242503  0.050322  0  3.755614  0
N  N228  1  0.86793521  0.05304845  0.73752229  1  -1.216362  0  -0.246145  0.03975  0  3.801628  0
N  N229  1  0.63207209  0.94695484  0.23752020  1  -1.2171  0  -0.246291  0.039685  0  3.801781  0
N  N230  1  0.13206443  0.94695584  0.26247695  1  -1.21725  0  -0.246378  0.039395  0  3.801751  0
N  N231  1  0.36793027  0.05304236  0.76247728  1  -1.217496  0  -0.246295  0.039454  0  3.801898  0
N  N232  1  0.97473335  0.22703331  0.75018439  1  -1.204679  0  -0.345911  -0.267128  0  3.501594  0
N  N233  1  0.52527491  0.77296841  0.25018151  1  -1.204654  0  -0.345836  -0.266907  0  3.501705  0
N  N234  1  0.02525804  0.77297086  0.24981222  1  -1.204856  0  -0.345972  -0.267303  0  3.501953  0
N  N235  1  0.47472848  0.22702881  0.74981685  1  -1.204503  0  -0.345794  -0.266859  0  3.501364  0
N  N236  1  0.08760119  0.47303407  0.81539357  1  -1.247363  0  -0.330399  -0.259552  0  3.538564  0
N  N237  1  0.41240167  0.52697534  0.31538961  1  -1.246346  0  -0.330457  -0.259747  0  3.538527  0
N  N238  1  0.91240413  0.52696713  0.18460742  1  -1.24735  0  -0.330417  -0.259615  0  3.53863  0
N  N239  1  0.58759539  0.47302575  0.68461050  1  -1.246756  0  -0.330441  -0.2597  0  3.538509  0
O  O240  1  0.40150372  0.56408371  0.96739781  1  -1.18401  0  -0.338804  -0.581977  0  2.127856  0
O  O241  1  0.09849459  0.43591383  0.46739598  1  -1.184012  0  -0.338786  -0.581958  0  2.127867  0
O  O242  1  0.59849567  0.43590950  0.03260231  1  -1.184088  0  -0.338832  -0.581958  0  2.127878  0
O  O243  1  0.90150865  0.56409367  0.53260896  1  -1.183771  0  -0.338831  -0.581975  0  2.127762  0
O  O244  1  0.24552429  0.39625783  0.99244693  1  -1.188062  0  -0.368939  -0.593171  0  2.051854  0
O  O245  1  0.25446114  0.60373559  0.49244609  1  -1.188474  0  -0.368918  -0.593156  0  2.051925  0
O  O246  1  0.75446557  0.60373050  0.00755231  1  -1.188659  0  -0.368925  -0.593132  0  2.051918  0
O  O247  1  0.74554816  0.39626962  0.50755403  1  -1.188473  0  -0.368894  -0.593111  0  2.052174  0
O  O248  1  0.38508052  0.39624096  0.86061954  1  -1.163218  0  -0.317566  -0.526761  0  2.199038  0
O  O249  1  0.11491294  0.60376201  0.36061496  1  -1.163071  0  -0.317595  -0.526789  0  2.199189  0
O  O250  1  0.61491037  0.60374738  0.13938277  1  -1.163655  0  -0.317614  -0.526842  0  2.199258  0
O  O251  1  0.88507858  0.39623822  0.63938472  1  -1.1631  0  -0.317603  -0.526805  0  2.199121  0
O  O252  1  0.30005858  0.41106474  0.77120265  1  -1.154216  0  -0.333986  -0.564482  0  2.288  0
O  O253  1  0.19994337  0.58893831  0.27119940  1  -1.154338  0  -0.333899  -0.564419  0  2.287927  0
O  O254  1  0.69994815  0.58893727  0.22879790  1  -1.15421  0  -0.333936  -0.564488  0  2.288027  0
O  O255  1  0.80005795  0.41106521  0.72880028  1  -1.15423  0  -0.333929  -0.564477  0  2.288023  0
