# generated using pymatgen
data_CdH11C14NO6
_symmetry_space_group_name_H-M   'P 1'
_cell_length_a   7.03522727
_cell_length_b   9.27799284
_cell_length_c   12.10312288
_cell_angle_alpha   74.62308084
_cell_angle_beta   80.49026585
_cell_angle_gamma   72.12659438
_symmetry_Int_Tables_number   1
_chemical_formula_structural   CdH11C14NO6
_chemical_formula_sum   'Cd2 H22 C28 N2 O12'
_cell_volume   721.92976272
_cell_formula_units_Z   2
loop_
 _symmetry_equiv_pos_site_id
 _symmetry_equiv_pos_as_xyz
  1  'x, y, z'
loop_
 _atom_site_type_symbol
 _atom_site_label
 _atom_site_symmetry_multiplicity
 _atom_site_fract_x
 _atom_site_fract_y
 _atom_site_fract_z
 _atom_site_occupancy
 _atom_site_hle17_bader_spin_density
 _atom_site_hle17_ddec_charge
 _atom_site_hle17_ddec_spin_density
 _atom_site_hle17_ddec_sum_bond_order
 _atom_site_hle17_magmom
 _atom_site_hse06_10hf_bader_spin_density
 _atom_site_hse06_10hf_ddec_charge
 _atom_site_hse06_10hf_ddec_spin_density
 _atom_site_hse06_10hf_ddec_sum_bond_order
 _atom_site_hse06_10hf_magmom
 _atom_site_hse06_bader_spin_density
 _atom_site_hse06_ddec_charge
 _atom_site_hse06_ddec_spin_density
 _atom_site_hse06_ddec_sum_bond_order
 _atom_site_hse06_magmom
 _atom_site_pbe_bader_spin_density
 _atom_site_pbe_cm5_charge
 _atom_site_pbe_ddec_charge
 _atom_site_pbe_ddec_spin_density
 _atom_site_pbe_ddec_sum_bond_order
 _atom_site_pbe_magmom
Cd  Cd0  1  0.60276019  0.59741513  0.85315430  1  0  1.195419  0  1.619151  0  0  1.012212  0  2.057009  0  0  1.068024  0  2.002413  0  0  0.774038  0.972862  0  2.09419  0
Cd  Cd1  1  0.39724485  0.40258032  0.14684959  1  0  1.195456  0  1.619072  0  0  1.012237  0  2.056939  0  0  1.068051  0  2.002343  0  0  0.774045  0.97289  0  2.09412  0
H  H2  1  0.59145379  0.24046545  0.96574354  1  0  0.381364  0  0.917332  0  0  0.354472  0  0.991012  0  0  0.365686  0  0.979011  0  0  0.295347  0.346483  0  0.999455  0
H  H3  1  0.40854260  0.75953817  0.03426111  1  0  0.381544  0  0.917125  0  0  0.354631  0  0.990816  0  0  0.365867  0  0.978782  0  0  0.29538  0.346638  0  0.999268  0
H  H4  1  0.24667296  0.45519610  0.92512060  1  0  0.436917  0  0.798675  0  0  0.416666  0  0.853468  0  0  0.426023  0  0.843438  0  0  0.323332  0.410013  0  0.860675  0
H  H5  1  0.75333061  0.54480277  0.07488853  1  0  0.436832  0  0.798724  0  0  0.416582  0  0.853526  0  0  0.42594  0  0.843493  0  0  0.323272  0.409928  0  0.860733  0
H  H6  1  0.17413019  0.62315764  0.95093039  1  0  0.426156  0  0.88668  0  0  0.388805  0  0.960196  0  0  0.402308  0  0.940931  0  0  0.283384  0.379324  0  0.973723  0
H  H7  1  0.82586720  0.37684370  0.04907048  1  0  0.426182  0  0.886642  0  0  0.38883  0  0.960158  0  0  0.402333  0  0.940894  0  0  0.283395  0.379349  0  0.973687  0
H  H8  1  0.80554436  0.04174373  0.05549769  1  0  0.079588  0  0.928106  0  0  0.093277  0  0.993833  0  0  0.094573  0  0.991293  0  0  0.111698  0.092044  0  0.996151  0
H  H9  1  0.19445707  0.95826342  0.94449680  1  0  0.079633  0  0.927994  0  0  0.093303  0  0.993796  0  0  0.094628  0  0.991223  0  0  0.111716  0.092064  0  0.99611  0
H  H10  1  0.60339402  0.95485361  0.09356350  1  0  0.070263  0  0.922751  0  0  0.082139  0  0.98958  0  0  0.082942  0  0.988613  0  0  0.102167  0.08155  0  0.990128  0
H  H11  1  0.39660943  0.04514648  0.90643962  1  0  0.070174  0  0.922742  0  0  0.082144  0  0.989523  0  0  0.082946  0  0.988561  0  0  0.102156  0.081547  0  0.990071  0
H  H12  1  0.81506934  0.80625901  0.26159747  1  0  0.118661  0  0.915178  0  0  0.135109  0  0.960024  0  0  0.13813  0  0.959804  0  0  0.117596  0.132906  0  0.960378  0
H  H13  1  0.18494543  0.19373875  0.73839694  1  0  0.118742  0  0.91514  0  0  0.135155  0  0.960017  0  0  0.138173  0  0.959797  0  0  0.117611  0.132952  0  0.960372  0
H  H14  1  0.86414127  0.80192110  0.45986654  1  0  0.100555  0  0.934899  0  0  0.117332  0  0.984649  0  0  0.119619  0  0.983144  0  0  0.113874  0.115613  0  0.985829  0
H  H15  1  0.13585618  0.19807216  0.54013257  1  0  0.100553  0  0.934849  0  0  0.11731  0  0.984623  0  0  0.119596  0  0.983116  0  0  0.113847  0.11559  0  0.985809  0
H  H16  1  0.54177602  0.29141593  0.39397859  1  0  0.096052  0  0.973462  0  0  0.104389  0  1.038661  0  0  0.107315  0  1.035431  0  0  0.1171  0.102443  0  1.040485  0
H  H17  1  0.45823327  0.70857604  0.60602232  1  0  0.096083  0  0.973334  0  0  0.104387  0  1.038595  0  0  0.10731  0  1.035373  0  0  0.117131  0.102464  0  1.040387  0
H  H18  1  0.84402845  0.80093375  0.62469657  1  0  0.100734  0  0.956602  0  0  0.110278  0  1.020364  0  0  0.113919  0  1.017045  0  0  0.106259  0.107651  0  1.022835  0
H  H19  1  0.15596471  0.19907233  0.37529877  1  0  0.100726  0  0.956595  0  0  0.110247  0  1.020395  0  0  0.113904  0  1.017057  0  0  0.106232  0.107644  0  1.022838  0
H  H20  1  0.82411147  0.05719841  0.87315234  1  0  0.100999  0  0.968117  0  0  0.107211  0  1.039735  0  0  0.111005  0  1.036354  0  0  0.106781  0.104435  0  1.04223  0
H  H21  1  0.17588451  0.94280295  0.12684781  1  0  0.10108  0  0.968174  0  0  0.107327  0  1.03974  0  0  0.111133  0  1.036345  0  0  0.106838  0.104554  0  1.042227  0
H  H22  1  0.64824143  0.30590306  0.53685792  1  0  0.110367  0  0.945646  0  0  0.120326  0  1.006227  0  0  0.124211  0  1.002643  0  0  0.109055  0.117298  0  1.009174  0
H  H23  1  0.35173078  0.69409623  0.46314450  1  0  0.110458  0  0.945605  0  0  0.120408  0  1.006194  0  0  0.124295  0  1.002607  0  0  0.109073  0.117376  0  1.00915  0
C  C24  1  0.65154103  0.05574773  0.09756621  1  0  0.064906  0  3.662597  0  0  -0.000366  0  3.934399  0  0  0.006392  0  3.938698  0  0  -0.067352  -0.005011  0  3.931649  0
C  C25  1  0.34846432  0.94425245  0.90242765  1  0  0.065  0  3.662326  0  0  -0.000408  0  3.934323  0  0  0.006329  0  3.938625  0  0  -0.067331  -0.005023  0  3.931524  0
C  C26  1  0.66287332  0.05151000  0.22175802  1  0  0.237037  0  3.720794  0  0  0.233722  0  3.970567  0  0  0.242236  0  3.991516  0  0  0.124283  0.228157  0  3.956315  0
C  C27  1  0.33714087  0.94849355  0.77823616  1  0  0.237113  0  3.720964  0  0  0.233865  0  3.970683  0  0  0.242376  0  3.991645  0  0  0.124307  0.228295  0  3.956419  0
C  C28  1  0.75805612  0.91195374  0.29417416  1  0  -0.148676  0  3.716126  0  0  -0.165924  0  3.969603  0  0  -0.17414  0  3.991779  0  0  -0.07803  -0.160811  0  3.954762  0
C  C29  1  0.24195928  0.08804166  0.70582396  1  0  -0.148837  0  3.716492  0  0  -0.166063  0  3.969927  0  0  -0.174281  0  3.992103  0  0  -0.078087  -0.160952  0  3.955088  0
C  C30  1  0.78452707  0.91035191  0.40540113  1  0  -0.031973  0  3.699046  0  0  -0.061414  0  3.953541  0  0  -0.05854  0  3.972953  0  0  -0.061507  -0.063031  0  3.940436  0
C  C31  1  0.21547481  0.08964475  0.59460029  1  0  -0.031947  0  3.699068  0  0  -0.061366  0  3.953525  0  0  -0.058484  0  3.972927  0  0  -0.061457  -0.062985  0  3.940426  0
C  C32  1  0.71321602  0.04788539  0.44591188  1  0  -0.000305  0  3.76961  0  0  0.015815  0  4.00796  0  0  0.011013  0  4.034047  0  0  -0.005881  0.018656  0  3.990674  0
C  C33  1  0.28678870  0.95211124  0.55409015  1  0  -0.000394  0  3.76971  0  0  0.015757  0  4.008019  0  0  0.010972  0  4.034108  0  0  -0.005886  0.01859  0  3.990743  0
C  C34  1  0.61122213  0.18069324  0.36946297  1  0  0.089146  0  3.657147  0  0  0.049106  0  3.911572  0  0  0.05577  0  3.929031  0  0  0.046092  0.044764  0  3.899445  0
C  C35  1  0.38878605  0.81930223  0.63053570  1  0  0.08919  0  3.657177  0  0  0.049148  0  3.91165  0  0  0.055814  0  3.929104  0  0  0.046052  0.044792  0  3.89951  0
C  C36  1  0.74082110  0.05263462  0.56330806  1  0  0.044961  0  3.784628  0  0  0.061556  0  4.023816  0  0  0.059603  0  4.049723  0  0  -0.007826  0.062877  0  4.006413  0
C  C37  1  0.25917146  0.94736324  0.43669882  1  0  0.045076  0  3.784464  0  0  0.061645  0  4.023671  0  0  0.059636  0  4.049648  0  0  -0.007854  0.062974  0  4.006268  0
C  C38  1  0.81079674  0.91405526  0.64513396  1  0  -0.096762  0  3.697313  0  0  -0.133405  0  3.950739  0  0  -0.132569  0  3.970656  0  0  -0.07664  -0.133864  0  3.937248  0
C  C39  1  0.18919947  0.08594148  0.35486541  1  0  -0.096823  0  3.697012  0  0  -0.133422  0  3.95046  0  0  -0.132585  0  3.970393  0  0  -0.076553  -0.1339  0  3.936956  0
C  C40  1  0.84108122  0.91531548  0.75586334  1  0  -0.071219  0  3.774932  0  0  -0.045007  0  4.011916  0  0  -0.054371  0  4.036157  0  0  -0.022562  -0.038726  0  3.995328  0
C  C41  1  0.15891107  0.08468482  0.24413234  1  0  -0.070902  0  3.774797  0  0  -0.044758  0  4.011776  0  0  -0.054119  0  4.036014  0  0  -0.02249  -0.038481  0  3.9952  0
C  C42  1  0.79710287  0.05680301  0.78744837  1  0  -0.063629  0  3.705773  0  0  -0.103064  0  3.960068  0  0  -0.099785  0  3.978424  0  0  -0.076798  -0.104632  0  3.947186  0
C  C43  1  0.20288928  0.94320193  0.21254645  1  0  -0.063804  0  3.705878  0  0  -0.103284  0  3.960231  0  0  -0.100014  0  3.978578  0  0  -0.076948  -0.104853  0  3.947356  0
C  C44  1  0.72487212  0.19633678  0.70829370  1  0  -0.069799  0  3.790451  0  0  -0.045314  0  4.029575  0  0  -0.054908  0  4.053526  0  0  -0.021478  -0.039008  0  4.013186  0
C  C45  1  0.27512079  0.80366924  0.29170663  1  0  -0.069932  0  3.790513  0  0  -0.045464  0  4.029694  0  0  -0.055058  0  4.053642  0  0  -0.021547  -0.039154  0  4.0133  0
C  C46  1  0.69947156  0.19412040  0.59659737  1  0  -0.096351  0  3.671559  0  0  -0.129296  0  3.918932  0  0  -0.128245  0  3.937651  0  0  -0.07365  -0.130063  0  3.90673  0
C  C47  1  0.30051203  0.80588340  0.40340412  1  0  -0.096463  0  3.671746  0  0  -0.129393  0  3.919131  0  0  -0.128326  0  3.937864  0  0  -0.073639  -0.130161  0  3.906923  0
C  C48  1  0.68222438  0.34779819  0.74209306  1  0  0.633639  0  3.934228  0  0  0.585084  0  4.220425  0  0  0.619188  0  4.214922  0  0  0.196944  0.56219  0  4.222744  0
C  C49  1  0.31778148  0.65220302  0.25791131  1  0  0.63382  0  3.934064  0  0  0.585295  0  4.220207  0  0  0.6194  0  4.214701  0  0  0.197043  0.562401  0  4.222527  0
C  C50  1  0.92749564  0.76542829  0.83912894  1  0  0.650451  0  3.907656  0  0  0.597847  0  4.20628  0  0  0.632092  0  4.199148  0  0  0.201477  0.574631  0  4.210393  0
C  C51  1  0.07250091  0.23457195  0.16086808  1  0  0.650221  0  3.907871  0  0  0.597756  0  4.206295  0  0  0.632  0  4.199162  0  0  0.201441  0.574542  0  4.21041  0
N  N52  1  0.58855874  0.18215149  0.26087749  1  0  -0.381107  0  3.287696  0  0  -0.305122  0  3.550397  0  0  -0.327082  0  3.570612  0  0  -0.332111  -0.290287  0  3.536272  0
N  N53  1  0.41145353  0.81784514  0.73911733  1  0  -0.381187  0  3.287695  0  0  -0.305217  0  3.550361  0  0  -0.327173  0  3.570562  0  0  -0.332135  -0.290384  0  3.536244  0
O  O54  1  0.52006840  0.19564310  0.04008413  1  0  -0.56294  0  2.14467  0  0  -0.498238  0  2.387143  0  0  -0.519251  0  2.376207  0  0  -0.405035  -0.483399  0  2.394242  0
O  O55  1  0.47993173  0.80435817  0.95991985  1  0  -0.563083  0  2.144448  0  0  -0.498341  0  2.387022  0  0  -0.519373  0  2.37605  0  0  -0.405062  -0.483525  0  2.394143  0
O  O56  1  0.29556544  0.52373462  0.95505306  1  0  -0.855345  0  1.935958  0  0  -0.78379  0  2.158599  0  0  -0.809781  0  2.126244  0  0  -0.570014  -0.765625  0  2.180713  0
O  O57  1  0.70443200  0.47627015  0.04495129  1  0  -0.855252  0  1.935954  0  0  -0.783712  0  2.158616  0  0  -0.809704  0  2.126262  0  0  -0.569951  -0.765547  0  2.180728  0
O  O58  1  0.68467751  0.34059712  0.85061973  1  0  -0.661607  0  2.06441  0  0  -0.580605  0  2.29634  0  0  -0.611833  0  2.286255  0  0  -0.33098  -0.558534  0  2.302541  0
O  O59  1  0.31533303  0.65939478  0.14938522  1  0  -0.661758  0  2.064318  0  0  -0.58074  0  2.296226  0  0  -0.611977  0  2.286137  0  0  -0.331024  -0.558667  0  2.302432  0
O  O60  1  0.64846971  0.47463423  0.66850619  1  0  -0.616964  0  1.902678  0  0  -0.567807  0  2.117949  0  0  -0.5923  0  2.107564  0  0  -0.325745  -0.54978  0  2.123543  0
O  O61  1  0.35154728  0.52536802  0.33149793  1  0  -0.617009  0  1.902682  0  0  -0.567868  0  2.117939  0  0  -0.592363  0  2.107553  0  0  -0.32577  -0.549838  0  2.12353  0
O  O62  1  0.01406829  0.77378391  0.92059728  1  0  -0.604965  0  1.953654  0  0  -0.55305  0  2.176281  0  0  -0.578253  0  2.166279  0  0  -0.318981  -0.535747  0  2.182844  0
O  O63  1  0.98592120  0.22621986  0.07940127  1  0  -0.604961  0  1.9539  0  0  -0.553061  0  2.176448  0  0  -0.578262  0  2.166439  0  0  -0.318957  -0.535759  0  2.183014  0
O  O64  1  0.91587117  0.63844680  0.82155907  1  0  -0.675568  0  1.96893  0  0  -0.61293  0  2.213576  0  0  -0.63898  0  2.198841  0  0  -0.354827  -0.595362  0  2.223677  0
O  O65  1  0.08412812  0.36155463  0.17843255  1  0  -0.675535  0  1.968837  0  0  -0.612946  0  2.21342  0  0  -0.638996  0  2.198688  0  0  -0.35486  -0.595379  0  2.223525  0
