# generated using pymatgen
data_MnH7C11O5
_symmetry_space_group_name_H-M   'P 1'
_cell_length_a   9.80292053
_cell_length_b   10.06722585
_cell_length_c   12.02162130
_cell_angle_alpha   110.02373730
_cell_angle_beta   100.78560578
_cell_angle_gamma   91.80609842
_symmetry_Int_Tables_number   1
_chemical_formula_structural   MnH7C11O5
_chemical_formula_sum   'Mn4 H28 C44 O20'
_cell_volume   1089.09531487
_cell_formula_units_Z   4
loop_
 _symmetry_equiv_pos_site_id
 _symmetry_equiv_pos_as_xyz
  1  'x, y, z'
loop_
 _atom_site_type_symbol
 _atom_site_label
 _atom_site_symmetry_multiplicity
 _atom_site_fract_x
 _atom_site_fract_y
 _atom_site_fract_z
 _atom_site_occupancy
 _atom_site_pbe_cm5_charge
 _atom_site_pbe_ddec_charge
 _atom_site_pbe_ddec_spin_density
 _atom_site_pbe_ddec_sum_bond_order
 _atom_site_pbe_magmom
Mn  Mn0  1  0.63330916  0.39181737  0.46067722  1  0.618103  1.030799  4.661246  2.314129  4.453
Mn  Mn1  1  0.36668209  0.60818596  0.53932467  1  0.618094  1.030741  4.661283  2.314199  4.453
Mn  Mn2  1  0.54586659  0.09506188  0.22709621  1  0.600936  1.038541  4.664461  2.282826  4.461
Mn  Mn3  1  0.45414162  0.90494591  0.77290445  1  0.600907  1.038443  4.664504  2.282892  4.461
H  H4  1  0.33929176  0.08645119  0.03359579  1  0.296113  0.39966  0.000636  0.94077  0.002
H  H5  1  0.66070489  0.91354374  0.96640107  1  0.296122  0.39969  0.000636  0.940736  0.002
H  H6  1  0.26315662  0.02564792  0.11587327  1  0.319417  0.392673  0.002295  0.896419  0.002
H  H7  1  0.73684279  0.97436505  0.88413181  1  0.319402  0.392656  0.002294  0.896384  0.002
H  H8  1  0.60017362  0.22092877  0.58945067  1  0.337806  0.418395  0.000815  0.847697  0.002
H  H9  1  0.39984746  0.77906107  0.41054736  1  0.337767  0.418259  0.000815  0.847876  0.002
H  H10  1  0.68611019  0.35685583  0.68944010  1  0.30583  0.379287  0.001205  0.94985  0.002
H  H11  1  0.31388884  0.64314229  0.31055888  1  0.305883  0.379322  0.001205  0.949801  0.002
H  H12  1  0.31193651  0.98100564  0.31810825  1  0.108262  0.108908  0.000832  1.034048  0.0
H  H13  1  0.68805743  0.01899349  0.68189113  1  0.108262  0.108914  0.000832  1.034046  0.0
H  H14  1  0.87054275  0.93326902  0.31202012  1  0.109704  0.117189  -0.000333  1.010643  0.0
H  H15  1  0.12944766  0.06673643  0.68798229  1  0.109702  0.117171  -0.000333  1.010676  0.0
H  H16  1  0.08819894  0.34985249  0.42465931  1  0.115814  0.12491  -0.000392  1.012785  0.0
H  H17  1  0.91179420  0.65014873  0.57534306  1  0.115791  0.124862  -0.000392  1.012765  0.0
H  H18  1  0.23660491  0.78414520  0.14867610  1  0.099102  0.101485  -0.00015  1.055684  0.0
H  H19  1  0.76339047  0.21585819  0.85132474  1  0.099116  0.101533  -0.00015  1.055632  0.0
H  H20  1  0.08765831  0.36713790  0.12756383  1  0.104072  0.107672  0.000101  0.997839  0.0
H  H21  1  0.91234624  0.63286343  0.87243855  1  0.10408  0.10767  0.000101  0.99783  0.0
H  H22  1  0.95281409  0.47789447  0.28441894  1  0.108405  0.11258  -8.1e-05  0.990044  0.0
H  H23  1  0.04719625  0.52210155  0.71558686  1  0.108317  0.11243  -8.1e-05  0.990048  0.0
H  H24  1  0.94752729  0.73830728  0.36497833  1  0.103009  0.105181  7.6e-05  1.01434  0.0
H  H25  1  0.05247368  0.26168868  0.63502444  1  0.103024  0.105198  7.6e-05  1.014407  0.0
H  H26  1  0.25189468  0.69653102  0.97872378  1  0.104615  0.104845  -9.2e-05  1.021258  0.0
H  H27  1  0.74812679  0.30347365  0.02128201  1  0.104557  0.10482  -9.2e-05  1.021078  0.0
H  H28  1  0.44484169  0.35656543  0.76172762  1  0.106573  0.114864  -0.000102  1.028617  0.0
H  H29  1  0.55515031  0.64342413  0.23826782  1  0.106564  0.11483  -0.000102  1.028686  0.0
H  H30  1  0.26671928  0.30140980  0.04628299  1  0.105047  0.106954  5.1e-05  1.03132  0.0
H  H31  1  0.73327753  0.69859786  0.95371849  1  0.105093  0.106975  5.1e-05  1.031335  0.0
C  C32  1  0.34261166  0.26863639  0.39390614  1  0.241146  0.622503  0.037842  4.113333  0.034
C  C33  1  0.65737660  0.73136796  0.60609729  1  0.241162  0.622586  0.037848  4.112924  0.034
C  C34  1  0.21283591  0.17417716  0.37118291  1  -0.017697  -0.043443  -0.003074  4.00818  -0.003
C  C35  1  0.78715417  0.82582514  0.62881602  1  -0.017869  -0.043604  -0.003072  4.008376  -0.003
C  C36  1  0.21364543  0.02593876  0.33075173  1  -0.079738  -0.145296  0.012981  3.920414  0.01
C  C37  1  0.78634609  0.97405721  0.66924304  1  -0.079706  -0.145319  0.012981  3.92026  0.01
C  C38  1  0.09105445  0.93634292  0.30818506  1  -0.007316  0.066614  -0.002866  4.003038  -0.003
C  C39  1  0.90893909  0.06366371  0.69181149  1  -0.00726  0.066656  -0.002866  4.00303  -0.003
C  C40  1  0.96823467  0.99895214  0.32981390  1  -0.068497  -0.112745  0.01192  3.881909  0.009
C  C41  1  0.03175407  0.00104695  0.67018389  1  -0.068512  -0.112752  0.011916  3.882183  0.009
C  C42  1  0.96720218  0.14686808  0.37200578  1  -0.014643  -0.030432  -0.003455  3.990356  -0.003
C  C43  1  0.03279251  0.85313844  0.62800005  1  -0.014684  -0.03046  -0.003456  3.990191  -0.003
C  C44  1  0.08937608  0.23483541  0.39221773  1  -0.069086  -0.100552  0.012291  3.908397  0.01
C  C45  1  0.91061057  0.76516368  0.60777893  1  -0.068977  -0.100439  0.012293  3.908085  0.01
C  C46  1  0.83491423  0.21021267  0.39410355  1  0.218452  0.573375  0.034655  4.194416  0.028
C  C47  1  0.16508106  0.78978732  0.60591208  1  0.21838  0.573593  0.03465  4.194066  0.028
C  C48  1  0.08976816  0.77959878  0.26000281  1  -0.011375  0.063022  0.00052  4.028049  0.001
C  C49  1  0.91022188  0.22040239  0.74000077  1  -0.011455  0.063003  0.00052  4.028236  0.001
C  C50  1  0.17035120  0.71608119  0.17484376  1  -0.09639  -0.211563  -0.000215  3.970399  0.0
C  C51  1  0.82964538  0.28392438  0.82515457  1  -0.09636  -0.211544  -0.000215  3.970575  0.0
C  C52  1  0.16986313  0.56755024  0.12333810  1  -0.009828  0.060723  0.000467  4.01051  0.0
C  C53  1  0.83013768  0.43245528  0.87666665  1  -0.009842  0.060613  0.000467  4.010435  0.0
C  C54  1  0.09052184  0.48253656  0.16493493  1  -0.085399  -0.128149  -0.000508  3.948622  0.0
C  C55  1  0.90948869  0.51746275  0.83506355  1  -0.085322  -0.128063  -0.000508  3.948594  0.0
C  C56  1  0.01246771  0.54460675  0.25179325  1  -0.082358  -0.058639  0.000267  4.001785  0.0
C  C57  1  0.98753243  0.45539130  0.74821169  1  -0.082331  -0.058427  0.000267  4.001772  0.0
C  C58  1  0.00924507  0.69157218  0.29738109  1  -0.084737  -0.120944  -0.000674  3.948569  0.0
C  C59  1  0.99076227  0.30842601  0.70261910  1  -0.084706  -0.121037  -0.000675  3.948437  0.0
C  C60  1  0.24783446  0.50656764  0.02607840  1  -0.006706  0.064317  -0.001363  3.985392  -0.001
C  C61  1  0.75216850  0.49343900  0.97392449  1  -0.006716  0.064402  -0.001364  3.985426  -0.001
C  C62  1  0.28191907  0.58923285  0.96004566  1  -0.071226  -0.117571  0.005183  3.927675  0.004
C  C63  1  0.71809451  0.41077597  0.03996189  1  -0.071279  -0.117677  0.005182  3.927705  0.004
C  C64  1  0.35212056  0.53636075  0.86592428  1  -0.017412  -0.039759  0.000181  4.010607  0.0
C  C65  1  0.64788722  0.46363109  0.13407326  1  -0.017314  -0.039686  0.000181  4.010485  0.0
C  C66  1  0.39086051  0.39846067  0.83580182  1  -0.069567  -0.089413  0.00624  3.911929  0.005
C  C67  1  0.60913522  0.60153527  0.16419770  1  -0.069531  -0.08931  0.006241  3.911615  0.005
C  C68  1  0.36018075  0.31454926  0.90127304  1  -0.017648  -0.040674  -0.002802  3.999918  -0.002
C  C69  1  0.63981507  0.68544776  0.09872599  1  -0.017695  -0.040669  -0.002801  3.999958  -0.002
C  C70  1  0.28813378  0.36795065  0.99535943  1  -0.073325  -0.121977  0.006402  3.884076  0.005
C  C71  1  0.71185525  0.63205165  0.00463852  1  -0.07334  -0.122051  0.006401  3.884179  0.005
C  C72  1  0.40460922  0.16826375  0.86605423  1  0.215288  0.576923  0.010607  4.167496  0.007
C  C73  1  0.59539334  0.83173864  0.13394735  1  0.215224  0.576834  0.010606  4.167609  0.007
C  C74  1  0.38402015  0.62624987  0.79615301  1  0.225935  0.592518  0.027208  4.173886  0.023
C  C75  1  0.61599481  0.37374095  0.20384610  1  0.226042  0.59261  0.027213  4.17384  0.023
O  O76  1  0.33664865  0.40143475  0.42369930  1  -0.296251  -0.553561  0.070967  2.380683  0.046
O  O77  1  0.66334451  0.59856645  0.57630473  1  -0.296223  -0.553561  0.070972  2.380478  0.046
O  O78  1  0.45844950  0.21284300  0.38398518  1  -0.303166  -0.597337  0.080516  2.423414  0.049
O  O79  1  0.54153799  0.78715397  0.61601097  1  -0.303173  -0.597346  0.080518  2.423254  0.049
O  O80  1  0.33796074  0.09391519  0.11996352  1  -0.559871  -0.764133  0.041937  2.103928  0.024
O  O81  1  0.66204490  0.90608725  0.88003603  1  -0.559856  -0.764132  0.041939  2.103871  0.024
O  O82  1  0.61739041  0.32351062  0.61258065  1  -0.540396  -0.715446  0.037664  2.15356  0.022
O  O83  1  0.38261012  0.67648112  0.38741832  1  -0.54042  -0.715313  0.037663  2.153743  0.022
O  O84  1  0.83752259  0.34535909  0.43890280  1  -0.306735  -0.552358  0.058006  2.262908  0.044
O  O85  1  0.16248450  0.65464295  0.56112844  1  -0.306663  -0.552404  0.058001  2.262953  0.044
O  O86  1  0.72330429  0.12642478  0.36805399  1  -0.314059  -0.589928  0.05195  2.334597  0.03
O  O87  1  0.27668563  0.87358592  0.63195406  1  -0.314037  -0.59004  0.051949  2.334465  0.03
O  O88  1  0.35632510  0.07599255  0.90493256  1  -0.306778  -0.567926  0.036564  2.261041  0.028
O  O89  1  0.64366889  0.92400769  0.09506300  1  -0.306758  -0.567886  0.036564  2.261015  0.028
O  O90  1  0.48649694  0.13162407  0.79214733  1  -0.314713  -0.562144  0.036098  2.186038  0.025
O  O91  1  0.51351621  0.86837937  0.20786356  1  -0.314642  -0.562118  0.036095  2.186063  0.025
O  O92  1  0.41640445  0.56288695  0.69461662  1  -0.307888  -0.563554  0.052588  2.366756  0.034
O  O93  1  0.58360947  0.43709328  0.30537588  1  -0.307974  -0.563587  0.052592  2.366948  0.034
O  O94  1  0.37707124  0.75999439  0.84180059  1  -0.310799  -0.556318  0.051283  2.277556  0.035
O  O95  1  0.62295339  0.23998911  0.15819524  1  -0.310874  -0.556462  0.051294  2.277448  0.035
