# generated using pymatgen
data_ZnH8C13BrNO4
_symmetry_space_group_name_H-M   'P 1'
_cell_length_a   7.65570164
_cell_length_b   9.77352781
_cell_length_c   10.75296163
_cell_angle_alpha   115.25085730
_cell_angle_beta   94.50105457
_cell_angle_gamma   102.97722341
_symmetry_Int_Tables_number   1
_chemical_formula_structural   ZnH8C13BrNO4
_chemical_formula_sum   'Zn2 H16 C26 Br2 N2 O8'
_cell_volume   695.10686917
_cell_formula_units_Z   2
loop_
 _symmetry_equiv_pos_site_id
 _symmetry_equiv_pos_as_xyz
  1  'x, y, z'
loop_
 _atom_site_type_symbol
 _atom_site_label
 _atom_site_symmetry_multiplicity
 _atom_site_fract_x
 _atom_site_fract_y
 _atom_site_fract_z
 _atom_site_occupancy
 _atom_site_hle17_bader_spin_density
 _atom_site_hle17_ddec_charge
 _atom_site_hle17_ddec_spin_density
 _atom_site_hle17_ddec_sum_bond_order
 _atom_site_hle17_magmom
 _atom_site_hse06_10hf_bader_spin_density
 _atom_site_hse06_10hf_ddec_charge
 _atom_site_hse06_10hf_ddec_spin_density
 _atom_site_hse06_10hf_ddec_sum_bond_order
 _atom_site_hse06_10hf_magmom
 _atom_site_hse06_bader_spin_density
 _atom_site_hse06_ddec_charge
 _atom_site_hse06_ddec_spin_density
 _atom_site_hse06_ddec_sum_bond_order
 _atom_site_hse06_magmom
 _atom_site_pbe_bader_spin_density
 _atom_site_pbe_cm5_charge
 _atom_site_pbe_ddec_charge
 _atom_site_pbe_ddec_spin_density
 _atom_site_pbe_ddec_sum_bond_order
 _atom_site_pbe_magmom
Zn  Zn0  1  0.35180205  0.03086492  0.43061685  1  0  1.046803  0  1.861137  0  0  0.87468  0  2.331285  0  0  0.927489  0  2.265241  0  0  0.674874  0.837977  0  2.376502  0
Zn  Zn1  1  0.64819843  0.96912838  0.56937886  1  0  1.046844  0  1.861172  0  0  0.874729  0  2.331287  0  0  0.927538  0  2.26524  0  0  0.674878  0.83801  0  2.376544  0
H  H2  1  0.94967742  0.92475335  0.32413295  1  0  0.100234  0  0.941538  0  0  0.10673  0  1.00718  0  0  0.109497  0  1.004316  0  0  0.123652  0.104745  0  1.009063  0
H  H3  1  0.05032635  0.07524585  0.67586245  1  0  0.100266  0  0.94151  0  0  0.106777  0  1.007141  0  0  0.109554  0  1.004274  0  0  0.123659  0.10479  0  1.009027  0
H  H4  1  0.72687622  0.97207475  0.17473571  1  0  0.127266  0  0.940125  0  0  0.137041  0  0.998159  0  0  0.140219  0  0.997571  0  0  0.11181  0.134781  0  0.998526  0
H  H5  1  0.27312428  0.02793035  0.82526738  1  0  0.127288  0  0.940197  0  0  0.137062  0  0.998221  0  0  0.140241  0  0.997631  0  0  0.111804  0.1348  0  0.998588  0
H  H6  1  0.18135477  0.30855597  0.14979223  1  0  0.122189  0  0.937891  0  0  0.133299  0  0.993812  0  0  0.136003  0  0.994289  0  0  0.111575  0.131545  0  0.993322  0
H  H7  1  0.81864691  0.69145268  0.85021510  1  0  0.122169  0  0.937958  0  0  0.133291  0  0.993865  0  0  0.135996  0  0.994341  0  0  0.111587  0.131539  0  0.993373  0
H  H8  1  0.38570636  0.24500136  0.29922462  1  0  0.090524  0  0.943346  0  0  0.09944  0  1.004687  0  0  0.102526  0  1.001007  0  0  0.121607  0.097196  0  1.007442  0
H  H9  1  0.61429859  0.75500138  0.70077408  1  0  0.09051  0  0.943331  0  0  0.099413  0  1.004681  0  0  0.102498  0  1.001003  0  0  0.121604  0.09717  0  1.007433  0
H  H10  1  0.11737163  0.34091194  0.59785072  1  0  0.109923  0  0.958303  0  0  0.115207  0  1.027711  0  0  0.119196  0  1.024595  0  0  0.101897  0.112072  0  1.030404  0
H  H11  1  0.88264300  0.65908841  0.40215596  1  0  0.10993  0  0.958239  0  0  0.115235  0  1.027617  0  0  0.119226  0  1.024495  0  0  0.10191  0.112102  0  1.030308  0
H  H12  1  0.66954102  0.42239129  0.39868408  1  0  0.096984  0  0.952053  0  0  0.107583  0  1.011832  0  0  0.111249  0  1.008987  0  0  0.101273  0.10493  0  1.014054  0
H  H13  1  0.33047203  0.57760434  0.60131882  1  0  0.096874  0  0.952197  0  0  0.107482  0  1.011977  0  0  0.111147  0  1.009132  0  0  0.101205  0.10483  0  1.014197  0
H  H14  1  0.19791825  0.35359364  0.83699820  1  0  0.101262  0  0.947595  0  0  0.111327  0  1.009337  0  0  0.114744  0  1.007179  0  0  0.104926  0.108926  0  1.010824  0
H  H15  1  0.80207778  0.64640204  0.16299260  1  0  0.101301  0  0.947558  0  0  0.111336  0  1.009325  0  0  0.114755  0  1.007164  0  0  0.104934  0.108933  0  1.010814  0
H  H16  1  0.77399007  0.41338457  0.93178398  1  0  0.098659  0  0.952395  0  0  0.107747  0  1.012943  0  0  0.111762  0  1.00985  0  0  0.09832  0.104903  0  1.015116  0
H  H17  1  0.22600624  0.58661584  0.06820496  1  0  0.098763  0  0.95228  0  0  0.107805  0  1.012879  0  0  0.111814  0  1.00979  0  0  0.098341  0.104962  0  1.015049  0
C  C18  1  0.99567527  0.00713553  0.28197919  1  0  0.156286  0  3.658436  0  0  0.121097  0  3.916428  0  0  0.129748  0  3.93326  0  0  0.056168  0.115629  0  3.904445  0
C  C19  1  0.00432575  0.99286721  0.71802208  1  0  0.156213  0  3.658522  0  0  0.121025  0  3.916476  0  0  0.129665  0  3.93332  0  0  0.056138  0.115558  0  3.90449  0
C  C20  1  0.87192605  0.03357106  0.19898313  1  0  -0.169126  0  3.714554  0  0  -0.189508  0  3.96968  0  0  -0.198353  0  3.991528  0  0  -0.090034  -0.18399  0  3.954792  0
C  C21  1  0.12807706  0.96643404  0.80102104  1  0  -0.169227  0  3.714662  0  0  -0.189609  0  3.969792  0  0  -0.198456  0  3.991646  0  0  -0.09005  -0.18409  0  3.954903  0
C  C22  1  0.93879163  0.14295419  0.15067222  1  0  0.136084  0  3.731936  0  0  0.145548  0  4.002316  0  0  0.153629  0  4.023517  0  0  0.002668  0.140224  0  3.98874  0
C  C23  1  0.06120861  0.85705800  0.84934011  1  0  0.136171  0  3.732016  0  0  0.145632  0  4.002379  0  0  0.153712  0  4.023578  0  0  0.00267  0.140307  0  3.988806  0
C  C24  1  0.12517280  0.22248263  0.18588993  1  0  -0.172097  0  3.737669  0  0  -0.19053  0  3.98636  0  0  -0.199271  0  4.008812  0  0  -0.089066  -0.185002  0  3.971988  0
C  C25  1  0.87482837  0.77752838  0.81411550  1  0  -0.172151  0  3.737903  0  0  -0.190597  0  3.986567  0  0  -0.199339  0  4.009019  0  0  -0.089113  -0.185073  0  3.9722  0
C  C26  1  0.23875086  0.18804906  0.26876231  1  0  0.148154  0  3.687462  0  0  0.115748  0  3.939405  0  0  0.124047  0  3.956348  0  0  0.053652  0.110113  0  3.928635  0
C  C27  1  0.76125186  0.81195486  0.73123766  1  0  0.14818  0  3.68758  0  0  0.11581  0  3.939477  0  0  0.124111  0  3.95642  0  0  0.053672  0.11018  0  3.928705  0
C  C28  1  0.75129464  0.22584378  0.49545275  1  0  0.657912  0  3.891048  0  0  0.607283  0  4.17951  0  0  0.642739  0  4.172411  0  0  0.212632  0.583614  0  4.183122  0
C  C29  1  0.24871266  0.77415422  0.50454889  1  0  0.658002  0  3.891003  0  0  0.607334  0  4.179523  0  0  0.642802  0  4.172406  0  0  0.212648  0.583664  0  4.183138  0
C  C30  1  0.88016280  0.36773029  0.49819852  1  0  -0.062848  0  3.753751  0  0  -0.040136  0  3.985492  0  0  -0.047509  0  4.009125  0  0  -0.019713  -0.035294  0  3.969498  0
C  C31  1  0.11985274  0.63226887  0.50180590  1  0  -0.062843  0  3.753567  0  0  -0.040082  0  3.985292  0  0  -0.047458  0  4.00892  0  0  -0.019701  -0.035239  0  3.969298  0
C  C32  1  0.06658936  0.41152433  0.55606763  1  0  -0.073336  0  3.728936  0  0  -0.09803  0  3.981712  0  0  -0.098895  0  4.002244  0  0  -0.087913  -0.097276  0  3.968516  0
C  C33  1  0.93342710  0.58847365  0.44393917  1  0  -0.073446  0  3.728917  0  0  -0.098191  0  3.981733  0  0  -0.099055  0  4.002272  0  0  -0.087971  -0.097436  0  3.968533  0
C  C34  1  0.81474286  0.45710612  0.44254361  1  0  -0.074388  0  3.747446  0  0  -0.099142  0  4.000053  0  0  -0.099983  0  4.020309  0  0  -0.089156  -0.098808  0  3.987179  0
C  C35  1  0.18527098  0.54289186  0.55746118  1  0  -0.074345  0  3.747514  0  0  -0.099119  0  4.000113  0  0  -0.099963  0  4.02037  0  0  -0.089099  -0.098787  0  3.987241  0
C  C36  1  0.47107885  0.22644782  0.73622097  1  0  0.65439  0  3.897005  0  0  0.603609  0  4.188973  0  0  0.63854  0  4.181529  0  0  0.209969  0.579819  0  4.19317  0
C  C37  1  0.52891731  0.77354431  0.26377032  1  0  0.654301  0  3.897279  0  0  0.603506  0  4.189267  0  0  0.638437  0  4.181825  0  0  0.209946  0.579713  0  4.19346  0
C  C38  1  0.48464708  0.36884520  0.87153230  1  0  -0.054823  0  3.752026  0  0  -0.032185  0  3.982925  0  0  -0.03841  0  4.004939  0  0  -0.018327  -0.027803  0  3.967742  0
C  C39  1  0.51535106  0.63115283  0.12846048  1  0  -0.054831  0  3.751999  0  0  -0.032177  0  3.982883  0  0  -0.038403  0  4.004895  0  0  -0.018339  -0.02779  0  3.967694  0
C  C40  1  0.32965142  0.41764653  0.90889421  1  0  -0.080142  0  3.75018  0  0  -0.104256  0  4.000649  0  0  -0.105312  0  4.021029  0  0  -0.087634  -0.103362  0  3.98628  0
C  C41  1  0.67034580  0.58235269  0.09109711  1  0  -0.080211  0  3.750018  0  0  -0.104311  0  4.000496  0  0  -0.105368  0  4.020882  0  0  -0.087659  -0.103413  0  3.98612  0
C  C42  1  0.65487192  0.45258295  0.96298552  1  0  -0.085121  0  3.768897  0  0  -0.106247  0  4.017559  0  0  -0.106923  0  4.036873  0  0  -0.094059  -0.105809  0  4.004311  0
C  C43  1  0.34512753  0.54741508  0.03700546  1  0  -0.085207  0  3.768924  0  0  -0.106309  0  4.01761  0  0  -0.106973  0  4.036914  0  0  -0.094087  -0.105872  0  4.00436  0
Br  Br44  1  0.77800568  0.18142824  0.03533336  1  0  -0.021647  0  1.315295  0  0  -0.016659  0  1.560245  0  0  -0.022063  0  1.554923  0  0  0.078059  -0.013073  0  1.564509  0
Br  Br45  1  0.22198070  0.81859341  0.96469304  1  0  -0.021621  0  1.315393  0  0  -0.016642  0  1.560344  0  0  -0.022044  0  1.555018  0  0  0.078115  -0.013056  0  1.564609  0
N  N46  1  0.17574210  0.08246332  0.31594361  1  0  -0.322869  0  3.278906  0  0  -0.242627  0  3.556234  0  0  -0.26256  0  3.570164  0  0  -0.330185  -0.229099  0  3.546863  0
N  N47  1  0.82426035  0.91753588  0.68405636  1  0  -0.322783  0  3.278968  0  0  -0.242577  0  3.556323  0  0  -0.262509  0  3.570255  0  0  -0.330174  -0.229047  0  3.546945  0
O  O48  1  0.58383091  0.19263294  0.44084087  1  0  -0.645461  0  2.100953  0  0  -0.578912  0  2.366112  0  0  -0.607864  0  2.352029  0  0  -0.315876  -0.558675  0  2.374842  0
O  O49  1  0.41617718  0.80736743  0.55916081  1  0  -0.645547  0  2.100832  0  0  -0.578973  0  2.366014  0  0  -0.607932  0  2.351931  0  0  -0.315892  -0.558735  0  2.374747  0
O  O50  1  0.81765712  0.14870996  0.54730285  1  0  -0.622669  0  2.070645  0  0  -0.554245  0  2.330204  0  0  -0.583525  0  2.317946  0  0  -0.31165  -0.534478  0  2.337995  0
O  O51  1  0.18234127  0.85128097  0.45269554  1  0  -0.622634  0  2.070734  0  0  -0.55424  0  2.330348  0  0  -0.583522  0  2.318081  0  0  -0.311662  -0.534474  0  2.338139  0
O  O52  1  0.34564289  0.19148585  0.63347795  1  0  -0.624489  0  2.047202  0  0  -0.558984  0  2.305494  0  0  -0.587661  0  2.292681  0  0  -0.311085  -0.538653  0  2.313572  0
O  O53  1  0.65434488  0.80849684  0.36651479  1  0  -0.62443  0  2.047336  0  0  -0.558895  0  2.305565  0  0  -0.587569  0  2.292748  0  0  -0.311044  -0.538583  0  2.313687  0
O  O54  1  0.58694122  0.15121090  0.73607165  1  0  -0.637593  0  2.080421  0  0  -0.574809  0  2.3453  0  0  -0.602993  0  2.332083  0  0  -0.318332  -0.555071  0  2.353604  0
O  O55  1  0.41305796  0.84878240  0.26392213  1  0  -0.637594  0  2.080612  0  0  -0.574785  0  2.345445  0  0  -0.602971  0  2.332228  0  0  -0.318372  -0.555045  0  2.353747  0
