# generated using pymatgen
data_SrH22C16(N2O5)2
_symmetry_space_group_name_H-M   'P 1'
_cell_length_a   9.25454999
_cell_length_b   9.25460985
_cell_length_c   11.57649301
_cell_angle_alpha   96.65174418
_cell_angle_beta   96.65136132
_cell_angle_gamma   90.32409960
_symmetry_Int_Tables_number   1
_chemical_formula_structural   SrH22C16(N2O5)2
_chemical_formula_sum   'Sr2 H44 C32 N8 O20'
_cell_volume   978.00927940
_cell_formula_units_Z   2
loop_
 _symmetry_equiv_pos_site_id
 _symmetry_equiv_pos_as_xyz
  1  'x, y, z'
loop_
 _atom_site_type_symbol
 _atom_site_label
 _atom_site_symmetry_multiplicity
 _atom_site_fract_x
 _atom_site_fract_y
 _atom_site_fract_z
 _atom_site_occupancy
 _atom_site_hle17_bader_spin_density
 _atom_site_hle17_ddec_charge
 _atom_site_hle17_ddec_spin_density
 _atom_site_hle17_ddec_sum_bond_order
 _atom_site_hle17_magmom
 _atom_site_hse06_10hf_bader_spin_density
 _atom_site_hse06_10hf_ddec_charge
 _atom_site_hse06_10hf_ddec_spin_density
 _atom_site_hse06_10hf_ddec_sum_bond_order
 _atom_site_hse06_10hf_magmom
 _atom_site_hse06_bader_spin_density
 _atom_site_hse06_ddec_charge
 _atom_site_hse06_ddec_spin_density
 _atom_site_hse06_ddec_sum_bond_order
 _atom_site_hse06_magmom
 _atom_site_pbe_bader_spin_density
 _atom_site_pbe_cm5_charge
 _atom_site_pbe_ddec_charge
 _atom_site_pbe_ddec_spin_density
 _atom_site_pbe_ddec_sum_bond_order
 _atom_site_pbe_magmom
Sr  Sr0  1  0.92168163  0.07831890  0.75000022  1  0  1.575028  0  1.140692  0  0  1.416339  0  1.526111  0  0  1.453085  0  1.48264  0  0  0.958714  1.389858  0  1.557494  0
Sr  Sr1  1  0.07831772  0.92168156  0.24999949  1  0  1.575019  0  1.140719  0  0  1.416316  0  1.526183  0  0  1.453068  0  1.48269  0  0  0.958714  1.389824  0  1.557572  0
H  H2  1  0.44638066  0.83552560  0.92816436  1  0  0.382027  0  0.92692  0  0  0.347629  0  1.012079  0  0  0.361011  0  0.999848  0  0  0.290368  0.338417  0  1.020264  0
H  H3  1  0.16447607  0.55361753  0.57183266  1  0  0.382029  0  0.926915  0  0  0.347634  0  1.012066  0  0  0.361017  0  0.999835  0  0  0.290355  0.338421  0  1.020251  0
H  H4  1  0.55362085  0.16447378  0.07183545  1  0  0.382034  0  0.926891  0  0  0.347646  0  1.012041  0  0  0.361028  0  0.999824  0  0  0.290353  0.338434  0  1.020226  0
H  H5  1  0.83552436  0.44638184  0.42816705  1  0  0.382055  0  0.92685  0  0  0.347658  0  1.012006  0  0  0.361042  0  0.999792  0  0  0.290372  0.338446  0  1.020189  0
H  H6  1  0.04346584  0.14291421  0.02020385  1  0  0.424008  0  0.867817  0  0  0.391881  0  0.93726  0  0  0.402185  0  0.921813  0  0  0.305919  0.384432  0  0.948463  0
H  H7  1  0.85708334  0.95653739  0.47979488  1  0  0.424022  0  0.867884  0  0  0.391889  0  0.937281  0  0  0.402193  0  0.921832  0  0  0.305886  0.384438  0  0.948489  0
H  H8  1  0.95653894  0.85708515  0.97979624  1  0  0.42402  0  0.867876  0  0  0.391888  0  0.93728  0  0  0.402191  0  0.921832  0  0  0.30591  0.384438  0  0.948486  0
H  H9  1  0.14291600  0.04346199  0.52020560  1  0  0.424029  0  0.867827  0  0  0.39189  0  0.937276  0  0  0.402193  0  0.921829  0  0  0.305889  0.384437  0  0.948487  0
H  H10  1  0.87451851  0.15515531  0.02032094  1  0  0.426182  0  0.862576  0  0  0.393078  0  0.932783  0  0  0.403361  0  0.917465  0  0  0.305442  0.385654  0  0.943819  0
H  H11  1  0.84484566  0.12548410  0.47967824  1  0  0.426161  0  0.862602  0  0  0.39304  0  0.93284  0  0  0.403326  0  0.917518  0  0  0.30541  0.385617  0  0.943875  0
H  H12  1  0.12548408  0.84484404  0.97967723  1  0  0.426165  0  0.862599  0  0  0.393054  0  0.932814  0  0  0.403339  0  0.917494  0  0  0.305419  0.385631  0  0.943851  0
H  H13  1  0.15515474  0.87451419  0.52032223  1  0  0.42613  0  0.862628  0  0  0.393011  0  0.932875  0  0  0.403298  0  0.917551  0  0  0.305399  0.385588  0  0.943911  0
H  H14  1  0.28934677  0.16304958  0.69399451  1  0  0.318003  0  0.915318  0  0  0.295958  0  0.980701  0  0  0.304922  0  0.973447  0  0  0.3203  0.289857  0  0.985432  0
H  H15  1  0.83695036  0.71065223  0.80600525  1  0  0.318045  0  0.915285  0  0  0.295988  0  0.980668  0  0  0.304952  0  0.973409  0  0  0.32032  0.289886  0  0.9854  0
H  H16  1  0.71065149  0.83694981  0.30600674  1  0  0.318016  0  0.91531  0  0  0.295943  0  0.980695  0  0  0.304905  0  0.973439  0  0  0.320318  0.289841  0  0.985425  0
H  H17  1  0.16305012  0.28934933  0.19399553  1  0  0.318049  0  0.915257  0  0  0.296  0  0.980644  0  0  0.304964  0  0.97339  0  0  0.320323  0.289898  0  0.985374  0
H  H18  1  0.64910792  0.30662385  0.61315868  1  0  0.102058  0  0.93126  0  0  0.118695  0  0.987088  0  0  0.120077  0  0.987434  0  0  0.108056  0.117787  0  0.9868  0
H  H19  1  0.69337907  0.35089008  0.88684235  1  0  0.102062  0  0.931289  0  0  0.118704  0  0.987093  0  0  0.120084  0  0.987442  0  0  0.10807  0.117795  0  0.986807  0
H  H20  1  0.35088931  0.69337881  0.38684190  1  0  0.102098  0  0.931227  0  0  0.118693  0  0.987084  0  0  0.120072  0  0.987433  0  0  0.108064  0.117785  0  0.986796  0
H  H21  1  0.30662137  0.64911039  0.11315746  1  0  0.102083  0  0.931222  0  0  0.118692  0  0.98707  0  0  0.120074  0  0.987416  0  0  0.10807  0.117783  0  0.986783  0
H  H22  1  0.47076045  0.36850927  0.63022690  1  0  0.09973  0  0.940532  0  0  0.114817  0  1.001173  0  0  0.116343  0  1.001076  0  0  0.102123  0.113552  0  1.001657  0
H  H23  1  0.63149562  0.52923984  0.86977434  1  0  0.099748  0  0.94061  0  0  0.114825  0  1.001247  0  0  0.116353  0  1.001146  0  0  0.102111  0.113559  0  1.00173  0
H  H24  1  0.52923678  0.63149339  0.36977368  1  0  0.099749  0  0.940599  0  0  0.114812  0  1.001244  0  0  0.116337  0  1.001146  0  0  0.102115  0.113546  0  1.001726  0
H  H25  1  0.36850372  0.47075955  0.13022614  1  0  0.099734  0  0.940604  0  0  0.114815  0  1.001232  0  0  0.116343  0  1.001131  0  0  0.102117  0.113549  0  1.001714  0
H  H26  1  0.55339208  0.12184980  0.45189424  1  0  0.061515  0  0.949906  0  0  0.079355  0  1.012971  0  0  0.079806  0  1.014297  0  0  0.086549  0.078589  0  1.01286  0
H  H27  1  0.87815139  0.44660763  0.04810555  1  0  0.061538  0  0.949956  0  0  0.079385  0  1.013007  0  0  0.079836  0  1.014332  0  0  0.086548  0.078619  0  1.012895  0
H  H28  1  0.44660516  0.87815286  0.54810635  1  0  0.061517  0  0.949981  0  0  0.079402  0  1.012992  0  0  0.079855  0  1.014317  0  0  0.086555  0.078631  0  1.012881  0
H  H29  1  0.12184689  0.55339285  0.95189493  1  0  0.061546  0  0.949961  0  0  0.079401  0  1.013004  0  0  0.079853  0  1.01433  0  0  0.086551  0.078632  0  1.012894  0
H  H30  1  0.37193447  0.16071762  0.47540962  1  0  0.067377  0  0.94041  0  0  0.086674  0  1.000553  0  0  0.087678  0  1.000652  0  0  0.092398  0.08576  0  1.001025  0
H  H31  1  0.83928572  0.62806472  0.02459182  1  0  0.067424  0  0.94044  0  0  0.086717  0  1.000572  0  0  0.087721  0  1.000672  0  0  0.092405  0.085801  0  1.001045  0
H  H32  1  0.62806276  0.83928503  0.52459010  1  0  0.067406  0  0.940433  0  0  0.086689  0  1.000587  0  0  0.087692  0  1.000687  0  0  0.092395  0.085775  0  1.001058  0
H  H33  1  0.16071253  0.37193467  0.97540857  1  0  0.067387  0  0.940459  0  0  0.086683  0  1.000589  0  0  0.087686  0  1.00069  0  0  0.092391  0.085769  0  1.00106  0
H  H34  1  0.39807822  0.41097334  0.42078564  1  0  0.096642  0  0.96427  0  0  0.117453  0  1.027475  0  0  0.118745  0  1.027878  0  0  0.083394  0.116393  0  1.02756  0
H  H35  1  0.58902883  0.60191953  0.07921536  1  0  0.096607  0  0.964236  0  0  0.117414  0  1.027458  0  0  0.118705  0  1.027861  0  0  0.083379  0.116352  0  1.027544  0
H  H36  1  0.60191898  0.58902821  0.57921312  1  0  0.096676  0  0.964297  0  0  0.117479  0  1.027504  0  0  0.118771  0  1.027905  0  0  0.083412  0.11642  0  1.027588  0
H  H37  1  0.41097048  0.39807876  0.92078416  1  0  0.096618  0  0.964189  0  0  0.117411  0  1.027438  0  0  0.118703  0  1.027841  0  0  0.083378  0.11635  0  1.027525  0
H  H38  1  0.44398545  0.28209816  0.30590274  1  0  0.082086  0  0.989364  0  0  0.100132  0  1.059027  0  0  0.10044  0  1.060603  0  0  0.077699  0.09989  0  1.057939  0
H  H39  1  0.71790180  0.55601412  0.19409685  1  0  0.0821  0  0.989327  0  0  0.100117  0  1.059022  0  0  0.100426  0  1.060596  0  0  0.077713  0.099877  0  1.057932  0
H  H40  1  0.55601387  0.71790121  0.69409515  1  0  0.082127  0  0.989361  0  0  0.100158  0  1.059035  0  0  0.100467  0  1.060609  0  0  0.077715  0.099911  0  1.057954  0
H  H41  1  0.28209757  0.44398636  0.80590460  1  0  0.08205  0  0.989397  0  0  0.100104  0  1.059052  0  0  0.100412  0  1.060629  0  0  0.077701  0.099858  0  1.057969  0
H  H42  1  0.58355088  0.38047706  0.40003180  1  0  0.093666  0  0.97185  0  0  0.115298  0  1.033536  0  0  0.116863  0  1.033212  0  0  0.082403  0.114004  0  1.03413  0
H  H43  1  0.61952465  0.41644944  0.09996702  1  0  0.0936  0  0.971869  0  0  0.115232  0  1.033567  0  0  0.116798  0  1.033241  0  0  0.082375  0.113936  0  1.034164  0
H  H44  1  0.41644959  0.61952449  0.59996811  1  0  0.093634  0  0.971838  0  0  0.115263  0  1.033532  0  0  0.116827  0  1.03321  0  0  0.082401  0.113969  0  1.034126  0
H  H45  1  0.38047468  0.58354994  0.90003259  1  0  0.093621  0  0.971853  0  0  0.115256  0  1.033547  0  0  0.116821  0  1.033223  0  0  0.082388  0.113959  0  1.034145  0
C  C46  1  0.56510547  0.00151423  0.81021326  1  0  0.001431  0  3.797335  0  0  -0.006009  0  4.063243  0  0  -0.007127  0  4.08288  0  0  0.0847  -0.005475  0  4.050148  0
C  C47  1  0.99848482  0.43489233  0.68978245  1  0  0.001449  0  3.797375  0  0  -0.006012  0  4.063318  0  0  -0.00713  0  4.082956  0  0  0.084608  -0.005472  0  4.050219  0
C  C48  1  0.43489500  0.99848732  0.18978579  1  0  0.001471  0  3.797273  0  0  -0.005964  0  4.063212  0  0  -0.007083  0  4.082851  0  0  0.084719  -0.00543  0  4.050112  0
C  C49  1  0.00151456  0.56511029  0.31021400  1  0  0.001515  0  3.797213  0  0  -0.005997  0  4.063267  0  0  -0.007115  0  4.082906  0  0  0.084653  -0.005458  0  4.050164  0
C  C50  1  0.41508805  0.02281306  0.79977600  1  0  -0.004447  0  3.71989  0  0  -0.018974  0  3.97964  0  0  -0.020959  0  3.997746  0  0  0.088404  -0.017079  0  3.967101  0
C  C51  1  0.97718720  0.58490929  0.70022028  1  0  -0.004396  0  3.719768  0  0  -0.019  0  3.979558  0  0  -0.020985  0  3.997666  0  0  0.088428  -0.017104  0  3.967015  0
C  C52  1  0.58491238  0.97718632  0.20022458  1  0  -0.004416  0  3.719694  0  0  -0.019011  0  3.979408  0  0  -0.020997  0  3.997514  0  0  0.08837  -0.017117  0  3.966866  0
C  C53  1  0.02281215  0.41509117  0.29977857  1  0  -0.00442  0  3.719585  0  0  -0.018961  0  3.979386  0  0  -0.020945  0  3.997492  0  0  0.088417  -0.017063  0  3.966836  0
C  C54  1  0.52073774  0.16581276  0.69134950  1  0  0.422742  0  3.656348  0  0  0.391884  0  3.935961  0  0  0.407572  0  3.948287  0  0  0.246721  0.381945  0  3.927083  0
C  C55  1  0.83418810  0.47926281  0.80864981  1  0  0.422776  0  3.65643  0  0  0.391928  0  3.935975  0  0  0.407622  0  3.948292  0  0  0.246723  0.38199  0  3.927096  0
C  C56  1  0.47926164  0.83418772  0.30865280  1  0  0.422732  0  3.656449  0  0  0.391845  0  3.935997  0  0  0.407534  0  3.94832  0  0  0.246711  0.381905  0  3.927116  0
C  C57  1  0.16581122  0.52073656  0.19134808  1  0  0.422685  0  3.656384  0  0  0.391807  0  3.93599  0  0  0.407494  0  3.94832  0  0  0.246674  0.381867  0  3.92711  0
C  C58  1  0.65224972  0.89534499  0.87322025  1  0  0.642682  0  3.914066  0  0  0.585419  0  4.225241  0  0  0.619705  0  4.214876  0  0  0.223116  0.562248  0  4.231718  0
C  C59  1  0.10465589  0.34774753  0.62677792  1  0  0.642681  0  3.914039  0  0  0.585451  0  4.22516  0  0  0.619741  0  4.214801  0  0  0.223126  0.562273  0  4.231642  0
C  C60  1  0.34775182  0.10465655  0.12677802  1  0  0.642736  0  3.913936  0  0  0.585435  0  4.225159  0  0  0.619728  0  4.214798  0  0  0.223116  0.562266  0  4.231629  0
C  C61  1  0.89534232  0.65224969  0.37322313  1  0  0.642689  0  3.913963  0  0  0.585391  0  4.225221  0  0  0.619678  0  4.214863  0  0  0.223126  0.562213  0  4.231698  0
C  C62  1  0.29623503  0.96412049  0.85476441  1  0  0.65749  0  3.887543  0  0  0.603845  0  4.189824  0  0  0.63865  0  4.178561  0  0  0.234928  0.580078  0  4.196886  0
C  C63  1  0.03587896  0.70376342  0.64523153  1  0  0.657491  0  3.887542  0  0  0.603895  0  4.189758  0  0  0.638699  0  4.178498  0  0  0.234957  0.58013  0  4.196814  0
C  C64  1  0.70377181  0.03587451  0.14523462  1  0  0.657307  0  3.887722  0  0  0.603726  0  4.189923  0  0  0.638529  0  4.178665  0  0  0.234861  0.57996  0  4.196979  0
C  C65  1  0.96412044  0.29623816  0.35477175  1  0  0.657481  0  3.887347  0  0  0.603869  0  4.18959  0  0  0.638674  0  4.178332  0  0  0.234958  0.580102  0  4.196641  0
C  C66  1  0.53441879  0.27201906  0.60615110  1  0  -0.220283  0  3.686915  0  0  -0.259139  0  3.93724  0  0  -0.262211  0  3.947489  0  0  -0.149442  -0.257198  0  3.930282  0
C  C67  1  0.72798303  0.46558017  0.89384844  1  0  -0.220265  0  3.687037  0  0  -0.259119  0  3.937323  0  0  -0.262192  0  3.947562  0  0  -0.149403  -0.257178  0  3.930364  0
C  C68  1  0.46557952  0.72798252  0.39385121  1  0  -0.220284  0  3.686976  0  0  -0.259082  0  3.937269  0  0  -0.262149  0  3.947506  0  0  -0.149406  -0.25714  0  3.930306  0
C  C69  1  0.27201520  0.53441920  0.10614935  1  0  -0.220221  0  3.686979  0  0  -0.259021  0  3.937242  0  0  -0.262092  0  3.947485  0  0  -0.149386  -0.257079  0  3.930279  0
C  C70  1  0.48091837  0.20983562  0.47901190  1  0  -0.042512  0  3.670268  0  0  -0.079046  0  3.931009  0  0  -0.079496  0  3.945146  0  0  -0.165508  -0.078469  0  3.9215  0
C  C71  1  0.79016748  0.51908161  0.02098855  1  0  -0.042688  0  3.670471  0  0  -0.079224  0  3.931182  0  0  -0.079676  0  3.945319  0  0  -0.165551  -0.078647  0  3.921676  0
C  C72  1  0.51908107  0.79016812  0.52098984  1  0  -0.042588  0  3.670365  0  0  -0.079145  0  3.931076  0  0  -0.079596  0  3.94521  0  0  -0.165536  -0.078561  0  3.921561  0
C  C73  1  0.20983073  0.48091668  0.97901001  1  0  -0.042627  0  3.670476  0  0  -0.079171  0  3.931181  0  0  -0.079623  0  3.945319  0  0  -0.165521  -0.07859  0  3.92167  0
C  C74  1  0.47654956  0.32752298  0.39698328  1  0  -0.285908  0  3.704853  0  0  -0.359314  0  3.951233  0  0  -0.361414  0  3.962119  0  0  -0.25311  -0.357558  0  3.943956  0
C  C75  1  0.67247959  0.52344995  0.10301657  1  0  -0.285751  0  3.704803  0  0  -0.359128  0  3.951179  0  0  -0.361227  0  3.962066  0  0  -0.253069  -0.35737  0  3.943901  0
C  C76  1  0.52344982  0.67247857  0.60301653  1  0  -0.285926  0  3.704882  0  0  -0.359316  0  3.951263  0  0  -0.361415  0  3.962148  0  0  -0.253132  -0.357554  0  3.943994  0
C  C77  1  0.32751978  0.47655053  0.89698401  1  0  -0.285758  0  3.704834  0  0  -0.359164  0  3.951211  0  0  -0.361263  0  3.9621  0  0  -0.253076  -0.3574  0  3.943941  0
N  N78  1  0.62869077  0.09187966  0.74350602  1  0  -0.484521  0  3.047553  0  0  -0.441544  0  3.320789  0  0  -0.457922  0  3.335601  0  0  -0.379294  -0.430626  0  3.311076  0
N  N79  1  0.90812229  0.37130895  0.75649451  1  0  -0.484545  0  3.047467  0  0  -0.441575  0  3.3207  0  0  -0.45796  0  3.335515  0  0  -0.379293  -0.430657  0  3.310985  0
N  N80  1  0.37130858  0.90812080  0.25649369  1  0  -0.484554  0  3.047514  0  0  -0.441579  0  3.320758  0  0  -0.457963  0  3.335576  0  0  -0.379303  -0.430662  0  3.311044  0
N  N81  1  0.09187815  0.62869151  0.24350530  1  0  -0.484572  0  3.047479  0  0  -0.441546  0  3.320727  0  0  -0.457929  0  3.335545  0  0  -0.379311  -0.43063  0  3.311013  0
N  N82  1  0.39112560  0.12664992  0.72442359  1  0  -0.327121  0  3.373026  0  0  -0.268777  0  3.602941  0  0  -0.284881  0  3.616546  0  0  -0.35762  -0.257713  0  3.592896  0
N  N83  1  0.87334930  0.60887370  0.77557487  1  0  -0.327185  0  3.372974  0  0  -0.268774  0  3.602825  0  0  -0.284873  0  3.616417  0  0  -0.357611  -0.257712  0  3.592784  0
N  N84  1  0.60887262  0.87334837  0.27557583  1  0  -0.327157  0  3.373011  0  0  -0.268672  0  3.602787  0  0  -0.284769  0  3.616386  0  0  -0.357622  -0.257611  0  3.592742  0
N  N85  1  0.12665009  0.39112786  0.22442581  1  0  -0.327149  0  3.372942  0  0  -0.268801  0  3.602895  0  0  -0.284898  0  3.616486  0  0  -0.357631  -0.257739  0  3.592847  0
O  O86  1  0.78749490  0.88850763  0.86203312  1  0  -0.671678  0  2.02539  0  0  -0.608407  0  2.262426  0  0  -0.63162  0  2.249448  0  0  -0.333191  -0.592378  0  2.270735  0
O  O87  1  0.11149752  0.21250104  0.63796577  1  0  -0.67169  0  2.025294  0  0  -0.608418  0  2.262321  0  0  -0.631614  0  2.249293  0  0  -0.333145  -0.592382  0  2.270634  0
O  O88  1  0.21250662  0.11149282  0.13796506  1  0  -0.671739  0  2.025316  0  0  -0.608444  0  2.262389  0  0  -0.631643  0  2.249364  0  0  -0.333195  -0.592413  0  2.270694  0
O  O89  1  0.88850177  0.78749617  0.36203452  1  0  -0.671683  0  2.025168  0  0  -0.608389  0  2.262266  0  0  -0.631604  0  2.249285  0  0  -0.333147  -0.592356  0  2.270575  0
O  O90  1  0.58768361  0.81165037  0.93273258  1  0  -0.573897  0  2.02006  0  0  -0.523054  0  2.250964  0  0  -0.547445  0  2.242577  0  0  -0.304199  -0.506257  0  2.255982  0
O  O91  1  0.18835175  0.41231322  0.56726734  1  0  -0.573883  0  2.020047  0  0  -0.523063  0  2.250954  0  0  -0.547447  0  2.242549  0  0  -0.304193  -0.506282  0  2.256017  0
O  O92  1  0.41231684  0.18835116  0.06726474  1  0  -0.573896  0  2.019994  0  0  -0.52307  0  2.250952  0  0  -0.547458  0  2.242554  0  0  -0.304195  -0.506276  0  2.255972  0
O  O93  1  0.81164543  0.58768619  0.43273468  1  0  -0.573906  0  2.020064  0  0  -0.523051  0  2.250991  0  0  -0.547431  0  2.242595  0  0  -0.304205  -0.506268  0  2.256047  0
O  O94  1  0.32697698  0.86030111  0.92184714  1  0  -0.567607  0  2.08707  0  0  -0.505929  0  2.303534  0  0  -0.53047  0  2.291293  0  0  -0.310633  -0.489069  0  2.311265  0
O  O95  1  0.13969855  0.67302221  0.57815022  1  0  -0.567625  0  2.087024  0  0  -0.505957  0  2.303464  0  0  -0.530498  0  2.291223  0  0  -0.31066  -0.489096  0  2.311195  0
O  O96  1  0.67302674  0.13969936  0.07815383  1  0  -0.567579  0  2.086942  0  0  -0.505944  0  2.303391  0  0  -0.530485  0  2.291158  0  0  -0.31062  -0.489086  0  2.311118  0
O  O97  1  0.86029968  0.32697609  0.42185093  1  0  -0.567643  0  2.08709  0  0  -0.505965  0  2.303542  0  0  -0.530509  0  2.291313  0  0  -0.310664  -0.489106  0  2.311271  0
O  O98  1  0.17120842  0.01249612  0.83954464  1  0  -0.627516  0  1.999027  0  0  -0.571038  0  2.241023  0  0  -0.593538  0  2.229593  0  0  -0.345481  -0.555391  0  2.248457  0
O  O99  1  0.98750552  0.82879049  0.66045603  1  0  -0.627539  0  1.999071  0  0  -0.571068  0  2.241041  0  0  -0.593573  0  2.229626  0  0  -0.345479  -0.555415  0  2.248457  0
O  O100  1  0.82879299  0.98749889  0.16045391  1  0  -0.627391  0  1.999338  0  0  -0.570943  0  2.24133  0  0  -0.593442  0  2.229904  0  0  -0.345423  -0.555293  0  2.248752  0
O  O101  1  0.01249811  0.17120562  0.33954541  1  0  -0.627511  0  1.998899  0  0  -0.571029  0  2.240882  0  0  -0.593533  0  2.229456  0  0  -0.345455  -0.555379  0  2.248309  0
O  O102  1  0.95456721  0.17318050  0.97501422  1  0  -0.859685  0  1.817039  0  0  -0.80906  0  2.00288  0  0  -0.826833  0  1.972122  0  0  -0.613421  -0.796323  0  2.025296  0
O  O103  1  0.82682227  0.04543728  0.52498609  1  0  -0.859675  0  1.81713  0  0  -0.809038  0  2.002925  0  0  -0.826816  0  1.972169  0  0  -0.613351  -0.796293  0  2.025332  0
O  O104  1  0.04543869  0.82682104  0.02498617  1  0  -0.859681  0  1.817166  0  0  -0.809051  0  2.00296  0  0  -0.826831  0  1.972213  0  0  -0.613374  -0.796304  0  2.025368  0
O  O105  1  0.17317704  0.95456102  0.47501343  1  0  -0.859658  0  1.817101  0  0  -0.809033  0  2.002956  0  0  -0.82681  0  1.972193  0  0  -0.613347  -0.796287  0  2.02537  0
