# generated using pymatgen
data_ZnH6C8(SN2)2
_symmetry_space_group_name_H-M   'P 1'
_cell_length_a   7.73010164
_cell_length_b   7.75776510
_cell_length_c   16.58553529
_cell_angle_alpha   89.99946466
_cell_angle_beta   89.99975317
_cell_angle_gamma   90.00016745
_symmetry_Int_Tables_number   1
_chemical_formula_structural   ZnH6C8(SN2)2
_chemical_formula_sum   'Zn4 H24 C32 S8 N16'
_cell_volume   994.60656753
_cell_formula_units_Z   4
loop_
 _symmetry_equiv_pos_site_id
 _symmetry_equiv_pos_as_xyz
  1  'x, y, z'
loop_
 _atom_site_type_symbol
 _atom_site_label
 _atom_site_symmetry_multiplicity
 _atom_site_fract_x
 _atom_site_fract_y
 _atom_site_fract_z
 _atom_site_occupancy
 _atom_site_hle17_bader_spin_density
 _atom_site_hle17_ddec_charge
 _atom_site_hle17_ddec_spin_density
 _atom_site_hle17_ddec_sum_bond_order
 _atom_site_hle17_magmom
 _atom_site_hse06_10hf_bader_spin_density
 _atom_site_hse06_10hf_ddec_charge
 _atom_site_hse06_10hf_ddec_spin_density
 _atom_site_hse06_10hf_ddec_sum_bond_order
 _atom_site_hse06_10hf_magmom
 _atom_site_hse06_bader_spin_density
 _atom_site_hse06_ddec_charge
 _atom_site_hse06_ddec_spin_density
 _atom_site_hse06_ddec_sum_bond_order
 _atom_site_hse06_magmom
 _atom_site_pbe_bader_spin_density
 _atom_site_pbe_cm5_charge
 _atom_site_pbe_ddec_charge
 _atom_site_pbe_ddec_spin_density
 _atom_site_pbe_ddec_sum_bond_order
 _atom_site_pbe_magmom
Zn  Zn0  1  0.91916142  0.43218259  0.37581780  1  0  0.810479  0  2.034242  0  0  0.619351  0  2.492111  0  0  0.661215  0  2.451951  0  0  0.619862  0.590588  0  2.519535  0
Zn  Zn1  1  0.08084341  0.93218111  0.62418276  1  0  0.810457  0  2.034266  0  0  0.619308  0  2.492151  0  0  0.661176  0  2.451991  0  0  0.619858  0.590543  0  2.519575  0
Zn  Zn2  1  0.41916012  0.43218698  0.12418578  1  0  0.810384  0  2.034353  0  0  0.619202  0  2.492242  0  0  0.661075  0  2.452079  0  0  0.619813  0.590438  0  2.51967  0
Zn  Zn3  1  0.58083307  0.93218703  0.87581660  1  0  0.810445  0  2.03427  0  0  0.619303  0  2.49214  0  0  0.661174  0  2.451981  0  0  0.619838  0.590533  0  2.51956  0
H  H4  1  0.65494076  0.97956055  0.34210739  1  0  0.069316  0  0.953446  0  0  0.077428  0  1.021965  0  0  0.080051  0  1.018931  0  0  0.103696  0.075475  0  1.02411  0
H  H5  1  0.34505516  0.47956497  0.65789297  1  0  0.069285  0  0.953505  0  0  0.077396  0  1.022018  0  0  0.080019  0  1.018999  0  0  0.103701  0.075444  0  1.024164  0
H  H6  1  0.15493138  0.97956039  0.15789315  1  0  0.069352  0  0.953522  0  0  0.077504  0  1.021979  0  0  0.080096  0  1.018978  0  0  0.103703  0.075552  0  1.024125  0
H  H7  1  0.84507101  0.47955611  0.84210360  1  0  0.069401  0  0.953498  0  0  0.077531  0  1.02199  0  0  0.080143  0  1.018961  0  0  0.10374  0.075579  0  1.024136  0
H  H8  1  0.54105540  0.05294957  0.20244865  1  0  0.117107  0  0.981149  0  0  0.122013  0  1.049471  0  0  0.125304  0  1.049689  0  0  0.100856  0.119604  0  1.049654  0
H  H9  1  0.45894315  0.55295987  0.79755054  1  0  0.117055  0  0.98112  0  0  0.121946  0  1.049474  0  0  0.125237  0  1.049691  0  0  0.100826  0.119538  0  1.049655  0
H  H10  1  0.04105765  0.05295303  0.29755491  1  0  0.116959  0  0.981191  0  0  0.121871  0  1.049534  0  0  0.125162  0  1.049755  0  0  0.100794  0.119462  0  1.049712  0
H  H11  1  0.95894350  0.55295125  0.70244429  1  0  0.116996  0  0.98123  0  0  0.121928  0  1.049545  0  0  0.125217  0  1.049766  0  0  0.100824  0.119517  0  1.049723  0
H  H12  1  0.47028036  0.80272044  0.11139487  1  0  0.078673  0  0.963808  0  0  0.083068  0  1.036725  0  0  0.085091  0  1.034529  0  0  0.111645  0.081519  0  1.038292  0
H  H13  1  0.52973315  0.30272461  0.88860324  1  0  0.078648  0  0.963892  0  0  0.08311  0  1.036696  0  0  0.085141  0  1.034511  0  0  0.111651  0.081561  0  1.038264  0
H  H14  1  0.97027507  0.80271580  0.38860762  1  0  0.07871  0  0.963746  0  0  0.08305  0  1.036707  0  0  0.085069  0  1.03451  0  0  0.111659  0.081501  0  1.038276  0
H  H15  1  0.02972809  0.30272152  0.61138869  1  0  0.078745  0  0.963618  0  0  0.083129  0  1.036586  0  0  0.085141  0  1.034381  0  0  0.111672  0.081578  0  1.038155  0
H  H16  1  0.69667082  0.86420086  0.64669710  1  0  0.070835  0  0.975452  0  0  0.0763  0  1.048577  0  0  0.07861  0  1.045463  0  0  0.102723  0.07456  0  1.05077  0
H  H17  1  0.30333899  0.36420873  0.35330135  1  0  0.071012  0  0.975518  0  0  0.076399  0  1.0487  0  0  0.078708  0  1.045589  0  0  0.102772  0.07466  0  1.050892  0
H  H18  1  0.19664020  0.86420965  0.85330051  1  0  0.071155  0  0.975384  0  0  0.076503  0  1.048624  0  0  0.078808  0  1.045522  0  0  0.102781  0.074765  0  1.050813  0
H  H19  1  0.80333469  0.36420639  0.14669914  1  0  0.070944  0  0.975398  0  0  0.076302  0  1.048646  0  0  0.078612  0  1.045534  0  0  0.102749  0.074563  0  1.050837  0
H  H20  1  0.47489766  0.69607560  0.56734963  1  0  0.111555  0  1.019009  0  0  0.119956  0  1.085064  0  0  0.123678  0  1.084724  0  0  0.089489  0.117277  0  1.085552  0
H  H21  1  0.52511424  0.19609283  0.43265618  1  0  0.111577  0  1.019146  0  0  0.120004  0  1.085148  0  0  0.123724  0  1.084808  0  0  0.089495  0.117326  0  1.085638  0
H  H22  1  0.97488290  0.69608296  0.93265842  1  0  0.111514  0  1.019179  0  0  0.119957  0  1.085177  0  0  0.123675  0  1.084837  0  0  0.089495  0.11728  0  1.085666  0
H  H23  1  0.02510184  0.19608160  0.06734558  1  0  0.111583  0  1.019083  0  0  0.119985  0  1.085129  0  0  0.123707  0  1.084784  0  0  0.089532  0.117307  0  1.085616  0
H  H24  1  0.58918622  0.51406704  0.45146037  1  0  0.073729  0  0.950565  0  0  0.083913  0  1.016526  0  0  0.086005  0  1.013379  0  0  0.112819  0.082188  0  1.018981  0
H  H25  1  0.41081998  0.01407902  0.54854381  1  0  0.073726  0  0.950537  0  0  0.083879  0  1.016539  0  0  0.085974  0  1.013383  0  0  0.112752  0.082146  0  1.019003  0
H  H26  1  0.08917399  0.51408584  0.04854652  1  0  0.073807  0  0.950477  0  0  0.083953  0  1.016464  0  0  0.08605  0  1.013305  0  0  0.112795  0.082216  0  1.018929  0
H  H27  1  0.91081151  0.01408213  0.95145525  1  0  0.073758  0  0.950561  0  0  0.083925  0  1.016527  0  0  0.086021  0  1.013372  0  0  0.112783  0.08221  0  1.018972  0
C  C28  1  0.62313759  0.58917692  0.26775492  1  0  0.417442  0  3.755567  0  0  0.395111  0  4.029087  0  0  0.416455  0  4.040579  0  0  0.229662  0.380701  0  4.021109  0
C  C29  1  0.37686107  0.08918509  0.73224713  1  0  0.417219  0  3.755742  0  0  0.395005  0  4.029105  0  0  0.416346  0  4.040597  0  0  0.229663  0.380596  0  4.021125  0
C  C30  1  0.12313916  0.58917654  0.23225038  1  0  0.417379  0  3.755467  0  0  0.395011  0  4.02905  0  0  0.416353  0  4.040545  0  0  0.229592  0.380603  0  4.021069  0
C  C31  1  0.87686597  0.08917386  0.76774866  1  0  0.417246  0  3.755689  0  0  0.394901  0  4.029225  0  0  0.416241  0  4.040723  0  0  0.229558  0.380491  0  4.021246  0
C  C32  1  0.62559709  0.87968297  0.29753385  1  0  0.194242  0  3.70965  0  0  0.166655  0  3.960683  0  0  0.179379  0  3.973679  0  0  0.063341  0.158521  0  3.951718  0
C  C33  1  0.37440759  0.37969302  0.70246634  1  0  0.194237  0  3.709603  0  0  0.166645  0  3.960649  0  0  0.179362  0  3.973638  0  0  0.063314  0.15851  0  3.951687  0
C  C34  1  0.12559247  0.87968835  0.20246958  1  0  0.19396  0  3.709865  0  0  0.166353  0  3.960872  0  0  0.1791  0  3.973875  0  0  0.063237  0.158217  0  3.951909  0
C  C35  1  0.87441092  0.37968248  0.79752760  1  0  0.193833  0  3.709982  0  0  0.166223  0  3.961022  0  0  0.178957  0  3.974026  0  0  0.063136  0.158088  0  3.952059  0
C  C36  1  0.56280403  0.92055882  0.22126797  1  0  -0.198469  0  3.718044  0  0  -0.208284  0  3.967531  0  0  -0.220652  0  3.988167  0  0  -0.100561  -0.200573  0  3.953931  0
C  C37  1  0.43719819  0.42056236  0.77873325  1  0  -0.198291  0  3.718269  0  0  -0.208113  0  3.967748  0  0  -0.220481  0  3.988392  0  0  -0.100444  -0.200401  0  3.954147  0
C  C38  1  0.06280386  0.92055235  0.27873722  1  0  -0.19815  0  3.71831  0  0  -0.207961  0  3.967727  0  0  -0.22033  0  3.988358  0  0  -0.100403  -0.200247  0  3.954122  0
C  C39  1  0.93720094  0.42055465  0.72126159  1  0  -0.198067  0  3.718218  0  0  -0.207878  0  3.967632  0  0  -0.220247  0  3.988265  0  0  -0.100358  -0.200161  0  3.954025  0
C  C40  1  0.52495721  0.78252209  0.17110592  1  0  0.196961  0  3.687939  0  0  0.157822  0  3.941214  0  0  0.171024  0  3.955757  0  0  0.057038  0.149337  0  3.931353  0
C  C41  1  0.47504589  0.28253504  0.82889348  1  0  0.196804  0  3.688132  0  0  0.157679  0  3.941335  0  0  0.170859  0  3.9559  0  0  0.056956  0.149195  0  3.931472  0
C  C42  1  0.02496434  0.78252363  0.32889813  1  0  0.196923  0  3.688062  0  0  0.157843  0  3.941342  0  0  0.17105  0  3.955882  0  0  0.057022  0.149359  0  3.931479  0
C  C43  1  0.97504653  0.28252061  0.67109887  1  0  0.196836  0  3.687848  0  0  0.15767  0  3.941189  0  0  0.17089  0  3.955713  0  0  0.056977  0.149188  0  3.931322  0
C  C44  1  0.96281891  0.64442008  0.52788113  1  0  0.41143  0  3.794117  0  0  0.381076  0  4.071493  0  0  0.405715  0  4.082347  0  0  0.216054  0.364739  0  4.063502  0
C  C45  1  0.03719284  0.14441704  0.47211887  1  0  0.411243  0  3.794313  0  0  0.380999  0  4.071517  0  0  0.405637  0  4.082373  0  0  0.216005  0.364666  0  4.063521  0
C  C46  1  0.46279882  0.64442260  0.97211390  1  0  0.411478  0  3.794314  0  0  0.381143  0  4.071633  0  0  0.40578  0  4.082489  0  0  0.215953  0.364806  0  4.063632  0
C  C47  1  0.53718448  0.14442483  0.02788189  1  0  0.411449  0  3.794051  0  0  0.381071  0  4.071456  0  0  0.405705  0  4.082317  0  0  0.216058  0.364737  0  4.06346  0
C  C48  1  0.73445178  0.77360442  0.59963155  1  0  0.208508  0  3.719178  0  0  0.167233  0  3.971789  0  0  0.18331  0  3.984604  0  0  0.059584  0.156787  0  3.963026  0
C  C49  1  0.26556035  0.27361897  0.40036970  1  0  0.208302  0  3.719374  0  0  0.167125  0  3.971937  0  0  0.183201  0  3.98475  0  0  0.059525  0.156677  0  3.963178  0
C  C50  1  0.23442589  0.77362257  0.90036879  1  0  0.208205  0  3.719379  0  0  0.167018  0  3.971979  0  0  0.183094  0  3.984792  0  0  0.059614  0.156565  0  3.963217  0
C  C51  1  0.76555131  0.27361887  0.09963005  1  0  0.208354  0  3.719285  0  0  0.167192  0  3.971841  0  0  0.183269  0  3.984653  0  0  0.059529  0.156747  0  3.96308  0
C  C52  1  0.61260999  0.68173416  0.55582864  1  0  -0.215851  0  3.720394  0  0  -0.222957  0  3.969532  0  0  -0.237907  0  3.989557  0  0  -0.107908  -0.213475  0  3.956264  0
C  C53  1  0.38740188  0.18174946  0.44417361  1  0  -0.215951  0  3.720603  0  0  -0.223155  0  3.969765  0  0  -0.238103  0  3.98979  0  0  -0.107944  -0.213675  0  3.956502  0
C  C54  1  0.11259274  0.68174240  0.94417295  1  0  -0.215862  0  3.720735  0  0  -0.223069  0  3.969871  0  0  -0.238011  0  3.989893  0  0  -0.108009  -0.21359  0  3.956607  0
C  C55  1  0.88739066  0.18174509  0.05582750  1  0  -0.215833  0  3.720532  0  0  -0.223002  0  3.969645  0  0  -0.237947  0  3.989668  0  0  -0.107904  -0.213521  0  3.95638  0
C  C56  1  0.67530013  0.58128585  0.49305422  1  0  0.224941  0  3.681151  0  0  0.18226  0  3.932758  0  0  0.198993  0  3.944553  0  0  0.06965  0.171446  0  3.924654  0
C  C57  1  0.32471274  0.08130357  0.50694907  1  0  0.225067  0  3.681104  0  0  0.182427  0  3.932679  0  0  0.199158  0  3.944476  0  0  0.069738  0.171618  0  3.924583  0
C  C58  1  0.17528441  0.58131065  0.00695162  1  0  0.224942  0  3.68127  0  0  0.182338  0  3.932828  0  0  0.199069  0  3.944625  0  0  0.069651  0.171534  0  3.924732  0
C  C59  1  0.82470129  0.08130455  0.99305107  1  0  0.22489  0  3.681221  0  0  0.182256  0  3.932782  0  0  0.198988  0  3.944579  0  0  0.069654  0.171435  0  3.924676  0
S  S60  1  0.67531499  0.37903243  0.29544029  1  0  -0.450527  0  2.094728  0  0  -0.416412  0  2.467639  0  0  -0.437426  0  2.455992  0  0  -0.173779  -0.401228  0  2.475135  0
S  S61  1  0.32469357  0.87903777  0.70456352  1  0  -0.450531  0  2.094776  0  0  -0.416458  0  2.467656  0  0  -0.437474  0  2.456014  0  0  -0.173791  -0.401273  0  2.475152  0
S  S62  1  0.17531035  0.37903261  0.20456642  1  0  -0.450544  0  2.094788  0  0  -0.416413  0  2.467738  0  0  -0.43743  0  2.456088  0  0  -0.173784  -0.401228  0  2.475232  0
S  S63  1  0.82468398  0.87903372  0.79543559  1  0  -0.450539  0  2.094793  0  0  -0.416422  0  2.467718  0  0  -0.437439  0  2.456071  0  0  -0.173788  -0.401236  0  2.475216  0
S  S64  1  0.17752524  0.61504331  0.51672647  1  0  -0.465859  0  1.89253  0  0  -0.455309  0  2.203279  0  0  -0.476158  0  2.201459  0  0  -0.213827  -0.440297  0  2.204024  0
S  S65  1  0.82248643  0.11503204  0.48327306  1  0  -0.465827  0  1.892599  0  0  -0.455334  0  2.203309  0  0  -0.476183  0  2.201483  0  0  -0.213849  -0.440324  0  2.204053  0
S  S66  1  0.67750224  0.61504063  0.98327046  1  0  -0.465845  0  1.892705  0  0  -0.455329  0  2.203472  0  0  -0.476174  0  2.201643  0  0  -0.2138  -0.440318  0  2.20422  0
S  S67  1  0.32247838  0.11504375  0.01672847  1  0  -0.465892  0  1.892471  0  0  -0.455332  0  2.203228  0  0  -0.476182  0  2.201407  0  0  -0.213862  -0.440321  0  2.203974  0
N  N68  1  0.55030064  0.61746921  0.19373863  1  0  -0.409263  0  3.212466  0  0  -0.319584  0  3.476146  0  0  -0.343041  0  3.487897  0  0  -0.332062  -0.304001  0  3.46793  0
N  N69  1  0.44970715  0.11747739  0.80626210  1  0  -0.40906  0  3.21222  0  0  -0.319491  0  3.475952  0  0  -0.342923  0  3.487663  0  0  -0.332036  -0.30391  0  3.467743  0
N  N70  1  0.05029763  0.61746992  0.30626669  1  0  -0.409324  0  3.212359  0  0  -0.31969  0  3.476127  0  0  -0.343121  0  3.487818  0  0  -0.332101  -0.304111  0  3.46792  0
N  N71  1  0.94969981  0.11746894  0.69373162  1  0  -0.40927  0  3.212558  0  0  -0.319611  0  3.476287  0  0  -0.343044  0  3.487984  0  0  -0.332067  -0.304032  0  3.468082  0
N  N72  1  0.65689000  0.71737573  0.32025216  1  0  -0.399362  0  3.078574  0  0  -0.35144  0  3.338458  0  0  -0.370618  0  3.352453  0  0  -0.319679  -0.338588  0  3.32879  0
N  N73  1  0.34311292  0.21738228  0.67974873  1  0  -0.399263  0  3.078449  0  0  -0.351359  0  3.338287  0  0  -0.370538  0  3.352286  0  0  -0.319671  -0.338506  0  3.328615  0
N  N74  1  0.15688688  0.71737513  0.17975131  1  0  -0.399166  0  3.078404  0  0  -0.351223  0  3.338294  0  0  -0.370402  0  3.352281  0  0  -0.319592  -0.338371  0  3.328623  0
N  N75  1  0.84311991  0.21737257  0.82024777  1  0  -0.399097  0  3.078383  0  0  -0.35115  0  3.338265  0  0  -0.370329  0  3.35226  0  0  -0.319559  -0.338297  0  3.328597  0
N  N76  1  0.84501592  0.56347055  0.47856074  1  0  -0.415577  0  3.253051  0  0  -0.323631  0  3.524533  0  0  -0.349083  0  3.535123  0  0  -0.338673  -0.306745  0  3.516989  0
N  N77  1  0.15499301  0.06347330  0.52144082  1  0  -0.415607  0  3.253183  0  0  -0.323685  0  3.524592  0  0  -0.349134  0  3.535177  0  0  -0.338659  -0.306784  0  3.517  0
N  N78  1  0.34500395  0.56347700  0.02143941  1  0  -0.41574  0  3.253359  0  0  -0.323783  0  3.524767  0  0  -0.349235  0  3.535358  0  0  -0.338599  -0.306889  0  3.517202  0
N  N79  1  0.65498429  0.06347844  0.97855973  1  0  -0.415547  0  3.253048  0  0  -0.323619  0  3.524531  0  0  -0.349073  0  3.535129  0  0  -0.338649  -0.30673  0  3.516978  0
N  N80  1  0.90436420  0.75558415  0.58670811  1  0  -0.430237  0  3.301841  0  0  -0.334428  0  3.572064  0  0  -0.359821  0  3.581413  0  0  -0.349896  -0.317703  0  3.565644  0
N  N81  1  0.09564400  0.25557989  0.41329081  1  0  -0.430132  0  3.301875  0  0  -0.334357  0  3.571969  0  0  -0.35975  0  3.581319  0  0  -0.349845  -0.317633  0  3.565547  0
N  N82  1  0.40434466  0.75558657  0.91328474  1  0  -0.430219  0  3.301782  0  0  -0.334406  0  3.571918  0  0  -0.359795  0  3.581262  0  0  -0.349852  -0.317665  0  3.565478  0
N  N83  1  0.59563638  0.25558391  0.08671177  1  0  -0.430195  0  3.301753  0  0  -0.334383  0  3.571902  0  0  -0.359772  0  3.581246  0  0  -0.349881  -0.317664  0  3.565491  0
