# generated using pymatgen
data_Zn3H16C26(NO3)4
_symmetry_space_group_name_H-M   'P 1'
_cell_length_a   12.69160559
_cell_length_b   17.82759757
_cell_length_c   20.96585310
_cell_angle_alpha   90.00113792
_cell_angle_beta   90.00331524
_cell_angle_gamma   99.63440330
_symmetry_Int_Tables_number   1
_chemical_formula_structural   Zn3H16C26(NO3)4
_chemical_formula_sum   'Zn12 H64 C104 N16 O48'
_cell_volume   4676.84427206
_cell_formula_units_Z   4
loop_
 _symmetry_equiv_pos_site_id
 _symmetry_equiv_pos_as_xyz
  1  'x, y, z'
loop_
 _atom_site_type_symbol
 _atom_site_label
 _atom_site_symmetry_multiplicity
 _atom_site_fract_x
 _atom_site_fract_y
 _atom_site_fract_z
 _atom_site_occupancy
 _atom_site_pbe_bader_charge
 _atom_site_pbe_bader_spin_density
 _atom_site_pbe_cm5_charge
 _atom_site_pbe_ddec_charge
 _atom_site_pbe_ddec_spin_density
 _atom_site_pbe_ddec_sum_bond_order
 _atom_site_pbe_magmom
Zn  Zn0  1  0.55028848  0.22178493  0.62932109  1  1.42198  0  0.698596  1.034546  0  2.229326  0
Zn  Zn1  1  0.44972855  0.27819750  0.12931391  1  1.421999  0  0.698562  1.034562  0  2.229412  0
Zn  Zn2  1  0.44967730  0.77818548  0.37068451  1  1.421424  0  0.698556  1.034512  0  2.229638  0
Zn  Zn3  1  0.55031246  0.72179653  0.87066927  1  1.421879  0  0.69868  1.034733  0  2.229466  0
Zn  Zn4  1  0.30617324  0.22242439  0.60023903  1  1.284833  0  0.689027  0.839404  0  2.359107  0
Zn  Zn5  1  0.69385374  0.27758510  0.10025047  1  1.284978  0  0.68906  0.839529  0  2.359165  0
Zn  Zn6  1  0.69378818  0.77756117  0.39976037  1  1.284562  0  0.689007  0.839266  0  2.359197  0
Zn  Zn7  1  0.30619660  0.72244313  0.89976181  1  1.284564  0  0.688938  0.839256  0  2.35919  0
Zn  Zn8  1  0.81550515  0.24690576  0.60975176  1  1.302321  0  0.686959  0.84372  0  2.376317  0
Zn  Zn9  1  0.18450964  0.25308786  0.10973148  1  1.301833  0  0.687033  0.843944  0  2.375901  0
Zn  Zn10  1  0.18447380  0.75309387  0.39024763  1  1.302384  0  0.687028  0.843834  0  2.375887  0
Zn  Zn11  1  0.81551236  0.74690564  0.89026840  1  1.302039  0  0.686985  0.84384  0  2.375632  0
H  H12  1  0.19773892  0.24691241  0.79063216  1  0.071476  0  0.100138  0.102753  0  1.008222  0
H  H13  1  0.80225843  0.25303167  0.29065176  1  0.070771  0  0.100236  0.102829  0  1.008166  0
H  H14  1  0.80221279  0.75304120  0.20936819  1  0.0708  0  0.100176  0.102734  0  1.008305  0
H  H15  1  0.19773695  0.74693675  0.70935384  1  0.071111  0  0.100184  0.102739  0  1.008184  0
H  H16  1  0.16684327  0.25388988  0.90865549  1  0.088413  0  0.102387  0.106493  0  1.002569  0
H  H17  1  0.83316175  0.24606388  0.40867129  1  0.088793  0  0.102479  0.106584  0  1.002153  0
H  H18  1  0.83312651  0.74608517  0.09134438  1  0.088813  0  0.102315  0.106288  0  1.00222  0
H  H19  1  0.16683096  0.75392031  0.59133335  1  0.088871  0  0.102506  0.106664  0  1.002409  0
H  H20  1  0.50543778  0.27809487  0.94116643  1  0.110924  0  0.107454  0.117276  0  1.004424  0
H  H21  1  0.49456490  0.22197695  0.44116463  1  0.110517  0  0.107458  0.117136  0  1.004355  0
H  H22  1  0.49454269  0.72203546  0.05881389  1  0.11028  0  0.107336  0.117122  0  1.004334  0
H  H23  1  0.50542167  0.77803873  0.55882713  1  0.110135  0  0.107447  0.117132  0  1.004269  0
H  H24  1  0.53517499  0.26695686  0.82346833  1  0.102692  0  0.109715  0.118089  0  0.989826  0
H  H25  1  0.46484262  0.23311668  0.32345519  1  0.102473  0  0.109791  0.118276  0  0.989748  0
H  H26  1  0.46479902  0.73315519  0.17651676  1  0.102574  0  0.10969  0.118232  0  0.989594  0
H  H27  1  0.53516113  0.76688931  0.67653181  1  0.102558  0  0.109796  0.118319  0  0.989621  0
H  H28  1  0.88750455  0.06941348  0.70649548  1  0.067788  0  0.097278  0.091211  0  1.027966  0
H  H29  1  0.11251077  0.43054424  0.20651197  1  0.067513  0  0.097452  0.091473  0  1.02761  0
H  H30  1  0.11249974  0.93063042  0.29355544  1  0.069938  0  0.097248  0.091124  0  1.028183  0
H  H31  1  0.88749473  0.56941033  0.79351843  1  0.068117  0  0.097279  0.09122  0  1.028012  0
H  H32  1  0.91728175  0.95794629  0.77215471  1  0.08421  0  0.107061  0.111772  0  0.996257  0
H  H33  1  0.08272853  0.54201447  0.27217870  1  0.084469  0  0.107051  0.11164  0  0.996473  0
H  H34  1  0.08272603  0.04208640  0.22788427  1  0.084529  0  0.107054  0.111857  0  0.996379  0
H  H35  1  0.91725897  0.45794525  0.72784931  1  0.084632  0  0.107075  0.111781  0  0.996262  0
H  H36  1  0.57779185  0.88499451  0.78653626  1  0.119322  0  0.110434  0.121637  0  1.006732  0
H  H37  1  0.42222271  0.61499964  0.28654199  1  0.119475  0  0.110416  0.121548  0  1.006756  0
H  H38  1  0.42221535  0.11497821  0.21343500  1  0.119264  0  0.110438  0.121578  0  1.006672  0
H  H39  1  0.57776376  0.38501548  0.71343642  1  0.119412  0  0.110406  0.12153  0  1.006649  0
H  H40  1  0.54754218  0.99917180  0.72293425  1  0.099432  0  0.112975  0.118629  0  0.985251  0
H  H41  1  0.45246900  0.50082473  0.22293001  1  0.099343  0  0.113056  0.118665  0  0.985416  0
H  H42  1  0.45246150  0.00080761  0.27704893  1  0.099503  0  0.112974  0.118564  0  0.985395  0
H  H43  1  0.54753483  0.49919484  0.77704602  1  0.100478  0  0.113018  0.118619  0  0.985495  0
H  H44  1  0.63697225  0.44264597  0.55901925  1  0.09833  0  0.104725  0.11103  0  0.999252  0
H  H45  1  0.36306709  0.05735802  0.05899948  1  0.099047  0  0.104716  0.110929  0  0.999326  0
H  H46  1  0.36300122  0.55731900  0.44096727  1  0.09831  0  0.104698  0.110919  0  0.999076  0
H  H47  1  0.63704420  0.94270644  0.94094411  1  0.098183  0  0.104786  0.111073  0  0.99896  0
H  H48  1  0.31432683  0.42899326  0.49272328  1  0.057577  0  0.103625  0.106043  0  1.004559  0
H  H49  1  0.68570216  0.07103063  0.99270686  1  0.057598  0  0.103643  0.105931  0  1.004808  0
H  H50  1  0.68565102  0.57097411  0.50726468  1  0.058767  0  0.103768  0.106207  0  1.004652  0
H  H51  1  0.31440922  0.92901686  0.00723722  1  0.058731  0  0.103867  0.106287  0  1.004247  0
H  H52  1  0.49495984  0.03368040  0.61488788  1  0.119517  0  0.102398  0.108549  0  1.031229  0
H  H53  1  0.50502280  0.46631587  0.11487923  1  0.119603  0  0.102403  0.108563  0  1.031148  0
H  H54  1  0.50501350  0.96631002  0.38513108  1  0.119376  0  0.102379  0.108614  0  1.031155  0
H  H55  1  0.49501969  0.53367764  0.88512017  1  0.11857  0  0.102467  0.108688  0  1.031197  0
H  H56  1  0.40442753  0.06862985  0.42103852  1  0.095621  0  0.102559  0.104379  0  1.012277  0
H  H57  1  0.59563174  0.43138183  0.92104948  1  0.09438  0  0.102544  0.104356  0  1.012274  0
H  H58  1  0.59555233  0.93135736  0.57898234  1  0.094763  0  0.102666  0.104589  0  1.012312  0
H  H59  1  0.40442215  0.56862670  0.07895469  1  0.095354  0  0.102541  0.104367  0  1.012309  0
H  H60  1  0.13442447  0.34647798  0.66629163  1  0.103647  0  0.120366  0.177519  0  0.949291  0
H  H61  1  0.86558911  0.15353100  0.16626261  1  0.102769  0  0.120307  0.177319  0  0.948939  0
H  H62  1  0.86552206  0.65348623  0.33374831  1  0.103619  0  0.120447  0.177482  0  0.949154  0
H  H63  1  0.13441905  0.84646890  0.83374394  1  0.102952  0  0.120379  0.177447  0  0.948966  0
H  H64  1  0.05242197  0.37102233  0.60350879  1  0.106642  0  0.116647  0.178399  0  0.968823  0
H  H65  1  0.94758673  0.12898901  0.10348080  1  0.106305  0  0.116644  0.178299  0  0.969111  0
H  H66  1  0.94751347  0.62895911  0.39654594  1  0.10691  0  0.116589  0.178308  0  0.968936  0
H  H67  1  0.05245434  0.87101407  0.89654006  1  0.106948  0  0.116682  0.178323  0  0.969022  0
H  H68  1  0.18858319  0.35783101  0.58822431  1  0.137241  0  0.113379  0.174216  0  1.002461  0
H  H69  1  0.81143355  0.14218063  0.08818699  1  0.137268  0  0.113331  0.174131  0  1.002393  0
H  H70  1  0.81136006  0.64216309  0.41181754  1  0.136523  0  0.11341  0.174163  0  1.002036  0
H  H71  1  0.18861125  0.85781690  0.91181003  1  0.136652  0  0.113284  0.173991  0  1.002547  0
H  H72  1  0.91386164  0.10902817  0.59651698  1  0.557262  0  0.373326  0.302828  0  0.885523  0
H  H73  1  0.08615644  0.39098209  0.09650848  1  0.556992  0  0.373245  0.302486  0  0.885544  0
H  H74  1  0.08610379  0.89094903  0.40347241  1  0.558097  0  0.373373  0.302846  0  0.885563  0
H  H75  1  0.91386630  0.60901991  0.90348519  1  0.556936  0  0.373281  0.302675  0  0.885511  0
C  C76  1  0.38612509  0.24694492  0.73042329  1  1.546486  0  0.22131  0.603969  0  4.161288  0
C  C77  1  0.61389094  0.25304753  0.23042623  1  1.545839  0  0.221456  0.604318  0  4.160708  0
C  C78  1  0.61385148  0.75305464  0.26957134  1  1.547617  0  0.220927  0.603416  0  4.161937  0
C  C79  1  0.38611582  0.74694893  0.76957078  1  1.546331  0  0.221359  0.604142  0  4.160833  0
C  C80  1  0.36820649  0.25633284  0.80040733  1  0.02692  0  -0.015141  -0.031683  0  3.968259  0
C  C81  1  0.63180122  0.24366332  0.30041408  1  0.027295  0  -0.01519  -0.03189  0  3.968302  0
C  C82  1  0.63176436  0.74368749  0.19958730  1  0.027674  0  -0.014995  -0.031545  0  3.96827  0
C  C83  1  0.36820214  0.75632738  0.69958436  1  0.027283  0  -0.015246  -0.031881  0  3.968193  0
C  C84  1  0.26432466  0.25358537  0.82410449  1  -0.045864  0  -0.088512  -0.100183  0  3.998613  0
C  C85  1  0.73567354  0.24638470  0.32411733  1  -0.045212  0  -0.088767  -0.100358  0  3.998884  0
C  C86  1  0.73563689  0.74640529  0.17589110  1  -0.046006  0  -0.088625  -0.100391  0  3.998827  0
C  C87  1  0.26432165  0.75360012  0.67588207  1  -0.045698  0  -0.088632  -0.100208  0  3.998804  0
C  C88  1  0.24727060  0.25772943  0.88939133  1  -0.086928  0  -0.087822  -0.100286  0  3.989007  0
C  C89  1  0.75272454  0.24224549  0.38940280  1  -0.087803  0  -0.087724  -0.100312  0  3.988702  0
C  C90  1  0.75268976  0.74227646  0.11060425  1  -0.086126  0  -0.087696  -0.100044  0  3.988784  0
C  C91  1  0.24725966  0.75773959  0.61059994  1  -0.08775  0  -0.087763  -0.100367  0  3.988844  0
C  C92  1  0.33413562  0.26635903  0.93170412  1  0.02509  0  -0.014085  -0.025365  0  3.956548  0
C  C93  1  0.66586239  0.23364392  0.43172001  1  0.025013  0  -0.014206  -0.025304  0  3.956501  0
C  C94  1  0.66584319  0.73369659  0.06827906  1  0.02456  0  -0.014088  -0.025127  0  3.956707  0
C  C95  1  0.33412422  0.76634575  0.56828273  1  0.024505  0  -0.014133  -0.02541  0  3.956392  0
C  C96  1  0.43838541  0.27112595  0.90799697  1  -0.038406  0  -0.078158  -0.087157  0  3.949834  0
C  C97  1  0.56162195  0.22892401  0.40799718  1  -0.038076  0  -0.078176  -0.086902  0  3.949154  0
C  C98  1  0.56159751  0.72898296  0.09199003  1  -0.038118  0  -0.07814  -0.086925  0  3.949139  0
C  C99  1  0.43836478  0.77108376  0.59199602  1  -0.037397  0  -0.078245  -0.086853  0  3.949221  0
C  C100  1  0.45508380  0.26533609  0.84269341  1  -0.042056  0  -0.080087  -0.091213  0  3.959075  0
C  C101  1  0.54492808  0.23470850  0.34268979  1  -0.04217  0  -0.08015  -0.091452  0  3.958967  0
C  C102  1  0.54489342  0.73475003  0.15729502  1  -0.04292  0  -0.080141  -0.091597  0  3.958689  0
C  C103  1  0.45506923  0.76529675  0.65730675  1  -0.042183  0  -0.080082  -0.091535  0  3.958921  0
C  C104  1  0.31491626  0.26850460  0.00185802  1  1.54119  0  0.222113  0.608731  0  4.143531  0
C  C105  1  0.68507641  0.23150301  0.50186963  1  1.542023  0  0.221827  0.608339  0  4.144303  0
C  C106  1  0.68507199  0.73152470  0.99813423  1  1.542512  0  0.222048  0.608717  0  4.1441  0
C  C107  1  0.31489109  0.76850308  0.49813549  1  1.541627  0  0.221954  0.608827  0  4.144009  0
C  C108  1  0.70014359  0.10824364  0.67087603  1  1.571456  0  0.226011  0.608159  0  4.142683  0
C  C109  1  0.29987673  0.39173909  0.17088795  1  1.570137  0  0.226224  0.6088  0  4.143094  0
C  C110  1  0.29983057  0.89175133  0.32912385  1  1.57184  0  0.226186  0.608247  0  4.143291  0
C  C111  1  0.70014255  0.60824810  0.82912194  1  1.571153  0  0.226086  0.608294  0  4.142842  0
C  C112  1  0.71560460  0.04010874  0.70947705  1  -0.092092  0  -0.009836  -0.024884  0  3.952995  0
C  C113  1  0.28440651  0.45987214  0.20948865  1  -0.092179  0  -0.009744  -0.024615  0  3.952375  0
C  C114  1  0.28439646  0.95989547  0.29052903  1  -0.091061  0  -0.0098  -0.024864  0  3.953004  0
C  C115  1  0.71559474  0.54011568  0.79052028  1  -0.092187  0  -0.009687  -0.024804  0  3.952568  0
C  C116  1  0.81985815  0.02853908  0.72345150  1  -0.00744  0  -0.091066  -0.104413  0  4.007741  0
C  C117  1  0.18015636  0.47142256  0.22347061  1  -0.007041  0  -0.091435  -0.105116  0  4.007642  0
C  C118  1  0.18014433  0.97148611  0.27657508  1  -0.009619  0  -0.090977  -0.104189  0  4.00777  0
C  C119  1  0.81984782  0.52854215  0.77654739  1  -0.007747  0  -0.091131  -0.104589  0  4.007816  0
C  C120  1  0.83683787  0.96696169  0.76015816  1  0.007918  0  -0.080768  -0.091305  0  3.984252  0
C  C121  1  0.16317731  0.53299769  0.26018816  1  0.008598  0  -0.080675  -0.091027  0  3.984607  0
C  C122  1  0.16316824  0.03305738  0.23986509  1  0.006736  0  -0.080747  -0.091589  0  3.984448  0
C  C123  1  0.83681677  0.46696787  0.73983985  1  0.007826  0  -0.080786  -0.091337  0  3.984435  0
C  C124  1  0.74936509  0.91495292  0.78246101  1  0.01792  0  -0.011438  -0.024123  0  3.973368  0
C  C125  1  0.25064212  0.58501147  0.28249499  1  0.016592  0  -0.01124  -0.023739  0  3.973243  0
C  C126  1  0.25064726  0.08503521  0.21753744  1  0.017331  0  -0.01144  -0.023932  0  3.973482  0
C  C127  1  0.74933857  0.41496728  0.71752301  1  0.017405  0  -0.011295  -0.023696  0  3.973502  0
C  C128  1  0.64477622  0.92585362  0.76858289  1  -0.053967  0  -0.070821  -0.077835  0  3.921727  0
C  C129  1  0.35523440  0.57412399  0.26860081  1  -0.053577  0  -0.07086  -0.077959  0  3.921705  0
C  C130  1  0.35523290  0.07412537  0.23140220  1  -0.053743  0  -0.07091  -0.078007  0  3.92186  0
C  C131  1  0.64476416  0.42587506  0.73139382  1  -0.054331  0  -0.070749  -0.077958  0  3.921592  0
C  C132  1  0.62820237  0.98887059  0.73291848  1  -0.02502  0  -0.072763  -0.085366  0  3.940861  0
C  C133  1  0.37181017  0.51111498  0.23293209  1  -0.024999  0  -0.072899  -0.085508  0  3.941038  0
C  C134  1  0.37180661  0.01111632  0.26706900  1  -0.024944  0  -0.072734  -0.085127  0  3.941011  0
C  C135  1  0.62818803  0.48889085  0.76706254  1  -0.025528  0  -0.072884  -0.08525  0  3.940914  0
C  C136  1  0.77029570  0.84951755  0.82122241  1  1.503514  0  0.211826  0.585255  0  4.149988  0
C  C137  1  0.22971927  0.65044718  0.32124105  1  1.504219  0  0.211499  0.584925  0  4.14999  0
C  C138  1  0.22972881  0.15046810  0.17876650  1  1.504272  0  0.211522  0.585072  0  4.149653  0
C  C139  1  0.77027035  0.34953295  0.67877313  1  1.504726  0  0.211635  0.585234  0  4.150128  0
C  C140  1  0.44462999  0.35250725  0.56044455  1  1.564208  0  0.217351  0.595985  0  4.164295  0
C  C141  1  0.55538043  0.14750615  0.06042024  1  1.564659  0  0.217292  0.595759  0  4.164037  0
C  C142  1  0.55533743  0.64747227  0.43956153  1  1.563158  0  0.217488  0.596136  0  4.164456  0
C  C143  1  0.44469588  0.85253921  0.93953671  1  1.562869  0  0.21779  0.596492  0  4.163486  0
C  C144  1  0.47289478  0.42862934  0.52903606  1  -0.001274  0  -0.014504  -0.029838  0  3.964874  0
C  C145  1  0.52714024  0.07138430  0.02901278  1  -0.000877  0  -0.014521  -0.029782  0  3.965254  0
C  C146  1  0.52708447  0.57134145  0.47095905  1  -0.001189  0  -0.014781  -0.030332  0  3.965065  0
C  C147  1  0.47296742  0.92866873  0.97093654  1  6.2e-05  0  -0.014726  -0.030361  0  3.964803  0
C  C148  1  0.57779327  0.46839109  0.53301329  1  -0.082068  0  -0.081651  -0.089212  0  3.971017  0
C  C149  1  0.42223970  0.03160905  0.03299659  1  -0.082539  0  -0.081467  -0.08902  0  3.971114  0
C  C150  1  0.42218409  0.53157796  0.46697610  1  -0.081344  0  -0.081521  -0.088721  0  3.970428  0
C  C151  1  0.57785997  0.96843471  0.96695607  1  -0.082449  0  -0.081568  -0.088988  0  3.970096  0
C  C152  1  0.39535381  0.46066941  0.49577088  1  0.007546  0  -0.082705  -0.094363  0  3.979758  0
C  C153  1  0.60468350  0.03935085  0.99575965  1  0.007294  0  -0.082716  -0.094224  0  3.980059  0
C  C154  1  0.60461962  0.53930405  0.50421659  1  0.007737  0  -0.082745  -0.094302  0  3.980153  0
C  C155  1  0.39542523  0.96069939  0.00419540  1  0.007633  0  -0.082972  -0.09434  0  3.979856  0
C  C156  1  0.38567219  0.11798810  0.54078857  1  1.483401  0  0.206003  0.578768  0  4.157107  0
C  C157  1  0.61432827  0.38200686  0.04079424  1  1.483261  0  0.205894  0.578566  0  4.157285  0
C  C158  1  0.61429954  0.88199776  0.45921750  1  1.484186  0  0.206121  0.579197  0  4.156292  0
C  C159  1  0.38569899  0.61798962  0.95920039  1  1.484264  0  0.205888  0.578977  0  4.156902  0
C  C160  1  0.44418386  0.05683159  0.52004869  1  0.068595  0  -0.012672  -0.01709  0  3.967025  0
C  C161  1  0.55581400  0.44316884  0.02004476  1  0.069015  0  -0.012671  -0.017141  0  3.967114  0
C  C162  1  0.55578249  0.94315072  0.47996979  1  0.067836  0  -0.012786  -0.01704  0  3.966932  0
C  C163  1  0.44422107  0.55684029  0.97995177  1  0.068316  0  -0.012565  -0.016991  0  3.967107  0
C  C164  1  0.49761097  0.01827680  0.56477249  1  -0.056251  0  -0.084928  -0.089653  0  3.95238  0
C  C165  1  0.50237401  0.48171566  0.06476592  1  -0.056118  0  -0.084981  -0.08981  0  3.952231  0
C  C166  1  0.50236303  0.98170855  0.43524455  1  -0.054005  0  -0.084868  -0.089791  0  3.952374  0
C  C167  1  0.49766199  0.51828558  0.93523157  1  -0.055052  0  -0.08505  -0.090059  0  3.95266  0
C  C168  1  0.44639588  0.03813252  0.45515161  1  -0.088082  0  -0.081326  -0.092498  0  3.967423  0
C  C169  1  0.55363473  0.46186814  0.95514874  1  -0.085834  0  -0.081279  -0.092239  0  3.96759  0
C  C170  1  0.55358226  0.96184956  0.54486687  1  -0.086088  0  -0.081465  -0.092873  0  3.967642  0
C  C171  1  0.44640875  0.53813953  0.04484684  1  -0.086664  0  -0.081303  -0.092378  0  3.967322  0
C  C172  1  0.07783105  0.25626520  0.60353352  1  0.96484  0  0.264338  0.396936  0  3.906808  0
C  C173  1  0.92218625  0.24374129  0.10351474  1  0.965492  0  0.264268  0.397023  0  3.90656  0
C  C174  1  0.92212707  0.74371518  0.39649020  1  0.965378  0  0.26405  0.396564  0  3.906769  0
C  C175  1  0.07784353  0.75626034  0.89649611  1  0.965224  0  0.264092  0.396641  0  3.907084  0
C  C176  1  0.11529047  0.33814395  0.61532883  1  -0.071692  0  -0.217018  -0.472616  0  3.880724  0
C  C177  1  0.88473250  0.16186139  0.11528680  1  -0.071064  0  -0.216863  -0.472184  0  3.880291  0
C  C178  1  0.88465784  0.66183446  0.38471826  1  -0.07165  0  -0.216845  -0.472205  0  3.880134  0
C  C179  1  0.11529755  0.83813742  0.88471928  1  -0.070642  0  -0.216924  -0.472161  0  3.880536  0
N  N180  1  0.14158707  0.20256004  0.59511335  1  -0.636533  0  -0.187763  -0.214379  0  3.403293  0
N  N181  1  0.85842118  0.29745329  0.09512091  1  -0.635888  0  -0.187853  -0.214707  0  3.402794  0
N  N182  1  0.85837051  0.79743051  0.40489321  1  -0.635237  0  -0.187531  -0.214004  0  3.403114  0
N  N183  1  0.14160997  0.70254725  0.90489090  1  -0.636133  0  -0.18747  -0.214129  0  3.402835  0
N  N184  1  0.08037474  0.13503211  0.58930939  1  0.015148  0  -0.043662  -0.005359  0  3.077035  0
N  N185  1  0.91963808  0.36498342  0.08932552  1  0.015535  0  -0.043475  -0.00543  0  3.075968  0
N  N186  1  0.91958937  0.86495523  0.41068142  1  0.01491  0  -0.04381  -0.005634  0  3.077468  0
N  N187  1  0.08039051  0.63502044  0.91068151  1  0.016079  0  -0.043711  -0.005677  0  3.077028  0
N  N188  1  0.98252717  0.14889250  0.59340489  1  -0.314564  0  -0.109138  0.044043  0  3.731698  0
N  N189  1  0.01748573  0.35111694  0.09339663  1  -0.315192  0  -0.10909  0.044926  0  3.730713  0
N  N190  1  0.01743174  0.85108791  0.40659212  1  -0.315361  0  -0.109271  0.043992  0  3.73186  0
N  N191  1  0.98254373  0.64888298  0.90660563  1  -0.315108  0  -0.109058  0.044815  0  3.730964  0
N  N192  1  0.97589645  0.22200573  0.60213389  1  -0.675044  0  -0.193986  -0.217695  0  3.301473  0
N  N193  1  0.02411702  0.27799779  0.10210504  1  -0.675349  0  -0.194022  -0.218013  0  3.300874  0
N  N194  1  0.02406154  0.77796956  0.39788077  1  -0.676388  0  -0.193944  -0.217599  0  3.301549  0
N  N195  1  0.97591423  0.72200332  0.89790008  1  -0.676228  0  -0.194071  -0.217987  0  3.300945  0
O  O196  1  0.30485805  0.24565266  0.69374888  1  -1.180214  0  -0.332615  -0.571574  0  2.329374  0
O  O197  1  0.69516878  0.25434514  0.19375948  1  -1.179981  0  -0.332701  -0.571743  0  2.328852  0
O  O198  1  0.69510768  0.75432624  0.30624575  1  -1.180464  0  -0.332403  -0.571159  0  2.329193  0
O  O199  1  0.30484608  0.74564816  0.80624230  1  -1.180264  0  -0.332651  -0.571564  0  2.328693  0
O  O200  1  0.47987456  0.24038573  0.71325649  1  -1.161427  0  -0.305856  -0.547636  0  2.366508  0
O  O201  1  0.52013550  0.25958733  0.21325005  1  -1.160814  0  -0.305806  -0.547743  0  2.366745  0
O  O202  1  0.52010642  0.75960774  0.28675006  1  -1.161814  0  -0.305671  -0.547394  0  2.367029  0
O  O203  1  0.47985928  0.74039522  0.78674363  1  -1.161047  0  -0.305796  -0.547693  0  2.366979  0
O  O204  1  0.21782937  0.24493371  0.02005808  1  -1.171522  0  -0.335183  -0.560899  0  2.324895  0
O  O205  1  0.78216466  0.25504116  0.52007591  1  -1.171977  0  -0.334985  -0.560692  0  2.32531  0
O  O206  1  0.78215920  0.75508430  0.97993512  1  -1.171797  0  -0.335065  -0.560816  0  2.325089  0
O  O207  1  0.21781454  0.74495112  0.47992349  1  -1.171864  0  -0.335063  -0.56087  0  2.325517  0
O  O208  1  0.39244558  0.29283993  0.03825449  1  -1.182574  0  -0.303458  -0.564553  0  2.389417  0
O  O209  1  0.60753701  0.20717537  0.53825341  1  -1.182888  0  -0.303203  -0.564189  0  2.389349  0
O  O210  1  0.60756941  0.70715846  0.96173823  1  -1.183298  0  -0.303414  -0.564635  0  2.389628  0
O  O211  1  0.39242251  0.79283899  0.46174360  1  -1.182259  0  -0.303388  -0.564608  0  2.389327  0
O  O212  1  0.78312851  0.13923970  0.63853230  1  -1.204174  0  -0.336182  -0.605308  0  2.394567  0
O  O213  1  0.21689057  0.36074479  0.13853839  1  -1.203564  0  -0.336325  -0.605701  0  2.394978  0
O  O214  1  0.21684475  0.86075468  0.36145708  1  -1.204556  0  -0.33635  -0.605395  0  2.395058  0
O  O215  1  0.78312658  0.63923500  0.86148629  1  -1.20399  0  -0.336319  -0.605477  0  2.394415  0
O  O216  1  0.61172862  0.13100637  0.67268857  1  -1.154511  0  -0.286922  -0.520395  0  2.318559  0
O  O217  1  0.38829846  0.36898227  0.17269797  1  -1.154063  0  -0.286909  -0.520564  0  2.318879  0
O  O218  1  0.38824635  0.86897562  0.32731703  1  -1.154516  0  -0.286963  -0.520474  0  2.318496  0
O  O219  1  0.61173962  0.63101734  0.82730763  1  -1.154356  0  -0.286897  -0.520398  0  2.318936  0
O  O220  1  0.86549680  0.84738738  0.84107253  1  -1.154272  0  -0.326623  -0.55503  0  2.198917  0
O  O221  1  0.13452692  0.65258898  0.34108547  1  -1.154262  0  -0.326549  -0.554902  0  2.198988  0
O  O222  1  0.13452693  0.15261578  0.15892400  1  -1.154315  0  -0.326606  -0.55507  0  2.19899  0
O  O223  1  0.86546500  0.34739518  0.65892728  1  -1.155083  0  -0.326563  -0.555072  0  2.199352  0
O  O224  1  0.69560194  0.79442100  0.83503642  1  -1.184049  0  -0.308925  -0.557201  0  2.392296  0
O  O225  1  0.30441096  0.70555543  0.33504433  1  -1.184411  0  -0.308844  -0.557143  0  2.391958  0
O  O226  1  0.30443538  0.20555256  0.16493198  1  -1.184887  0  -0.308672  -0.557038  0  2.391751  0
O  O227  1  0.69558330  0.29442428  0.66496031  1  -1.184632  0  -0.308854  -0.557176  0  2.391818  0
O  O228  1  0.51699125  0.32586863  0.58982670  1  -1.178344  0  -0.306755  -0.565493  0  2.347695  0
O  O229  1  0.48300773  0.17414426  0.08978456  1  -1.178566  0  -0.306717  -0.565362  0  2.347221  0
O  O230  1  0.48296682  0.67412023  0.41019273  1  -1.178102  0  -0.306728  -0.565471  0  2.347504  0
O  O231  1  0.51703741  0.82587704  0.91017000  1  -1.178519  0  -0.306854  -0.565612  0  2.347767  0
O  O232  1  0.34642097  0.31953544  0.55537143  1  -1.173932  0  -0.32603  -0.555761  0  2.343838  0
O  O233  1  0.65358940  0.18048910  0.05536784  1  -1.174559  0  -0.326008  -0.555602  0  2.3439  0
O  O234  1  0.65355252  0.68044707  0.44462606  1  -1.173256  0  -0.326094  -0.555749  0  2.344277  0
O  O235  1  0.34647080  0.81956316  0.94461152  1  -1.172408  0  -0.326342  -0.556019  0  2.343469  0
O  O236  1  0.40552590  0.14598813  0.59887075  1  -1.159088  0  -0.3335  -0.58979  0  2.397192  0
O  O237  1  0.59448452  0.35400897  0.09887762  1  -1.158967  0  -0.333447  -0.589771  0  2.397223  0
O  O238  1  0.59443555  0.85400196  0.40113389  1  -1.159139  0  -0.333453  -0.589964  0  2.397016  0
O  O239  1  0.40555699  0.64600091  0.90112273  1  -1.159268  0  -0.333444  -0.58995  0  2.397258  0
O  O240  1  0.31843076  0.14219179  0.50628197  1  -1.153838  0  -0.316187  -0.530458  0  2.095036  0
O  O241  1  0.68157023  0.35780716  0.00629149  1  -1.153816  0  -0.316188  -0.530408  0  2.095361  0
O  O242  1  0.68153267  0.85778309  0.49372220  1  -1.154147  0  -0.316331  -0.530716  0  2.094759  0
O  O243  1  0.31846553  0.64220143  0.99371315  1  -1.154279  0  -0.316186  -0.5306  0  2.094969  0
