# generated using pymatgen
data_CuH18C18S(N3O2)2
_symmetry_space_group_name_H-M   'P 1'
_cell_length_a   8.72190726
_cell_length_b   9.69154754
_cell_length_c   12.95431760
_cell_angle_alpha   80.91415772
_cell_angle_beta   80.49089305
_cell_angle_gamma   90.04897106
_symmetry_Int_Tables_number   1
_chemical_formula_structural   CuH18C18S(N3O2)2
_chemical_formula_sum   'Cu2 H36 C36 S2 N12 O8'
_cell_volume   1066.00779496
_cell_formula_units_Z   2
loop_
 _symmetry_equiv_pos_site_id
 _symmetry_equiv_pos_as_xyz
  1  'x, y, z'
loop_
 _atom_site_type_symbol
 _atom_site_label
 _atom_site_symmetry_multiplicity
 _atom_site_fract_x
 _atom_site_fract_y
 _atom_site_fract_z
 _atom_site_occupancy
 _atom_site_hle17_ddec_charge
 _atom_site_hle17_ddec_spin_density
 _atom_site_hle17_ddec_sum_bond_order
 _atom_site_hle17_magmom
 _atom_site_hse06_10hf_ddec_charge
 _atom_site_hse06_10hf_ddec_spin_density
 _atom_site_hse06_10hf_ddec_sum_bond_order
 _atom_site_hse06_10hf_magmom
 _atom_site_hse06_ddec_charge
 _atom_site_hse06_ddec_spin_density
 _atom_site_hse06_ddec_sum_bond_order
 _atom_site_hse06_magmom
 _atom_site_pbe_cm5_charge
 _atom_site_pbe_ddec_charge
 _atom_site_pbe_ddec_spin_density
 _atom_site_pbe_ddec_sum_bond_order
 _atom_site_pbe_magmom
Cu  Cu0  1  0.00000245  0.00000206  0.00000256  1  0.833051  0.754266  1.901204  0.545  0.796484  0.820453  2.278284  0.645  0.86983  0.887717  2.227712  0.721  0.787328  0.753431  0.765622  2.311276  0.588
Cu  Cu1  1  0.00000063  0.99999942  0.50000120  1  0.907568  -0.716179  1.702687  -0.502  0.89376  -0.806507  2.079178  -0.626  1.003157  -0.883089  1.986616  -0.713  0.747046  0.826361  -0.746771  2.137655  -0.564
H  H2  1  0.34132199  0.69726976  0.80958197  1  0.112099  -9.2e-05  0.981203  0.0  0.119189  -6.7e-05  1.04966  0.0  0.122664  -4.2e-05  1.047556  0.0  0.102054  0.116533  -8.9e-05  1.051454  0.0
H  H3  1  0.65867516  0.30273273  0.19040829  1  0.112118  -9.3e-05  0.98121  0.0  0.119173  -6.7e-05  1.049703  0.0  0.12265  -4.2e-05  1.047596  0.0  0.102034  0.116518  -8.9e-05  1.051496  0.0
H  H4  1  0.83830367  0.67419053  0.79603410  1  0.113275  -0.000108  0.976363  0.0  0.122103  -0.000109  1.041275  0.0  0.125598  -7.3e-05  1.038967  0.0  0.104476  0.119521  -0.000128  1.043063  0.0
H  H5  1  0.16169236  0.32580769  0.20396449  1  0.113243  -0.000108  0.976424  0.0  0.122074  -0.000109  1.041334  0.0  0.125567  -7.3e-05  1.039024  0.0  0.104482  0.119494  -0.000128  1.043129  0.0
H  H6  1  0.58485408  0.34861605  0.70003436  1  0.098289  -1.4e-05  0.949558  0.0  0.109622  6e-06  1.00831  0.0  0.112237  3e-06  1.007675  0.0  0.101144  0.107294  6e-06  1.009762  0.0
H  H7  1  0.41514424  0.65138325  0.29996075  1  0.098254  -1.3e-05  0.949533  0.0  0.10962  6e-06  1.008257  0.0  0.112234  3e-06  1.007622  0.0  0.10116  0.107267  6e-06  1.009742  0.0
H  H8  1  0.22205616  0.54596771  0.71501004  1  0.099235  3.9e-05  0.940925  0.0  0.112412  2.6e-05  1.005305  0.0  0.113298  9e-06  1.004365  0.0  0.116238  0.111744  3.8e-05  1.006089  0.0
H  H9  1  0.77793876  0.45403472  0.28498513  1  0.09924  3.8e-05  0.940847  0.0  0.112429  2.6e-05  1.005212  0.0  0.113327  9e-06  1.004277  0.0  0.116251  0.111761  3.8e-05  1.006005  0.0
H  H10  1  0.31439641  0.39329864  0.67480265  1  0.088424  -4.3e-05  0.89859  0.0  0.107454  4e-06  0.95111  0.0  0.108059  -0.0  0.950521  0.0  0.11938  0.107089  1.2e-05  0.951475  0.0
H  H11  1  0.68559503  0.60670378  0.32519294  1  0.088357  -4.2e-05  0.898566  0.0  0.107419  3e-06  0.951073  0.0  0.108037  -0.0  0.950494  0.0  0.119408  0.107064  1.2e-05  0.951439  0.0
H  H12  1  0.19521216  0.17180352  0.77761097  1  0.113128  9.3e-05  0.970903  0.0  0.117684  0.000123  1.041106  0.0  0.120434  8.5e-05  1.037314  0.0  0.134224  0.115399  0.000151  1.044095  0.0
H  H13  1  0.80478986  0.82819991  0.22238786  1  0.11311  9.3e-05  0.970933  0.0  0.117698  0.000122  1.041101  0.0  0.120442  8.5e-05  1.037309  0.0  0.134239  0.115409  0.000151  1.04409  0.0
H  H14  1  0.01462957  0.29113978  0.07336444  1  0.119655  0.000262  0.995314  0.001  0.1224  0.000354  1.064225  0.001  0.125555  0.000256  1.06149  0.0  0.116999  0.12002  0.000442  1.066456  0.001
H  H15  1  0.98538420  0.70886572  0.92663584  1  0.119576  0.000259  0.995411  0.001  0.122331  0.000354  1.064299  0.001  0.125464  0.000256  1.061618  0.0  0.11695  0.119956  0.000442  1.066508  0.001
H  H16  1  0.17352761  0.52116955  0.94017873  1  0.124029  0.000554  0.954296  0.001  0.134805  0.000463  1.012082  0.001  0.137147  0.00034  1.011606  0.0  0.12651  0.133198  0.000507  1.012294  0.001
H  H17  1  0.82647909  0.47883494  0.05981942  1  0.123987  0.000556  0.954114  0.001  0.134771  0.000463  1.011913  0.001  0.137114  0.00034  1.011441  0.0  0.126472  0.133168  0.000507  1.012117  0.001
H  H18  1  0.69879549  0.84930529  0.88524234  1  0.108288  0.000111  0.926245  0.0  0.120067  8.9e-05  0.991372  0.0  0.12148  5.3e-05  0.990464  0.0  0.11754  0.118934  0.000116  0.992056  0.0
H  H19  1  0.30120164  0.15069402  0.11475214  1  0.108188  0.000117  0.926297  0.0  0.120052  8.9e-05  0.991333  0.0  0.121445  5.3e-05  0.990492  0.0  0.117558  0.118925  0.000116  0.992025  0.0
H  H20  1  0.60384276  0.92239711  0.78092181  1  0.102911  -6.7e-05  0.885669  0.0  0.124444  4e-06  0.932048  0.0  0.12434  1e-06  0.932596  0.0  0.125771  0.124068  -3e-06  0.932497  0.0
H  H21  1  0.39614525  0.07760421  0.21907894  1  0.102884  -6.4e-05  0.885657  0.0  0.12442  3e-06  0.932068  0.0  0.124331  1e-06  0.932617  0.0  0.125737  0.124046  -3e-06  0.932509  0.0
H  H22  1  0.30924360  0.96209009  0.81924312  1  0.107355  4.3e-05  0.984305  0.0  0.113087  8.6e-05  1.051386  0.0  0.115914  5.6e-05  1.047361  0.0  0.133324  0.110806  0.000101  1.054457  0.0
H  H23  1  0.69075260  0.03790909  0.18076229  1  0.107353  4.2e-05  0.984342  0.0  0.113133  8.6e-05  1.051363  0.0  0.11596  5.6e-05  1.047338  0.0  0.133309  0.110843  0.000101  1.054437  0.0
H  H24  1  0.22906340  0.85359246  0.15271153  1  0.104205  0.000214  0.971804  0.0  0.111248  0.000345  1.037305  0.001  0.112732  0.000238  1.036505  0.0  0.115265  0.109976  0.000434  1.03842  0.001
H  H25  1  0.77094802  0.14640881  0.84729413  1  0.104207  0.000222  0.971854  0.0  0.111187  0.000345  1.037421  0.001  0.112673  0.000239  1.03662  0.0  0.115232  0.109913  0.000434  1.038544  0.001
H  H26  1  0.52486643  0.76709567  0.07235839  1  0.117083  0.000528  0.958262  0.001  0.124139  0.000429  1.023292  0.001  0.126359  0.000304  1.022866  0.0  0.119877  0.122442  0.000538  1.023815  0.001
H  H27  1  0.47513781  0.23290251  0.92764307  1  0.117063  0.000527  0.958287  0.001  0.124104  0.00043  1.023335  0.001  0.126324  0.000304  1.022905  0.0  0.119864  0.122412  0.000538  1.023867  0.001
H  H28  1  0.97278777  0.51421415  0.69925971  1  0.088744  -1e-06  0.933025  0.0  0.101943  -1.1e-05  1.000512  0.0  0.102541  -3e-06  1.000246  0.0  0.114259  0.101342  -3.8e-05  1.000933  0.0
H  H29  1  0.02720952  0.48578295  0.30074503  1  0.088721  -3e-06  0.933034  0.0  0.101972  -1.1e-05  1.000453  0.0  0.102575  -3e-06  1.000178  0.0  0.114271  0.101357  -3.8e-05  1.000873  0.0
H  H30  1  0.90440593  0.36111934  0.78976322  1  0.085942  -5.4e-05  0.938245  0.0  0.100189  -4.5e-05  1.004907  0.0  0.100664  -3.7e-05  1.005667  0.0  0.115524  0.099658  -3.5e-05  1.004592  0.0
H  H31  1  0.09558678  0.63887984  0.21024261  1  0.085905  -5.3e-05  0.938286  0.0  0.100153  -4.4e-05  1.004943  0.0  0.100626  -3.7e-05  1.005703  0.0  0.115514  0.099607  -3.5e-05  1.004618  0.0
H  H32  1  0.96376459  0.15547364  0.70419159  1  0.099248  -4e-06  1.001712  0.0  0.104447  -4.8e-05  1.074747  0.0  0.107816  -3.7e-05  1.069785  0.0  0.13289  0.101436  -6.9e-05  1.078873  0.0
H  H33  1  0.03624322  0.84452663  0.29580999  1  0.099218  -4e-06  1.001723  0.0  0.104412  -4.8e-05  1.074768  0.0  0.107777  -3.7e-05  1.069804  0.0  0.132838  0.101361  -6.9e-05  1.078925  0.0
H  H34  1  0.86136631  0.28626752  0.39688432  1  0.11433  -9e-05  1.003143  0.0  0.119173  -0.000239  1.068258  -0.001  0.12279  -0.000178  1.06511  0.0  0.11579  0.116279  -0.000278  1.070707  -0.001
H  H35  1  0.13863330  0.71373065  0.60311848  1  0.11435  -9e-05  1.003179  0.0  0.11917  -0.000239  1.068306  -0.001  0.122782  -0.000178  1.065165  0.0  0.115788  0.116275  -0.000278  1.070749  -0.001
H  H36  1  0.80454863  0.50512700  0.51494768  1  0.117899  -0.000504  0.943742  -0.001  0.132499  -0.000422  0.994399  -0.001  0.135108  -0.000321  0.993718  0.0  0.125504  0.13029  -0.000521  0.99532  -0.001
H  H37  1  0.19544275  0.49486696  0.48505812  1  0.117942  -0.000503  0.943725  -0.001  0.132513  -0.000422  0.994413  -0.001  0.135122  -0.000321  0.993734  0.0  0.125518  0.130307  -0.000521  0.995338  -0.001
C  C38  1  0.44809665  0.51593771  0.75582655  1  0.078616  1.3e-05  3.79415  0.0  0.102263  -7.8e-05  4.036834  0.0  0.101176  -9.9e-05  4.061998  0.0  -0.01618  0.103015  -2.8e-05  4.019402  0.0
C  C39  1  0.55190165  0.48406266  0.24416612  1  0.078712  1.2e-05  3.793897  0.0  0.102274  -7.9e-05  4.036684  0.0  0.101209  -9.8e-05  4.061855  0.0  -0.016149  0.103028  -2.8e-05  4.019241  0.0
C  C40  1  0.44986105  0.64176994  0.79561445  1  -0.165392  0.000288  3.695582  0.0  -0.197417  -5e-06  3.938655  0.0  -0.200681  1.8e-05  3.959318  0.0  -0.093791  -0.194821  0.000188  3.924391  0.0
C  C41  1  0.55013610  0.35823042  0.20437914  1  -0.165614  0.000289  3.695621  0.0  -0.197557  -4e-06  3.938738  0.0  -0.200816  1.7e-05  3.959385  0.0  -0.093837  -0.194959  0.000188  3.924465  0.0
C  C42  1  0.58940639  0.69798658  0.81246309  1  0.091842  -0.000703  3.753114  -0.001  0.11479  -0.000202  3.99092  0.0  0.114511  -0.000165  4.014979  0.0  -0.00732  0.114912  -0.000157  3.974485  0.0
C  C43  1  0.41058842  0.30201166  0.18753332  1  0.092043  -0.000692  3.753175  -0.001  0.114932  -0.000203  3.991071  0.0  0.114666  -0.000165  4.01513  0.0  -0.007281  0.115054  -0.000157  3.974628  0.0
C  C44  1  0.72756710  0.62861522  0.78748370  1  -0.149245  0.001219  3.682002  0.001  -0.177399  0.000312  3.918117  0.0  -0.180729  0.000216  3.93916  0.0  -0.085969  -0.175022  0.000168  3.903694  0.0
C  C45  1  0.27242776  0.37138406  0.21251337  1  -0.14933  0.001212  3.682246  0.001  -0.177467  0.000312  3.91835  0.0  -0.1808  0.000216  3.939405  0.0  -0.085992  -0.1751  0.000169  3.903945  0.0
C  C46  1  0.58633039  0.44599251  0.73241706  1  -0.185078  0.000635  3.759139  0.001  -0.217844  0.000266  4.011038  0.0  -0.221495  0.0002  4.033385  0.0  -0.100181  -0.21497  0.000194  3.995874  0.0
C  C47  1  0.41366792  0.55400679  0.26757804  1  -0.185048  0.000628  3.758869  0.001  -0.217823  0.000268  4.010791  0.0  -0.221471  0.000199  4.033131  0.0  -0.100167  -0.214925  0.000194  3.995631  0.0
C  C48  1  0.72663252  0.50318177  0.74715378  1  0.078994  -0.000232  3.777734  0.0  0.100835  -2e-05  4.019887  0.0  0.099879  -3.5e-05  4.045022  0.0  -0.014499  0.101792  -0.000103  4.002393  0.0
C  C49  1  0.27336349  0.49681646  0.25284404  1  0.079049  -0.000222  3.777644  0.0  0.100905  -2.1e-05  4.019765  0.0  0.099948  -3.5e-05  4.044898  0.0  -0.014511  0.101846  -0.000103  4.002245  0.0
C  C50  1  0.29613503  0.45852774  0.73752863  1  -0.041934  0.000995  3.638011  0.001  -0.110804  0.00074  3.889847  0.001  -0.105461  0.000569  3.899407  0.001  -0.043614  -0.114276  0.000906  3.883045  0.001
C  C51  1  0.70386105  0.54147469  0.26246640  1  -0.041828  0.000996  3.637635  0.001  -0.110704  0.000742  3.889521  0.001  -0.105425  0.00057  3.899187  0.001  -0.043612  -0.114189  0.000906  3.882748  0.001
C  C52  1  0.16791039  0.23419095  0.84098311  1  0.125434  -0.005159  3.645824  -0.005  0.06858  -0.000466  3.921396  -0.001  0.082376  -0.001319  3.93514  -0.002  0.131981  0.060208  0.000199  3.911706  0.0
C  C53  1  0.83209047  0.76581248  0.15901586  1  0.125476  -0.005153  3.645867  -0.005  0.068553  -0.000467  3.921445  -0.001  0.082365  -0.00132  3.935186  -0.002  0.131963  0.060184  0.000199  3.911744  0.0
C  C54  1  0.07593222  0.30202381  0.99216157  1  -0.009827  -0.001495  3.727653  -0.002  -0.039616  0.000224  3.999034  0.0  -0.036103  -0.000484  4.017783  -0.001  -0.005891  -0.04206  0.000817  3.986913  0.001
C  C55  1  0.92407571  0.69798170  0.00783786  1  -0.009689  -0.001462  3.727459  -0.002  -0.039504  0.000224  3.998825  0.0  -0.035995  -0.000484  4.017567  -0.001  -0.00583  -0.041946  0.000817  3.986698  0.001
C  C56  1  0.15382879  0.41534184  0.92749213  1  -0.070033  0.004909  3.664167  0.005  -0.108191  0.002282  3.915856  0.002  -0.107157  0.002001  3.934789  0.002  -0.001198  -0.108552  0.002555  3.902639  0.003
C  C57  1  0.84617676  0.58466369  0.07250527  1  -0.070014  0.00488  3.663877  0.005  -0.108178  0.002283  3.915587  0.002  -0.107138  0.002001  3.934527  0.002  -0.001174  -0.108546  0.002556  3.902358  0.003
C  C58  1  0.59491288  0.83801427  0.84940369  1  -0.042515  0.00107  3.628122  0.001  -0.108404  0.000753  3.873707  0.001  -0.103609  0.000557  3.883529  0.001  -0.040439  -0.111292  0.000939  3.867111  0.001
C  C59  1  0.40508080  0.16198395  0.15059441  1  -0.042453  0.001051  3.627983  0.001  -0.108419  0.000753  3.873721  0.001  -0.103678  0.000558  3.883605  0.001  -0.040458  -0.111303  0.000939  3.867127  0.001
C  C60  1  0.32583351  0.92394352  0.90027131  1  0.14644  -0.005464  3.631186  -0.005  0.089414  -0.000643  3.905148  -0.001  0.103708  -0.001495  3.918548  -0.002  0.138012  0.080335  -1.8e-05  3.89615  0.0
C  C61  1  0.67416501  0.07605566  0.09973382  1  0.14634  -0.005473  3.631468  -0.005  0.089282  -0.000642  3.905411  -0.001  0.103574  -0.001495  3.918816  -0.002  0.137948  0.080217  -1.8e-05  3.896381  0.0
C  C62  1  0.28860878  0.85995452  0.07186858  1  -0.002926  -0.000497  3.741938  -0.001  -0.034574  0.000743  4.019936  0.0  -0.031184  -1.9e-05  4.04047  0.0  -0.007455  -0.036911  0.001337  4.006545  0.001
C  C63  1  0.71139555  0.14004467  0.92813585  1  -0.002922  -0.000546  3.742291  -0.001  -0.034509  0.000742  4.020278  0.0  -0.03112  -1.9e-05  4.040814  0.0  -0.007467  -0.03684  0.001337  4.00688  0.001
C  C64  1  0.43523650  0.81947727  0.03346639  1  -0.067939  0.004098  3.675701  0.004  -0.109024  0.00204  3.937772  0.002  -0.107157  0.00175  3.956267  0.002  -0.003684  -0.110007  0.002354  3.925087  0.002
C  C65  1  0.56476540  0.18051986  0.96653625  1  -0.06796  0.004132  3.675818  0.004  -0.109025  0.00204  3.937868  0.002  -0.107152  0.00175  3.956353  0.002  -0.003628  -0.110019  0.002354  3.925202  0.002
C  C66  1  0.87934275  0.43360146  0.72061462  1  -0.037763  -0.000909  3.644419  -0.001  -0.105671  -0.000674  3.89358  -0.001  -0.101195  -0.000523  3.904178  -0.001  -0.043198  -0.108654  -0.00077  3.886696  -0.001
C  C67  1  0.12065452  0.56639671  0.27938768  1  -0.037821  -0.000909  3.644539  -0.001  -0.105736  -0.000674  3.893641  -0.001  -0.101258  -0.000523  3.904241  -0.001  -0.043243  -0.10865  -0.00077  3.886676  -0.001
C  C68  1  0.93029258  0.21967442  0.63541478  1  0.153839  0.004404  3.645553  0.004  0.099374  0.000778  3.904289  0.001  0.116063  0.001463  3.917943  0.002  0.138198  0.088142  0.000286  3.896735  0.0
C  C69  1  0.06971523  0.78032585  0.36458679  1  0.153904  0.004408  3.645417  0.004  0.099437  0.000778  3.904167  0.001  0.11613  0.001463  3.917822  0.002  0.138286  0.088237  0.000286  3.896637  0.0
C  C70  1  0.87403681  0.29254426  0.47798153  1  0.001426  0.000253  3.733384  0.0  -0.026526  -0.000759  3.99715  -0.001  -0.022326  -0.000157  4.01769  0.0  -0.005964  -0.029072  -0.001137  3.984393  -0.001
C  C71  1  0.12596515  0.70745495  0.52202087  1  0.001304  0.000251  3.733559  0.0  -0.026625  -0.000759  3.997319  -0.001  -0.022424  -0.000157  4.017859  0.0  -0.006016  -0.029168  -0.001137  3.984554  -0.001
C  C72  1  0.84644370  0.40076072  0.53476758  1  -0.08689  -0.003362  3.711427  -0.003  -0.127657  -0.001897  3.970756  -0.002  -0.126623  -0.001722  3.988735  -0.002  -0.008306  -0.12835  -0.001929  3.958725  -0.002
C  C73  1  0.15355354  0.59923534  0.46523651  1  -0.086769  -0.003362  3.71162  -0.003  -0.127502  -0.001897  3.970926  -0.002  -0.126466  -0.001722  3.988904  -0.002  -0.008204  -0.128207  -0.001929  3.958906  -0.002
S  S74  1  0.93999059  0.09518389  0.26802603  1  1.52736  0.001365  5.86261  0.003  1.43223  -0.002911  6.394792  0.0  1.490907  -0.002669  6.362621  -0.001  0.533555  1.391318  -0.002952  6.415424  0.0
S  S75  1  0.06000549  0.90481535  0.73197399  1  1.527339  0.001361  5.862753  0.003  1.432222  -0.002911  6.394925  0.0  1.49089  -0.002666  6.362754  -0.001  0.533536  1.391295  -0.002951  6.415604  0.0
N  N76  1  0.21088153  0.37090971  0.83255376  1  -0.061764  0.001442  3.583645  0.002  0.031269  0.00125  3.803938  0.002  0.016515  0.000832  3.830254  0.001  -0.245157  0.041243  0.001605  3.7855  0.002
N  N77  1  0.78911930  0.62909374  0.16744367  1  -0.061728  0.001444  3.58356  0.002  0.031301  0.001251  3.803871  0.002  0.016541  0.000832  3.830233  0.001  -0.24515  0.041275  0.001605  3.78543  0.002
N  N78  1  0.08610014  0.19061306  0.93715686  1  -0.33122  0.07774  3.355918  0.099  -0.29265  0.051964  3.670797  0.069  -0.321399  0.042805  3.692377  0.06  -0.374245  -0.274922  0.057963  3.657125  0.075
N  N79  1  0.91390544  0.80939139  0.06284375  1  -0.331353  0.077738  3.356003  0.099  -0.292688  0.051967  3.670818  0.069  -0.321436  0.042807  3.692395  0.06  -0.374262  -0.274961  0.057969  3.657135  0.075
N  N80  1  0.45731176  0.86173259  0.92498185  1  -0.058215  0.001857  3.593087  0.003  0.034911  0.001454  3.810382  0.002  0.019825  0.00102  3.836985  0.001  -0.242318  0.04491  0.001841  3.791999  0.002
N  N81  1  0.54268664  0.13826453  0.07502044  1  -0.058128  0.001861  3.593029  0.003  0.035  0.001454  3.810378  0.002  0.019926  0.001019  3.836987  0.001  -0.242315  0.044991  0.001841  3.791995  0.002
N  N82  1  0.22157616  0.92448383  0.98804727  1  -0.332021  0.081332  3.285152  0.103  -0.294186  0.055569  3.595324  0.074  -0.32381  0.045185  3.618106  0.063  -0.360868  -0.275627  0.062544  3.580577  0.081
N  N83  1  0.77842591  0.07551638  0.01195887  1  -0.331933  0.081344  3.285461  0.103  -0.294074  0.055568  3.595593  0.074  -0.323705  0.045185  3.618394  0.063  -0.360767  -0.275509  0.062547  3.58081  0.081
N  N84  1  0.88319719  0.35311748  0.63406184  1  -0.063558  -0.001187  3.593687  -0.001  0.033442  -0.001054  3.806616  -0.001  0.019334  -0.000769  3.83117  -0.001  -0.245879  0.042465  -0.001193  3.790095  -0.001
N  N85  1  0.11680356  0.64687964  0.36594171  1  -0.063614  -0.001189  3.593849  -0.001  0.033343  -0.001055  3.806832  -0.001  0.019234  -0.000769  3.831388  -0.001  -0.245979  0.04235  -0.001193  3.790277  -0.001
N  N86  1  0.92679938  0.18045270  0.54162147  1  -0.34857  -0.062082  3.316272  -0.075  -0.304986  -0.045815  3.62625  -0.059  -0.3405  -0.039359  3.644774  -0.054  -0.374815  -0.285136  -0.047618  3.616485  -0.059
N  N87  1  0.07320841  0.81954758  0.45837934  1  -0.348554  -0.06208  3.316344  -0.075  -0.304961  -0.045814  3.626315  -0.059  -0.340475  -0.039357  3.644838  -0.054  -0.374806  -0.285114  -0.047618  3.616536  -0.059
O  O88  1  0.03117065  0.04101598  0.17570903  1  -0.746722  -0.017062  1.962503  -0.02  -0.709954  -0.009059  2.241205  -0.012  -0.733943  -0.005531  2.221835  -0.007  -0.374814  -0.691749  -0.013459  2.253224  -0.017
O  O89  1  0.96883015  0.95898536  0.82429018  1  -0.746777  -0.017059  1.962651  -0.02  -0.70998  -0.009059  2.241272  -0.012  -0.734006  -0.00553  2.221986  -0.007  -0.374824  -0.691779  -0.013457  2.253319  -0.017
O  O90  1  0.80129681  0.00422731  0.31478143  1  -0.736756  -0.004883  1.850645  -0.007  -0.705512  -0.000315  2.085205  -0.001  -0.728798  0.000899  2.068973  0.001  -0.392036  -0.687727  -0.002263  2.095769  -0.004
O  O91  1  0.19869914  0.99576989  0.68521497  1  -0.736737  -0.004872  1.85058  -0.007  -0.705473  -0.000317  2.085126  -0.001  -0.72876  0.000898  2.068898  0.001  -0.392008  -0.687689  -0.002263  2.095706  -0.004
O  O92  1  0.04834104  0.09270488  0.34995209  1  -0.719214  -0.090745  1.994431  -0.117  -0.696707  -0.057881  2.29275  -0.082  -0.739699  -0.04329  2.275179  -0.064  -0.385983  -0.668508  -0.067132  2.304743  -0.091
O  O93  1  0.95165270  0.90729330  0.65004910  1  -0.719175  -0.090752  1.99457  -0.117  -0.696702  -0.057881  2.292899  -0.082  -0.739695  -0.043292  2.275337  -0.064  -0.38598  -0.668495  -0.067134  2.304896  -0.091
O  O94  1  0.89788708  0.24274696  0.23617248  1  -0.730777  -0.00775  1.900471  -0.01  -0.682049  -0.004558  2.142562  -0.006  -0.703648  -0.002848  2.125407  -0.004  -0.371895  -0.666639  -0.005754  2.154158  -0.008
O  O95  1  0.10210902  0.75725227  0.76382830  1  -0.730788  -0.007757  1.90049  -0.01  -0.682042  -0.004558  2.142557  -0.006  -0.703614  -0.00285  2.125386  -0.004  -0.371893  -0.666625  -0.005754  2.154149  -0.008
