# generated using pymatgen
data_DyH6C7(NO4)2
_symmetry_space_group_name_H-M   'P 1'
_cell_length_a   6.06763390
_cell_length_b   7.01946863
_cell_length_c   13.05018134
_cell_angle_alpha   81.69472695
_cell_angle_beta   81.98559688
_cell_angle_gamma   61.38845436
_symmetry_Int_Tables_number   1
_chemical_formula_structural   DyH6C7(NO4)2
_chemical_formula_sum   'Dy2 H12 C14 N4 O16'
_cell_volume   481.25469973
_cell_formula_units_Z   2
loop_
 _symmetry_equiv_pos_site_id
 _symmetry_equiv_pos_as_xyz
  1  'x, y, z'
loop_
 _atom_site_type_symbol
 _atom_site_label
 _atom_site_symmetry_multiplicity
 _atom_site_fract_x
 _atom_site_fract_y
 _atom_site_fract_z
 _atom_site_occupancy
 _atom_site_pbe_bader_charge
 _atom_site_pbe_bader_spin_density
 _atom_site_pbe_cm5_charge
 _atom_site_pbe_ddec_charge
 _atom_site_pbe_ddec_spin_density
 _atom_site_pbe_ddec_sum_bond_order
 _atom_site_pbe_magmom
Dy  Dy0  1  0.80318287  0.62522848  0.22610730  1  2.169999  0  1.48017  1.966995  0  2.148995  0
Dy  Dy1  1  0.19681311  0.37477441  0.77389319  1  2.17001  0  1.48018  1.96696  0  2.14905  0
H  H2  1  0.35590426  0.03630622  0.03682007  1  0.147787  0  0.132973  0.105534  0  1.033751  0
H  H3  1  0.76731187  0.17765698  0.60641364  1  0.158141  0  0.130814  0.108239  0  1.020038  0
H  H4  1  0.71293857  0.93580523  0.39052712  1  0.680914  0  0.300114  0.399625  0  0.93611  0
H  H5  1  0.45795958  0.05910243  0.33573610  1  0.629311  0  0.311003  0.404339  0  0.90966  0
H  H6  1  0.53901112  0.38228329  0.17644625  1  0.63295  0  0.319246  0.419372  0  0.878929  0
H  H7  1  0.68213547  0.21227562  0.26556098  1  0.64185  0  0.301664  0.410603  0  0.907079  0
H  H8  1  0.64410349  0.96369276  0.96317632  1  0.147844  0  0.132989  0.105563  0  1.033747  0
H  H9  1  0.23268825  0.82234040  0.39358590  1  0.158148  0  0.130793  0.1082  0  1.02005  0
H  H10  1  0.28706981  0.06418865  0.60947318  1  0.681153  0  0.300117  0.399576  0  0.936158  0
H  H11  1  0.54204381  0.94089143  0.66426768  1  0.629323  0  0.310996  0.404313  0  0.909661  0
H  H12  1  0.46097314  0.61771971  0.82356130  1  0.632615  0  0.319261  0.419369  0  0.87895  0
H  H13  1  0.31786602  0.78772247  0.73444068  1  0.641901  0  0.301644  0.410545  0  0.907141  0
C  C14  1  0.19995198  0.82534416  0.19554155  1  1.638324  0  0.240772  0.611821  0  4.170134  0
C  C15  1  0.08678052  0.92475509  0.09382461  1  0.492257  0  0.136885  0.087208  0  3.929284  0
C  C16  1  0.19893171  0.01915577  0.01759922  1  0.582325  0  0.077252  0.085176  0  3.864087  0
C  C17  1  0.02033108  0.27760393  0.42945900  1  1.609822  0  0.218912  0.564507  0  4.235211  0
C  C18  1  0.74565462  0.39412057  0.46800723  1  0.483236  0  0.129757  0.079396  0  3.925033  0
C  C19  1  0.64750954  0.32184537  0.55935623  1  0.608436  0  0.077827  0.101188  0  3.869657  0
C  C20  1  0.13782171  0.45038324  0.01494649  1  1.576489  0  0.202003  0.475515  0  4.276844  0
C  C21  1  0.80004540  0.17465933  0.80445640  1  1.638227  0  0.240826  0.611867  0  4.17015  0
C  C22  1  0.91322549  0.07524404  0.90617188  1  0.49241  0  0.136967  0.087272  0  3.929221  0
C  C23  1  0.80107443  0.98084307  0.98239653  1  0.582151  0  0.077186  0.085093  0  3.864094  0
C  C24  1  0.97966909  0.72239707  0.57054149  1  1.609743  0  0.218895  0.56452  0  4.23523  0
C  C25  1  0.25434466  0.60587869  0.53199284  1  0.483121  0  0.129722  0.079283  0  3.925017  0
C  C26  1  0.35249058  0.67815201  0.44064331  1  0.608439  0  0.077851  0.101298  0  3.869615  0
C  C27  1  0.86217092  0.54961966  0.98505346  1  1.596108  0  0.202053  0.475622  0  4.276786  0
N  N28  1  0.88625863  0.90479062  0.07668802  1  -1.223549  0  -0.31775  -0.288572  0  3.428837  0
N  N29  1  0.59689290  0.57135961  0.40847201  1  -1.237316  0  -0.347284  -0.313965  0  3.48791  0
N  N30  1  0.11374564  0.09520865  0.92330857  1  -1.223646  0  -0.3178  -0.288637  0  3.428884  0
N  N31  1  0.40310625  0.42863993  0.59152880  1  -1.237272  0  -0.347277  -0.313918  0  3.487882  0
O  O32  1  0.11278477  0.71332869  0.25421593  1  -1.164776  0  -0.374362  -0.60873  0  2.362397  0
O  O33  1  0.38058200  0.85466425  0.21425901  1  -1.186633  0  -0.399162  -0.635613  0  2.34881  0
O  O34  1  0.07306651  0.33002060  0.33448590  1  -1.178649  0  -0.388159  -0.620982  0  2.252432  0
O  O35  1  0.17830940  0.13805877  0.48931432  1  -1.187648  0  -0.302257  -0.539686  0  2.204772  0
O  O36  1  0.16899553  0.43649792  0.11030804  1  -1.165352  0  -0.361144  -0.581134  0  2.296591  0
O  O37  1  0.30892773  0.38830523  0.94159097  1  -1.181182  0  -0.365295  -0.590172  0  2.380974  0
O  O38  1  0.64220628  0.97966907  0.32123353  1  -1.276802  0  -0.581858  -0.808794  0  2.100694  0
O  O39  1  0.67685755  0.34069097  0.22007982  1  -1.259557  0  -0.622075  -0.831835  0  2.062313  0
O  O40  1  0.88721015  0.28667654  0.74578191  1  -1.164724  0  -0.374451  -0.608798  0  2.362367  0
O  O41  1  0.61941488  0.14534038  0.78574191  1  -1.186648  0  -0.399198  -0.635629  0  2.348903  0
O  O42  1  0.92693223  0.66998359  0.66551417  1  -1.178647  0  -0.38815  -0.62098  0  2.252487  0
O  O43  1  0.82169277  0.86194151  0.51068459  1  -1.187457  0  -0.302246  -0.539694  0  2.204768  0
O  O44  1  0.83099637  0.56349916  0.88969370  1  -1.16538  0  -0.361151  -0.581168  0  2.296592  0
O  O45  1  0.69106676  0.61169724  0.05840814  1  -1.181484  0  -0.365317  -0.590231  0  2.380959  0
O  O46  1  0.35779604  0.02032713  0.67876760  1  -1.277055  0  -0.581868  -0.808698  0  2.100674  0
O  O47  1  0.32313614  0.65930959  0.77992278  1  -1.259257  0  -0.622069  -0.831763  0  2.062447  0
