# generated using pymatgen
data_Zn2H17C36S2N3(O5F2)2
_symmetry_space_group_name_H-M   'P 1'
_cell_length_a   12.78264871
_cell_length_b   16.37340988
_cell_length_c   17.74012813
_cell_angle_alpha   95.70969112
_cell_angle_beta   90.04462439
_cell_angle_gamma   91.72538679
_symmetry_Int_Tables_number   1
_chemical_formula_structural   Zn2H17C36S2N3(O5F2)2
_chemical_formula_sum   'Zn2 H17 C36 S2 N3 O10 F4'
_cell_volume   3692.80745068
_cell_formula_units_Z   1
loop_
 _symmetry_equiv_pos_site_id
 _symmetry_equiv_pos_as_xyz
  1  'x, y, z'
loop_
 _atom_site_type_symbol
 _atom_site_label
 _atom_site_symmetry_multiplicity
 _atom_site_fract_x
 _atom_site_fract_y
 _atom_site_fract_z
 _atom_site_occupancy
 _atom_site_pbe_bader_charge
 _atom_site_pbe_bader_spin_density
 _atom_site_pbe_cm5_charge
 _atom_site_pbe_ddec_charge
 _atom_site_pbe_ddec_spin_density
 _atom_site_pbe_ddec_sum_bond_order
 _atom_site_pbe_magmom
Zn  Zn0  1  0.50044505  0.41336288  0.49449796  1  1.290506  0  0.670885  0.820226  0  2.435248  0
Zn  Zn1  1  0.50409543  0.58580066  0.50358463  1  1.286446  0  0.665072  0.815075  0  2.425947  0
H  H2  1  0.39501169  0.71110199  0.42577581  1  0.13143  0  0.131894  0.107247  0  0.964207  0
H  H3  1  0.39539048  0.86278982  0.42643261  1  0.113024  0  0.111891  0.12561  0  1.015026  0
H  H4  1  0.63804094  0.87485248  0.59870652  1  0.104753  0  0.114383  0.125285  0  0.993649  0
H  H5  1  0.62575481  0.72168121  0.59009515  1  0.104133  0  0.132523  0.107715  0  0.963257  0
H  H6  1  0.35704879  0.12548129  0.40509077  1  0.115965  0  0.116764  0.128334  0  0.988405  0
H  H7  1  0.60605185  0.13690085  0.57267801  1  0.107206  0  0.111382  0.124387  0  1.01568  0
H  H8  1  0.60883379  0.28837837  0.57163817  1  0.135128  0  0.132201  0.10749  0  0.965139  0
H  H9  1  0.37054820  0.27826736  0.41283940  1  0.137093  0  0.133761  0.110231  0  0.959893  0
H  H10  1  0.50598484  0.61889061  0.26468155  1  0.07864  0  0.102555  0.105603  0  1.00141  0
H  H11  1  0.50547579  0.61359295  0.12513048  1  0.097136  0  0.097046  0.104108  0  1.035218  0
H  H12  1  0.49197829  0.34834115  0.11114150  1  0.076065  0  0.099837  0.10314  0  1.012528  0
H  H13  1  0.49474317  0.35595633  0.25157502  1  0.094599  0  0.104938  0.1093  0  0.997488  0
H  H14  1  0.50832312  0.65234732  0.88719517  1  0.102302  0  0.099434  0.103219  0  1.013245  0
H  H15  1  0.49302418  0.38711851  0.87319486  1  0.104601  0  0.097547  0.104251  0  1.034975  0
H  H16  1  0.49271454  0.38176574  0.73366568  1  0.099948  0  0.104787  0.108921  0  0.997524  0
H  H17  1  0.50943400  0.64466299  0.74672736  1  0.084906  0  0.103315  0.106826  0  1.001366  0
H  H18  1  0.86633140  0.62919780  0.50469672  1  0.080465  0  0.115385  0.140408  0  0.98042  0
C  C19  1  0.50124506  0.49162980  0.35155681  1  1.574249  0  0.213181  0.589572  0  4.173477  0
C  C20  1  0.29735650  0.49864708  0.49899922  1  1.662739  0  0.207004  0.602743  0  4.229309  0
C  C21  1  0.50199028  0.50884664  0.64671786  1  1.531803  0  0.214426  0.591764  0  4.169355  0
C  C22  1  0.70732107  0.50022970  0.50030751  1  1.622517  0  0.206411  0.598992  0  4.222325  0
C  C23  1  0.44727236  0.75039339  0.46320592  1  0.446478  0  0.063942  0.109513  0  3.914093  0
C  C24  1  0.44812531  0.83525380  0.46388847  1  0.04627  0  -0.076737  -0.162983  0  3.925052  0
C  C25  1  0.51744458  0.88319863  0.51327257  1  0.021765  0  0.004975  0.074346  0  4.045172  0
C  C26  1  0.58286282  0.84128521  0.55956011  1  -0.034037  0  -0.07828  -0.166633  0  3.931686  0
C  C27  1  0.57665081  0.75621188  0.55511817  1  0.504919  0  0.065095  0.111219  0  3.917748  0
C  C28  1  0.52550165  0.97248025  0.51937687  1  0.575727  0  0.097636  0.110766  0  4.005686  0
C  C29  1  0.47294072  0.02752982  0.48205540  1  0.506142  0  0.101463  0.119465  0  4.004447  0
C  C30  1  0.41437001  0.15872745  0.44270696  1  0.022715  0  -0.073208  -0.15768  0  3.915497  0
C  C31  1  0.48123290  0.11681302  0.48786304  1  -0.042712  0  0.00582  0.07164  0  4.043344  0
C  C32  1  0.55247896  0.16450381  0.53587249  1  0.049619  0  -0.076779  -0.161228  0  3.923908  0
C  C33  1  0.55450390  0.24927220  0.53574223  1  0.446261  0  0.065444  0.110265  0  3.910585  0
C  C34  1  0.42148806  0.24376804  0.44649993  1  0.494622  0  0.068467  0.118473  0  3.902536  0
C  C35  1  0.50001753  0.48786872  0.26694996  1  -0.031781  0  -0.016587  -0.027636  0  3.960325  0
C  C36  1  0.50290940  0.55989695  0.23029654  1  -0.015429  0  -0.08502  -0.086801  0  3.990624  0
C  C37  1  0.50255494  0.55673088  0.15177958  1  -0.004107  0  -0.093014  -0.125197  0  3.971638  0
C  C38  1  0.49844755  0.48024157  0.10700827  1  0.034618  0  -0.015943  0.037897  0  4.057649  0
C  C39  1  0.49520628  0.40788101  0.14443145  1  -0.02391  0  -0.093186  -0.125475  0  3.976733  0
C  C40  1  0.49645435  0.41186160  0.22295723  1  -0.045136  0  -0.083303  -0.084157  0  3.985636  0
C  C41  1  0.49768919  0.47173147  0.02461085  1  0.410384  0  0.085549  0.102177  0  4.025406  0
C  C42  1  0.50105129  0.52895162  0.97370551  1  0.505587  0  0.085285  0.103398  0  4.022486  0
C  C43  1  0.50542481  0.59281440  0.85388874  1  -0.113163  0  -0.095072  -0.128478  0  3.980267  0
C  C44  1  0.50099720  0.52046410  0.89132273  1  0.01819  0  -0.016068  0.03791  0  4.057386  0
C  C45  1  0.49666850  0.44397657  0.84653384  1  -0.105439  0  -0.091743  -0.123164  0  3.96773  0
C  C46  1  0.49680066  0.44077470  0.76801430  1  -0.018269  0  -0.082638  -0.083794  0  3.982389  0
C  C47  1  0.50182709  0.51279356  0.73134222  1  0.074842  0  -0.016624  -0.029034  0  3.960549  0
C  C48  1  0.50610437  0.58877966  0.77535254  1  0.006281  0  -0.084757  -0.086065  0  3.992405  0
C  C49  1  0.10989608  0.43048293  0.49963548  1  0.264836  0  0.072678  0.024737  0  3.950034  0
C  C50  1  0.89221108  0.56632968  0.50228419  1  0.027865  0  -0.096415  -0.147154  0  3.985069  0
C  C51  1  0.18129761  0.49639274  0.50268094  1  -0.124405  0  -0.009939  -0.140969  0  3.905834  0
C  C52  1  0.82305989  0.49968935  0.49983899  1  -0.193247  0  -0.020861  -0.09963  0  3.958965  0
C  C53  1  0.99683472  0.54055197  0.50121854  1  -0.125457  0  -0.023952  -0.005063  0  4.077646  0
C  C54  1  0.00462273  0.45460077  0.49749437  1  -0.120103  0  -0.022811  -0.072203  0  4.081012  0
S  S55  1  0.11882038  0.58896204  0.50444501  1  0.286101  0  0.094259  0.141788  0  2.761072  0
S  S56  1  0.88373347  0.40561094  0.49513936  1  0.29904  0  0.087515  0.141729  0  2.784729  0
N  N57  1  0.50999634  0.71138662  0.50783171  1  -1.227711  0  -0.31582  -0.18961  0  3.510257  0
N  N58  1  0.49086825  0.28830802  0.49175886  1  -1.225398  0  -0.314029  -0.187711  0  3.504358  0
N  N59  1  0.13523736  0.34416932  0.49984209  1  0.370758  0  0.057697  0.536284  0  4.216985  0
O  O60  1  0.51167322  0.42420569  0.38051808  1  -1.16056  0  -0.318008  -0.544973  0  2.325115  0
O  O61  1  0.49186290  0.56211310  0.38841785  1  -1.172754  0  -0.321079  -0.555085  0  2.331515  0
O  O62  1  0.34129966  0.56969828  0.51117114  1  -1.159834  0  -0.319807  -0.545172  0  2.298332  0
O  O63  1  0.34159829  0.43090949  0.48306941  1  -1.147448  0  -0.31083  -0.531486  0  2.34637  0
O  O64  1  0.51341119  0.57668969  0.61750065  1  -1.168843  0  -0.320965  -0.552165  0  2.331304  0
O  O65  1  0.49049050  0.43816218  0.61002926  1  -1.166537  0  -0.316856  -0.547166  0  2.322739  0
O  O66  1  0.66077248  0.43061342  0.50369374  1  -1.161388  0  -0.321376  -0.549164  0  2.322652  0
O  O67  1  0.66506924  0.56920181  0.49740542  1  -1.15343  0  -0.318989  -0.542535  0  2.289895  0
O  O68  1  0.08713424  0.29546504  0.45257085  1  -0.461128  0  -0.156931  -0.357139  0  1.840186  0
O  O69  1  0.19810325  0.32463755  0.54728504  1  -0.430343  0  -0.129443  -0.318518  0  1.889988  0
F  F70  1  0.59811269  0.00485809  0.57143515  1  -0.626441  0  -0.075095  -0.107926  0  1.392174  0
F  F71  1  0.40024428  0.99497458  0.43020355  1  -0.626359  0  -0.073716  -0.107146  0  1.392675  0
F  F72  1  0.49315808  0.39142581  0.99359651  1  -0.63157  0  -0.087673  -0.120636  0  1.397808  0
F  F73  1  0.50550806  0.60927541  0.00474278  1  -0.631735  0  -0.088889  -0.122277  0  1.396019  0
