# generated using pymatgen
data_HgH12C12S2N4O13
_symmetry_space_group_name_H-M   'P 1'
_cell_length_a   7.50011128
_cell_length_b   7.50012421
_cell_length_c   18.06395126
_cell_angle_alpha   91.61520120
_cell_angle_beta   91.61555813
_cell_angle_gamma   115.35174378
_symmetry_Int_Tables_number   1
_chemical_formula_structural   HgH12C12S2N4O13
_chemical_formula_sum   'Hg2 H24 C24 S4 N8 O26'
_cell_volume   916.99507551
_cell_formula_units_Z   2
loop_
 _symmetry_equiv_pos_site_id
 _symmetry_equiv_pos_as_xyz
  1  'x, y, z'
loop_
 _atom_site_type_symbol
 _atom_site_label
 _atom_site_symmetry_multiplicity
 _atom_site_fract_x
 _atom_site_fract_y
 _atom_site_fract_z
 _atom_site_occupancy
 _atom_site_hle17_bader_spin_density
 _atom_site_hle17_ddec_charge
 _atom_site_hle17_ddec_spin_density
 _atom_site_hle17_ddec_sum_bond_order
 _atom_site_hle17_magmom
 _atom_site_hse06_10hf_bader_spin_density
 _atom_site_hse06_10hf_ddec_charge
 _atom_site_hse06_10hf_ddec_spin_density
 _atom_site_hse06_10hf_ddec_sum_bond_order
 _atom_site_hse06_10hf_magmom
 _atom_site_hse06_bader_spin_density
 _atom_site_hse06_ddec_charge
 _atom_site_hse06_ddec_spin_density
 _atom_site_hse06_ddec_sum_bond_order
 _atom_site_hse06_magmom
 _atom_site_pbe_bader_spin_density
 _atom_site_pbe_cm5_charge
 _atom_site_pbe_ddec_charge
 _atom_site_pbe_ddec_spin_density
 _atom_site_pbe_ddec_sum_bond_order
 _atom_site_pbe_magmom
Hg  Hg0  1  0.95960113  0.04040158  0.75000061  1  0  1.092333  0  1.792881  0  0  0.919749  0  2.264073  0  0  0.967626  0  2.222622  0  0  0.747383  0.886055  0  2.292302  0
Hg  Hg1  1  0.04040113  0.95960113  0.25000027  1  0  1.092371  0  1.792833  0  0  0.919728  0  2.264127  0  0  0.967607  0  2.222676  0  0  0.747374  0.886034  0  2.292355  0
H  H2  1  0.62744713  0.18352547  0.73344184  1  0  0.427729  0  0.869665  0  0  0.39507  0  0.936806  0  0  0.405008  0  0.9222  0  0  0.293772  0.388028  0  0.947162  0
H  H3  1  0.18352460  0.62744453  0.23344150  1  0  0.427707  0  0.869691  0  0  0.395046  0  0.936833  0  0  0.404984  0  0.922227  0  0  0.293758  0.388003  0  0.947191  0
H  H4  1  0.37254998  0.81647135  0.26655777  1  0  0.427901  0  0.869415  0  0  0.395106  0  0.936753  0  0  0.405044  0  0.922146  0  0  0.29378  0.388068  0  0.947102  0
H  H5  1  0.81647252  0.37255228  0.76655811  1  0  0.427736  0  0.86966  0  0  0.395082  0  0.936788  0  0  0.405021  0  0.922182  0  0  0.293766  0.388044  0  0.947138  0
H  H6  1  0.57328603  0.67049017  0.79982526  1  0  0.436168  0  0.841298  0  0  0.407649  0  0.907072  0  0  0.416591  0  0.893825  0  0  0.302358  0.401335  0  0.916425  0
H  H7  1  0.67048833  0.57328790  0.29982621  1  0  0.436167  0  0.841269  0  0  0.40762  0  0.907114  0  0  0.416563  0  0.893864  0  0  0.302344  0.401307  0  0.916467  0
H  H8  1  0.42671306  0.32950814  0.20017385  1  0  0.436163  0  0.84122  0  0  0.40764  0  0.907065  0  0  0.416582  0  0.893818  0  0  0.302351  0.401326  0  0.916421  0
H  H9  1  0.32950996  0.42671483  0.70017296  1  0  0.436124  0  0.841333  0  0  0.407596  0  0.907146  0  0  0.416539  0  0.893897  0  0  0.302323  0.40128  0  0.916503  0
H  H10  1  0.51884396  0.84808869  0.80792564  1  0  0.43876  0  0.831482  0  0  0.409662  0  0.900844  0  0  0.418827  0  0.8871  0  0  0.303445  0.40321  0  0.910525  0
H  H11  1  0.84808901  0.51884564  0.30792525  1  0  0.438821  0  0.831355  0  0  0.409689  0  0.900801  0  0  0.418854  0  0.887058  0  0  0.30346  0.403237  0  0.910484  0
H  H12  1  0.48115448  0.15190812  0.19207455  1  0  0.438769  0  0.831441  0  0  0.409664  0  0.900834  0  0  0.418827  0  0.887094  0  0  0.303441  0.403211  0  0.910515  0
H  H13  1  0.15191060  0.48115709  0.69207449  1  0  0.438752  0  0.83148  0  0  0.409656  0  0.900848  0  0  0.41882  0  0.887106  0  0  0.303442  0.403203  0  0.910531  0
H  H14  1  0.73951583  0.12647549  0.89074517  1  0  0.131191  0  0.964857  0  0  0.138685  0  1.026212  0  0  0.142641  0  1.024438  0  0  0.106782  0.135763  0  1.027774  0
H  H15  1  0.12647356  0.73951929  0.39074634  1  0  0.131203  0  0.964871  0  0  0.13869  0  1.026225  0  0  0.142651  0  1.024454  0  0  0.106791  0.135782  0  1.027769  0
H  H16  1  0.26048470  0.87351990  0.10925337  1  0  0.131272  0  0.964765  0  0  0.138748  0  1.026135  0  0  0.142703  0  1.024362  0  0  0.106801  0.135801  0  1.027715  0
H  H17  1  0.87352329  0.26048634  0.60925395  1  0  0.1313  0  0.964734  0  0  0.138762  0  1.026118  0  0  0.142717  0  1.024342  0  0  0.106802  0.135814  0  1.027697  0
H  H18  1  0.68158353  0.23298993  0.01691873  1  0  0.12615  0  0.93673  0  0  0.131126  0  1.00201  0  0  0.135378  0  0.997807  0  0  0.11289  0.128039  0  1.005039  0
H  H19  1  0.23299287  0.68158792  0.51691966  1  0  0.126109  0  0.936787  0  0  0.131075  0  1.002074  0  0  0.13532  0  0.997882  0  0  0.112838  0.127986  0  1.005106  0
H  H20  1  0.31841565  0.76700544  0.98308034  1  0  0.126132  0  0.936741  0  0  0.131156  0  1.001956  0  0  0.135406  0  0.997761  0  0  0.112887  0.128068  0  1.004991  0
H  H21  1  0.76700667  0.31841775  0.48308012  1  0  0.126236  0  0.936714  0  0  0.131177  0  1.002028  0  0  0.135428  0  0.99783  0  0  0.1129  0.12809  0  1.005059  0
H  H22  1  0.27936860  0.35942696  0.09091896  1  0  0.154473  0  0.95166  0  0  0.158009  0  1.018504  0  0  0.162544  0  1.014011  0  0  0.11962  0.154717  0  1.021785  0
H  H23  1  0.35943315  0.27937097  0.59091947  1  0  0.154441  0  0.951651  0  0  0.157975  0  1.018503  0  0  0.16251  0  1.014011  0  0  0.119595  0.15468  0  1.021791  0
H  H24  1  0.72063190  0.64056840  0.90908068  1  0  0.154455  0  0.95164  0  0  0.157992  0  1.018496  0  0  0.162527  0  1.014002  0  0  0.119592  0.154701  0  1.021781  0
H  H25  1  0.64057236  0.72063620  0.40908041  1  0  0.154521  0  0.95152  0  0  0.157976  0  1.018493  0  0  0.16251  0  1.014003  0  0  0.119586  0.154689  0  1.021769  0
C  C26  1  0.04366934  0.19037354  0.91969329  1  0  0.206242  0  3.85671  0  0  0.185081  0  4.116759  0  0  0.196658  0  4.139595  0  0  0.098145  0.177335  0  4.101121  0
C  C27  1  0.19037629  0.04367510  0.41969331  1  0  0.206376  0  3.856546  0  0  0.185108  0  4.116762  0  0  0.196685  0  4.1396  0  0  0.098143  0.177371  0  4.101119  0
C  C28  1  0.95633311  0.80962329  0.08030696  1  0  0.206299  0  3.856771  0  0  0.185084  0  4.116811  0  0  0.196664  0  4.139645  0  0  0.098143  0.17734  0  4.101163  0
C  C29  1  0.80962387  0.95633204  0.58030649  1  0  0.206369  0  3.856731  0  0  0.185107  0  4.116846  0  0  0.196686  0  4.139681  0  0  0.09818  0.177365  0  4.101201  0
C  C30  1  0.85645091  0.17913647  0.93389656  1  0  -0.138638  0  3.675685  0  0  -0.158975  0  3.936626  0  0  -0.167412  0  3.956782  0  0  -0.09887  -0.153449  0  3.923153  0
C  C31  1  0.17913722  0.85645271  0.43389712  1  0  -0.138646  0  3.675594  0  0  -0.158983  0  3.936604  0  0  -0.167427  0  3.956766  0  0  -0.098867  -0.153468  0  3.923119  0
C  C32  1  0.14355228  0.82085892  0.06610256  1  0  -0.138697  0  3.675636  0  0  -0.159017  0  3.936581  0  0  -0.167455  0  3.956738  0  0  -0.098911  -0.153466  0  3.923117  0
C  C33  1  0.82086034  0.14355147  0.56610261  1  0  -0.138671  0  3.675533  0  0  -0.159067  0  3.936596  0  0  -0.167502  0  3.956751  0  0  -0.098938  -0.153515  0  3.923125  0
C  C34  1  0.82437139  0.23769718  0.00411338  1  0  -0.075092  0  3.71206  0  0  -0.110026  0  3.987334  0  0  -0.104781  0  4.003681  0  0  -0.081647  -0.113164  0  3.976183  0
C  C35  1  0.23769958  0.82437376  0.50411299  1  0  -0.075051  0  3.712167  0  0  -0.110041  0  3.987466  0  0  -0.104791  0  4.003808  0  0  -0.081645  -0.113181  0  3.976312  0
C  C36  1  0.17562902  0.76230113  0.99588631  1  0  -0.075148  0  3.712166  0  0  -0.110144  0  3.987412  0  0  -0.104899  0  4.003756  0  0  -0.081676  -0.113287  0  3.976255  0
C  C37  1  0.76230132  0.17563194  0.49588570  1  0  -0.074801  0  3.712371  0  0  -0.110148  0  3.987411  0  0  -0.104905  0  4.003758  0  0  -0.081665  -0.113289  0  3.976253  0
C  C38  1  0.97559293  0.30155373  0.05968419  1  0  0.060606  0  3.753089  0  0  0.039687  0  4.017226  0  0  0.031938  0  4.042711  0  0  0.065078  0.044488  0  4.000187  0
C  C39  1  0.30155918  0.97559384  0.55968426  1  0  0.060499  0  3.753196  0  0  0.039711  0  4.017217  0  0  0.031964  0  4.042702  0  0  0.065083  0.044522  0  4.000167  0
C  C40  1  0.02440891  0.69844164  0.94031547  1  0  0.060488  0  3.753214  0  0  0.039663  0  4.017289  0  0  0.031912  0  4.042776  0  0  0.065039  0.044471  0  4.000251  0
C  C41  1  0.69844312  0.02440891  0.44031496  1  0  0.058654  0  3.753992  0  0  0.039691  0  4.017195  0  0  0.031943  0  4.042684  0  0  0.065064  0.044498  0  4.000157  0
C  C42  1  0.16417197  0.31164902  0.04728498  1  0  -0.170033  0  3.691037  0  0  -0.206155  0  3.956832  0  0  -0.203422  0  3.971879  0  0  -0.08717  -0.207753  0  3.946933  0
C  C43  1  0.31165481  0.16417491  0.54728502  1  0  -0.169916  0  3.690986  0  0  -0.206084  0  3.956759  0  0  -0.203349  0  3.971807  0  0  -0.087118  -0.207685  0  3.94686  0
C  C44  1  0.83582917  0.68834784  0.95271414  1  0  -0.169915  0  3.690964  0  0  -0.206082  0  3.956723  0  0  -0.203345  0  3.971769  0  0  -0.087088  -0.207684  0  3.94683  0
C  C45  1  0.68835070  0.83583227  0.45271487  1  0  -0.169659  0  3.691197  0  0  -0.206153  0  3.956734  0  0  -0.20342  0  3.971786  0  0  -0.087133  -0.207752  0  3.946839  0
C  C46  1  0.19285661  0.25867874  0.97709167  1  0  0.195449  0  3.7674  0  0  0.185456  0  4.03227  0  0  0.18833  0  4.048908  0  0  0.078546  0.183062  0  4.021241  0
C  C47  1  0.25868620  0.19286072  0.47709164  1  0  0.195398  0  3.767346  0  0  0.18539  0  4.032314  0  0  0.188262  0  4.048954  0  0  0.078505  0.182985  0  4.021296  0
C  C48  1  0.80714530  0.74131367  0.02290850  1  0  0.195315  0  3.767449  0  0  0.185386  0  4.032267  0  0  0.188254  0  4.048908  0  0  0.078524  0.182991  0  4.021245  0
C  C49  1  0.74131531  0.80714644  0.52290764  1  0  0.195567  0  3.767351  0  0  0.18554  0  4.032299  0  0  0.188407  0  4.048942  0  0  0.078585  0.183138  0  4.021285  0
S  S50  1  0.34755128  0.20141304  0.86446790  1  0  1.388993  0  5.458607  0  0  1.269282  0  5.998246  0  0  1.323459  0  5.976844  0  0  0.646338  1.232065  0  6.011643  0
S  S51  1  0.20141483  0.34755433  0.36446806  1  0  1.389088  0  5.45838  0  0  1.269326  0  5.998077  0  0  1.323499  0  5.976681  0  0  0.64633  1.23211  0  6.011481  0
S  S52  1  0.65244576  0.79858673  0.13553120  1  0  1.389102  0  5.458319  0  0  1.269328  0  5.998009  0  0  1.323505  0  5.976607  0  0  0.646332  1.232106  0  6.011412  0
S  S53  1  0.79858478  0.65244839  0.63553168  1  0  1.389016  0  5.458657  0  0  1.26926  0  5.998294  0  0  1.323428  0  5.976897  0  0  0.646346  1.232051  0  6.011684  0
N  N54  1  0.11059224  0.14309189  0.85506164  1  0  -0.622793  0  3.151482  0  0  -0.538586  0  3.467019  0  0  -0.572342  0  3.47623  0  0  -0.377673  -0.515079  0  3.45967  0
N  N55  1  0.14309120  0.11059367  0.35506196  1  0  -0.622789  0  3.151385  0  0  -0.53859  0  3.467071  0  0  -0.572348  0  3.476283  0  0  -0.37764  -0.515091  0  3.459732  0
N  N56  1  0.88941558  0.85690499  0.14493813  1  0  -0.622843  0  3.151344  0  0  -0.538559  0  3.466823  0  0  -0.572315  0  3.476032  0  0  -0.377658  -0.51505  0  3.459472  0
N  N57  1  0.85690431  0.88941196  0.64493831  1  0  -0.622941  0  3.151462  0  0  -0.538678  0  3.466964  0  0  -0.572432  0  3.476172  0  0  -0.377709  -0.515174  0  3.459619  0
N  N58  1  0.94125829  0.36359296  0.13157488  1  0  0.465698  0  3.953045  0  0  0.52586  0  4.204878  0  0  0.548276  0  4.212782  0  0  0.04072  0.510915  0  4.199525  0
N  N59  1  0.36359657  0.94125808  0.63157559  1  0  0.46593  0  3.952842  0  0  0.52596  0  4.204785  0  0  0.548377  0  4.212689  0  0  0.040785  0.511015  0  4.199431  0
N  N60  1  0.05874346  0.63640535  0.86842482  1  0  0.465952  0  3.952855  0  0  0.526024  0  4.204767  0  0  0.548442  0  4.212669  0  0  0.04082  0.511075  0  4.199419  0
N  N61  1  0.63640368  0.05874613  0.36842362  1  0  0.470228  0  3.951601  0  0  0.526082  0  4.204782  0  0  0.5485  0  4.212685  0  0  0.040811  0.511132  0  4.199439  0
O  O62  1  0.76707229  0.23292615  0.75000031  1  0  -0.844472  0  1.886867  0  0  -0.782307  0  2.088193  0  0  -0.803109  0  2.056507  0  0  -0.591032  -0.7675  0  2.110213  0
O  O63  1  0.23292486  0.76707069  0.24999820  1  0  -0.844405  0  1.886614  0  0  -0.782306  0  2.08818  0  0  -0.803111  0  2.056496  0  0  -0.591036  -0.767503  0  2.110204  0
O  O64  1  0.62958356  0.81241744  0.81151593  1  0  -0.832329  0  1.826631  0  0  -0.784455  0  2.02848  0  0  -0.803347  0  1.998182  0  0  -0.583954  -0.770729  0  2.049393  0
O  O65  1  0.81241590  0.62958399  0.31151586  1  0  -0.832252  0  1.826439  0  0  -0.784454  0  2.02846  0  0  -0.803346  0  1.998166  0  0  -0.583956  -0.770728  0  2.049373  0
O  O66  1  0.37041551  0.18758086  0.18848374  1  0  -0.832276  0  1.826486  0  0  -0.784434  0  2.02846  0  0  -0.803323  0  1.998159  0  0  -0.583938  -0.770707  0  2.04937  0
O  O67  1  0.18758309  0.37041725  0.68848385  1  0  -0.832268  0  1.826616  0  0  -0.784394  0  2.028496  0  0  -0.803282  0  1.998194  0  0  -0.583916  -0.770665  0  2.049405  0
O  O68  1  0.46799980  0.37321772  0.82529683  1  0  -0.587444  0  1.990126  0  0  -0.534998  0  2.23899  0  0  -0.557942  0  2.226387  0  0  -0.28317  -0.518947  0  2.24716  0
O  O69  1  0.37321603  0.46800167  0.32529533  1  0  -0.587401  0  1.990058  0  0  -0.534966  0  2.23898  0  0  -0.557906  0  2.226372  0  0  -0.283181  -0.518922  0  2.247158  0
O  O70  1  0.53200257  0.62677903  0.17470673  1  0  -0.58745  0  1.989817  0  0  -0.535007  0  2.238709  0  0  -0.557958  0  2.22611  0  0  -0.283163  -0.518959  0  2.246885  0
O  O71  1  0.62678018  0.53200248  0.67470549  1  0  -0.587424  0  1.990129  0  0  -0.534955  0  2.23896  0  0  -0.557895  0  2.226361  0  0  -0.283186  -0.518913  0  2.247133  0
O  O72  1  0.38968023  0.03250193  0.85616529  1  0  -0.58924  0  2.001791  0  0  -0.544702  0  2.258981  0  0  -0.568203  0  2.247624  0  0  -0.285663  -0.528243  0  2.266303  0
O  O73  1  0.03250010  0.38968221  0.35616622  1  0  -0.58924  0  2.001621  0  0  -0.544728  0  2.258819  0  0  -0.56822  0  2.247445  0  0  -0.285647  -0.52827  0  2.266143  0
O  O74  1  0.61032429  0.96749346  0.14383441  1  0  -0.589246  0  2.001888  0  0  -0.544729  0  2.259185  0  0  -0.568215  0  2.247796  0  0  -0.285665  -0.528277  0  2.266506  0
O  O75  1  0.96749406  0.61032339  0.64383458  1  0  -0.589245  0  2.001935  0  0  -0.544684  0  2.259116  0  0  -0.568181  0  2.247754  0  0  -0.285661  -0.528234  0  2.266433  0
O  O76  1  0.37068524  0.26529355  0.95401127  1  0  -0.359746  0  2.140655  0  0  -0.284788  0  2.365559  0  0  -0.302807  0  2.361662  0  0  -0.152553  -0.272186  0  2.367972  0
O  O77  1  0.26530237  0.37068966  0.45401049  1  0  -0.359728  0  2.140543  0  0  -0.284815  0  2.365522  0  0  -0.302828  0  2.361612  0  0  -0.152568  -0.272206  0  2.367932  0
O  O78  1  0.62931269  0.73469583  0.04599102  1  0  -0.359696  0  2.140679  0  0  -0.284757  0  2.365585  0  0  -0.30278  0  2.361699  0  0  -0.152531  -0.272152  0  2.367996  0
O  O79  1  0.73469580  0.62931597  0.54599038  1  0  -0.359723  0  2.140716  0  0  -0.284808  0  2.365641  0  0  -0.302826  0  2.361752  0  0  -0.152568  -0.272204  0  2.368052  0
O  O80  1  0.79400304  0.39651602  0.14025405  1  0  -0.356099  0  1.80125  0  0  -0.347236  0  2.008213  0  0  -0.3552  0  2.00226  0  0  -0.135746  -0.342149  0  2.012527  0
O  O81  1  0.39652039  0.79400393  0.64025445  1  0  -0.356195  0  1.801182  0  0  -0.347268  0  2.008153  0  0  -0.355231  0  2.002199  0  0  -0.135763  -0.342179  0  2.012465  0
O  O82  1  0.20599675  0.60348081  0.85974561  1  0  -0.356216  0  1.80118  0  0  -0.347293  0  2.008143  0  0  -0.355255  0  2.002187  0  0  -0.135776  -0.342195  0  2.012452  0
O  O83  1  0.60348058  0.20599881  0.35974475  1  0  -0.358423  0  1.801351  0  0  -0.347336  0  2.008194  0  0  -0.355299  0  2.00224  0  0  -0.135792  -0.342247  0  2.012513  0
O  O84  1  0.06525892  0.38406439  0.18368556  1  0  -0.423927  0  1.824527  0  0  -0.404361  0  2.040045  0  0  -0.416448  0  2.032454  0  0  -0.159409  -0.396522  0  2.045504  0
O  O85  1  0.38406731  0.06525908  0.68368629  1  0  -0.423997  0  1.824442  0  0  -0.404395  0  2.039996  0  0  -0.416486  0  2.032408  0  0  -0.159434  -0.396569  0  2.045475  0
O  O86  1  0.93474212  0.61593540  0.81631415  1  0  -0.423992  0  1.824389  0  0  -0.404428  0  2.039963  0  0  -0.416518  0  2.032375  0  0  -0.15944  -0.396591  0  2.045428  0
O  O87  1  0.61593559  0.93474512  0.31631406  1  0  -0.426185  0  1.824584  0  0  -0.404463  0  2.039989  0  0  -0.416555  0  2.0324  0  0  -0.159441  -0.396624  0  2.045439  0
