# generated using pymatgen
data_CuPH16C8NO6
_symmetry_space_group_name_H-M   'P 1'
_cell_length_a   6.99900975
_cell_length_b   11.18475560
_cell_length_c   14.25000000
_cell_angle_alpha   90.00000000
_cell_angle_beta   90.00000000
_cell_angle_gamma   90.00000000
_symmetry_Int_Tables_number   1
_chemical_formula_structural   CuPH16C8NO6
_chemical_formula_sum   'Cu4 P4 H64 C32 N4 O24'
_cell_volume   1115.52154249
_cell_formula_units_Z   4
loop_
 _symmetry_equiv_pos_site_id
 _symmetry_equiv_pos_as_xyz
  1  'x, y, z'
loop_
 _atom_site_type_symbol
 _atom_site_label
 _atom_site_symmetry_multiplicity
 _atom_site_fract_x
 _atom_site_fract_y
 _atom_site_fract_z
 _atom_site_occupancy
 _atom_site_hle17_ddec_charge
 _atom_site_hle17_ddec_spin_density
 _atom_site_hle17_ddec_sum_bond_order
 _atom_site_hle17_magmom
 _atom_site_hse06_10hf_ddec_charge
 _atom_site_hse06_10hf_ddec_spin_density
 _atom_site_hse06_10hf_ddec_sum_bond_order
 _atom_site_hse06_10hf_magmom
 _atom_site_hse06_ddec_charge
 _atom_site_hse06_ddec_spin_density
 _atom_site_hse06_ddec_sum_bond_order
 _atom_site_hse06_magmom
 _atom_site_pbe_bader_charge
 _atom_site_pbe_bader_spin_density
 _atom_site_pbe_cm5_charge
 _atom_site_pbe_ddec_charge
 _atom_site_pbe_ddec_spin_density
 _atom_site_pbe_ddec_sum_bond_order
 _atom_site_pbe_magmom
Cu  Cu0  1  0.71735577  0.40785513  0.99958316  1  0.91252  -0.678837  1.688209  -0.509  0.905912  -0.779946  2.059735  -0.637  0.998127  -0.844724  1.997006  -0.726  1.090178  -0.580831  0.723688  0.845842  -0.73532  2.107528  -0.581
Cu  Cu1  1  0.78264786  0.59214526  0.49958175  1  0.912569  -0.678854  1.688096  -0.509  0.905974  -0.779939  2.05955  -0.637  0.998182  -0.844724  1.996811  -0.726  1.090186  -0.580845  0.723662  0.84591  -0.735342  2.107385  -0.581
Cu  Cu2  1  0.28263570  0.90785533  0.50041404  1  0.912462  -0.6788  1.687869  -0.509  0.90588  -0.779922  2.059366  -0.637  0.998095  -0.844717  1.996618  -0.726  1.090375  -0.580829  0.723628  0.845715  -0.735304  2.107297  -0.581
Cu  Cu3  1  0.21736361  0.09214506  0.00041684  1  0.912469  -0.678829  1.68807  -0.509  0.905925  -0.779952  2.059561  -0.637  0.998125  -0.844726  1.996811  -0.726  1.090335  -0.58084  0.723663  0.845795  -0.735327  2.107417  -0.581
P  P4  1  0.93789839  0.63529774  0.96558526  1  1.479933  -0.004158  4.763301  -0.003  1.324515  -0.005511  5.271025  -0.004  1.375864  -0.003844  5.232503  -0.003  3.360666  -0.005088  0.358882  1.288741  -0.006918  5.297242  -0.005
P  P5  1  0.56209952  0.36470533  0.46558456  1  1.479907  -0.00416  4.763399  -0.003  1.324489  -0.005511  5.271134  -0.004  1.37584  -0.003842  5.232621  -0.003  3.360801  -0.005091  0.358847  1.288704  -0.006918  5.297351  -0.005
P  P6  1  0.06209593  0.13530649  0.53441053  1  1.479987  -0.004158  4.763302  -0.003  1.324633  -0.005511  5.270942  -0.004  1.375978  -0.003844  5.232437  -0.003  3.360398  -0.005084  0.358953  1.288852  -0.006917  5.297154  -0.005
P  P7  1  0.43790338  0.86469659  0.03441263  1  1.479976  -0.004152  4.763143  -0.003  1.324558  -0.005511  5.270868  -0.004  1.375908  -0.003844  5.232353  -0.003  3.360384  -0.005084  0.35895  1.288778  -0.006918  5.297081  -0.005
H  H8  1  0.87549528  0.46676389  0.74121053  1  0.086659  -0.00531  0.9312  -0.007  0.100373  -0.003117  0.993009  -0.004  0.100173  -0.002078  0.993562  -0.003  0.077724  -0.007483  0.107851  0.100188  -0.003849  0.992889  -0.005
H  H9  1  0.62450835  0.53323651  0.24120491  1  0.086651  -0.005309  0.931311  -0.007  0.100376  -0.003116  0.993055  -0.004  0.100173  -0.002078  0.99362  -0.003  0.077581  -0.007481  0.107894  0.10019  -0.003847  0.992935  -0.005
H  H10  1  0.12450190  0.96676677  0.75879088  1  0.086666  -0.005308  0.931152  -0.007  0.100396  -0.003118  0.992947  -0.004  0.100185  -0.002079  0.993501  -0.003  0.07761  -0.007486  0.10786  0.100211  -0.00385  0.992829  -0.005
H  H11  1  0.37549598  0.03323989  0.25879228  1  0.086595  -0.00531  0.931247  -0.007  0.100312  -0.003117  0.993045  -0.004  0.100111  -0.002078  0.993603  -0.003  0.077653  -0.007482  0.107804  0.100127  -0.003848  0.992927  -0.005
H  H12  1  0.00542220  0.43868638  0.84714526  1  0.082274  -0.000209  0.92788  -0.001  0.09883  -0.00012  0.986289  -0.001  0.09894  -1.9e-05  0.986366  0.0  0.068813  -0.00085  0.111  0.098509  -0.000211  0.986451  -0.001
H  H13  1  0.49457711  0.56131222  0.34713825  1  0.082365  -0.000211  0.927793  -0.001  0.098863  -0.00012  0.986246  -0.001  0.098977  -1.9e-05  0.986325  0.0  0.068477  -0.00085  0.111023  0.098542  -0.000211  0.986408  -0.001
H  H14  1  0.99456784  0.93868926  0.65285754  1  0.082294  -0.000208  0.927847  -0.001  0.098848  -0.00012  0.98627  -0.001  0.098951  -1.9e-05  0.986342  0.0  0.069028  -0.00085  0.110991  0.098529  -0.000211  0.986427  -0.001
H  H15  1  0.50542721  0.06131649  0.15286105  1  0.082337  -0.000211  0.927824  -0.001  0.098879  -0.00012  0.986244  -0.001  0.09899  -1.9e-05  0.986321  0.0  0.068534  -0.00085  0.11102  0.098558  -0.000211  0.986405  -0.001
H  H16  1  0.84103040  0.24618866  0.86772281  1  0.069683  0.000431  0.974633  0.0  0.077011  0.000479  1.057789  0.0  0.07807  0.000572  1.056435  0.0  0.073604  0.000123  0.089605  0.075935  0.000346  1.059143  0.0
H  H17  1  0.65897751  0.75380458  0.36772211  1  0.069717  0.000429  0.974672  0.0  0.077067  0.000479  1.057783  0.0  0.078124  0.000573  1.056425  0.0  0.073564  0.000123  0.089645  0.07599  0.000347  1.05914  0.0
H  H18  1  0.15895820  0.74619065  0.63227860  1  0.069738  0.000429  0.9746  0.0  0.077036  0.000478  1.057755  0.0  0.078094  0.000572  1.056397  0.0  0.073709  0.000122  0.089624  0.075964  0.000346  1.059101  0.0
H  H19  1  0.34104110  0.25381332  0.13228070  1  0.06972  0.000428  0.974594  0.0  0.077027  0.000479  1.057785  0.0  0.078087  0.000572  1.056422  0.0  0.073676  0.000123  0.089617  0.075955  0.000346  1.059133  0.0
H  H20  1  0.94357920  0.25195454  0.75501825  1  0.081796  0.000132  0.935164  0.0  0.102787  1e-06  0.992017  0.0  0.103777  4e-05  0.992125  0.0  0.046425  -5e-05  0.09528  0.101932  -5.2e-05  0.992179  0.0
H  H21  1  0.55643014  0.74804585  0.25501614  1  0.081813  0.00013  0.935152  0.0  0.102768  1e-06  0.992046  0.0  0.103756  4e-05  0.992155  0.0  0.046001  -5e-05  0.095274  0.101917  -5.2e-05  0.992205  0.0
H  H22  1  0.05641084  0.75195474  0.74498456  1  0.081754  0.000132  0.935115  0.0  0.102742  1e-06  0.991962  0.0  0.103732  4e-05  0.992069  0.0  0.046347  -5e-05  0.095252  0.101885  -5.2e-05  0.992129  0.0
H  H23  1  0.44357989  0.24804744  0.24498456  1  0.081754  0.000128  0.935154  0.0  0.102759  1e-06  0.991996  0.0  0.10375  4e-05  0.992099  0.0  0.04613  -5e-05  0.095262  0.101893  -5.2e-05  0.992178  0.0
H  H24  1  0.60468983  0.17510262  0.74773333  1  0.068788  -0.000289  0.967256  0.0  0.084788  -0.000215  1.033577  0.0  0.085358  -0.000149  1.03444  0.0  0.014653  -0.000461  0.090758  0.084314  -0.000272  1.033074  0.0
H  H25  1  0.89532237  0.82489599  0.24773474  1  0.068796  -0.000289  0.967162  0.0  0.084746  -0.000215  1.033536  0.0  0.085313  -0.000149  1.034406  0.0  0.014648  -0.000461  0.090736  0.084271  -0.000271  1.033036  0.0
H  H26  1  0.39531021  0.67510460  0.75226386  1  0.068839  -0.000284  0.967196  0.0  0.084826  -0.000215  1.033534  0.0  0.085396  -0.000149  1.034401  0.0  0.014678  -0.000461  0.090751  0.08435  -0.000271  1.033034  0.0
H  H27  1  0.10468624  0.32490115  0.25226386  1  0.0688  -0.000284  0.967201  0.0  0.084773  -0.000215  1.033532  0.0  0.085337  -0.000149  1.034407  0.0  0.01457  -0.000461  0.090779  0.084298  -0.000271  1.033031  0.0
H  H28  1  0.63943331  0.30657711  0.68130526  1  0.092845  -0.000454  0.934944  0.0  0.107968  -0.00029  0.997555  0.0  0.109579  -0.000175  0.997096  0.0  0.070736  -0.000727  0.097012  0.106732  -0.0004  0.998064  0.0
H  H29  1  0.86057460  0.69342418  0.18130246  1  0.092861  -0.000455  0.934999  0.0  0.107922  -0.00029  0.997675  0.0  0.10957  -0.000175  0.997169  0.0  0.070682  -0.000726  0.097007  0.106689  -0.0004  0.998176  0.0
H  H30  1  0.36056672  0.80657909  0.81869193  1  0.092828  -0.000451  0.935075  0.0  0.107838  -0.000291  0.997841  0.0  0.109507  -0.000175  0.99731  0.0  0.070417  -0.000728  0.096971  0.106606  -0.000401  0.99834  0.0
H  H31  1  0.13943115  0.19342667  0.31869614  1  0.092806  -0.000451  0.934976  0.0  0.107881  -0.00029  0.997652  0.0  0.109522  -0.000175  0.997155  0.0  0.070424  -0.000727  0.096964  0.106645  -0.0004  0.99816  0.0
H  H32  1  0.34575748  0.33254191  0.76314175  1  0.082557  0.000209  0.926681  0.0  0.096113  -3e-05  0.983114  0.0  0.097416  0.000101  0.983487  0.0  0.054621  -0.000313  0.107362  0.095225  -0.000188  0.982892  0.0
H  H33  1  0.15424753  0.66744954  0.26314316  1  0.082514  0.000208  0.926608  0.0  0.0961  -3e-05  0.983062  0.0  0.097412  0.000102  0.983431  0.0  0.054598  -0.000312  0.107362  0.095212  -0.000187  0.982845  0.0
H  H34  1  0.65424112  0.83254658  0.73685263  1  0.082592  0.000207  0.92666  0.0  0.096173  -3e-05  0.983121  0.0  0.097481  0.000102  0.98349  0.0  0.054692  -0.000314  0.107383  0.095285  -0.000188  0.982901  0.0
H  H35  1  0.84575679  0.16745650  0.23685614  1  0.082557  0.000204  0.926673  0.0  0.096112  -3e-05  0.983115  0.0  0.097416  0.000102  0.983487  0.0  0.054649  -0.000313  0.107375  0.095224  -0.000188  0.982892  0.0
H  H36  1  0.53399983  0.50861371  0.75029754  1  0.090381  -0.006023  0.9073  -0.008  0.104973  -0.003461  0.96764  -0.004  0.104412  -0.002241  0.968428  -0.003  0.061614  -0.00852  0.113001  0.105048  -0.004332  0.967342  -0.005
H  H37  1  0.96599808  0.49138132  0.25029474  1  0.090416  -0.006018  0.907329  -0.008  0.105017  -0.00346  0.96764  -0.004  0.104482  -0.00224  0.968389  -0.003  0.061146  -0.008518  0.113035  0.105092  -0.00433  0.967343  -0.005
H  H38  1  0.46599164  0.00861530  0.74969895  1  0.090422  -0.006028  0.907209  -0.008  0.104976  -0.003464  0.96759  -0.004  0.104408  -0.002242  0.968384  -0.003  0.061692  -0.008526  0.112988  0.105051  -0.004335  0.967292  -0.005
H  H39  1  0.03400910  0.99138778  0.24970316  1  0.09049  -0.006014  0.907233  -0.008  0.105055  -0.003461  0.967577  -0.004  0.104482  -0.002241  0.968387  -0.003  0.061611  -0.00852  0.113021  0.10513  -0.004332  0.967282  -0.005
H  H40  1  0.41928789  0.51283105  0.86260211  1  0.091669  -0.000431  0.930206  -0.001  0.103884  -0.000243  0.994818  -0.001  0.104213  -0.00012  0.994685  0.0  0.091173  -0.001054  0.111781  0.103358  -0.000344  0.99523  -0.001
H  H41  1  0.08070999  0.48716040  0.36260000  1  0.091658  -0.000426  0.930285  -0.001  0.103861  -0.000243  0.994922  -0.001  0.104185  -0.00012  0.994792  0.0  0.091228  -0.001053  0.111769  0.103335  -0.000344  0.995334  -0.001
H  H42  1  0.58070215  0.01283533  0.63739298  1  0.09163  -0.000431  0.930321  -0.001  0.103839  -0.000243  0.994926  -0.001  0.104164  -0.00012  0.994794  0.0  0.091399  -0.001054  0.111759  0.103315  -0.000345  0.995333  -0.001
H  H43  1  0.91929862  0.98716775  0.13739579  1  0.091664  -0.000421  0.930275  -0.001  0.10389  -0.000243  0.99485  -0.001  0.104221  -0.00012  0.994715  0.0  0.091245  -0.001054  0.111777  0.103366  -0.000344  0.99526  -0.001
H  H44  1  0.63054777  0.65893349  0.89895228  1  0.143102  7.1e-05  0.962112  0.0  0.150787  8.2e-05  1.02587  0.0  0.153336  7.6e-05  1.025222  0.0  0.139207  -0.000161  0.121019  0.14878  7.6e-05  1.026546  0.0
H  H45  1  0.86944728  0.34106333  0.39894737  1  0.143102  7.3e-05  0.962236  0.0  0.150824  8.2e-05  1.025937  0.0  0.153373  7.7e-05  1.025293  0.0  0.139221  -0.000161  0.121035  0.148816  7.6e-05  1.026614  0.0
H  H46  1  0.36944369  0.15893329  0.60104772  1  0.143158  7e-05  0.962087  0.0  0.150809  8.2e-05  1.025866  0.0  0.153352  7.6e-05  1.025227  0.0  0.139338  -0.000161  0.121028  0.148804  7.6e-05  1.026544  0.0
H  H47  1  0.13055561  0.84106889  0.10105123  1  0.143125  7.7e-05  0.962187  0.0  0.150854  8.2e-05  1.025856  0.0  0.153404  7.7e-05  1.025209  0.0  0.139268  -0.000161  0.121064  0.148847  7.6e-05  1.02653  0.0
H  H48  1  0.80151481  0.64873299  0.80601754  1  0.132042  -0.002604  0.930348  -0.003  0.142076  -0.00163  0.993429  -0.002  0.144657  -0.001063  0.992009  -0.001  0.07402  -0.003953  0.115654  0.139894  -0.002039  0.994849  -0.002
H  H49  1  0.69847452  0.35126472  0.30601544  1  0.132055  -0.002604  0.930314  -0.003  0.142052  -0.00163  0.993432  -0.002  0.144648  -0.001063  0.991996  -0.001  0.074095  -0.003952  0.115614  0.139871  -0.002039  0.994851  -0.002
H  H50  1  0.19847808  0.14873459  0.69398246  1  0.131983  -0.002605  0.93039  -0.003  0.141998  -0.00163  0.99348  -0.002  0.144608  -0.001063  0.992023  -0.001  0.074022  -0.003954  0.115623  0.13982  -0.00204  0.994901  -0.002
H  H51  1  0.30152551  0.85126849  0.19398456  1  0.132023  -0.002601  0.930402  -0.003  0.142035  -0.00163  0.993485  -0.002  0.144626  -0.001063  0.992055  -0.001  0.074125  -0.003952  0.115627  0.139853  -0.002039  0.994905  -0.002
H  H52  1  0.33671049  0.45498625  0.18386456  1  0.068209  -0.000146  0.954417  0.0  0.0908  -0.000144  1.015455  0.0  0.090912  -0.000106  1.016318  0.0  -0.003729  -0.000289  0.093152  0.090693  -0.000178  1.014871  0.0
H  H53  1  0.16329596  0.54501146  0.68386456  1  0.068205  -0.000146  0.954452  0.0  0.090815  -0.000144  1.015452  0.0  0.090927  -0.000106  1.016314  0.0  -0.003709  -0.000289  0.093166  0.09071  -0.000178  1.014862  0.0
H  H54  1  0.66328812  0.95497929  0.31614596  1  0.068193  -0.000146  0.954471  0.0  0.09079  -0.000144  1.015483  0.0  0.090901  -0.000106  1.016346  0.0  -0.003662  -0.000289  0.093099  0.090684  -0.000178  1.014895  0.0
H  H55  1  0.83671837  0.04501931  0.81614105  1  0.06819  -0.000148  0.954487  0.0  0.090788  -0.000144  1.015518  0.0  0.0909  -0.000106  1.016377  0.0  -0.003779  -0.000289  0.093142  0.090681  -0.000178  1.014938  0.0
H  H56  1  0.24928955  0.43706006  0.06653825  1  0.082258  0.000102  0.945675  0.0  0.100559  9.3e-05  1.006119  0.0  0.101737  7.8e-05  1.005797  0.0  0.035533  5.9e-05  0.090901  0.099601  8.8e-05  1.006521  0.0
H  H57  1  0.25071261  0.56293675  0.56653825  1  0.082275  0.000102  0.945631  0.0  0.100543  9.2e-05  1.006107  0.0  0.101721  7.8e-05  1.005786  0.0  0.035631  5.9e-05  0.090907  0.099588  8.8e-05  1.006505  0.0
H  H58  1  0.75069763  0.93705400  0.43347368  1  0.082189  9.9e-05  0.945643  0.0  0.100524  9.2e-05  1.00606  0.0  0.101705  7.8e-05  1.005734  0.0  0.035462  5.9e-05  0.090881  0.099568  8.8e-05  1.00646  0.0
H  H59  1  0.74929886  0.06294281  0.93346667  1  0.082216  9.8e-05  0.945712  0.0  0.100533  9.2e-05  1.006145  0.0  0.101712  7.8e-05  1.005822  0.0  0.03551  6e-05  0.090867  0.099577  8.8e-05  1.006547  0.0
H  H60  1  0.22531330  0.57683156  0.12409965  1  0.065569  -0.000265  0.961751  0.0  0.086206  -0.00029  1.024496  0.0  0.08774  -0.000199  1.022773  0.0  0.045411  -0.000511  0.08993  0.085036  -0.000381  1.025918  0.0
H  H61  1  0.27468600  0.42316526  0.62409895  1  0.065564  -0.000268  0.961691  0.0  0.086185  -0.00029  1.024461  0.0  0.087718  -0.000199  1.022739  0.0  0.045365  -0.000511  0.089931  0.085012  -0.000381  1.025888  0.0
H  H62  1  0.77469102  0.07682421  0.37590807  1  0.065581  -0.000265  0.961746  0.0  0.086171  -0.00029  1.024533  0.0  0.087703  -0.000199  1.022816  0.0  0.045525  -0.000511  0.089947  0.085001  -0.000381  1.025958  0.0
H  H63  1  0.72531403  0.92317350  0.87590386  1  0.065555  -0.000268  0.961706  0.0  0.086172  -0.00029  1.024474  0.0  0.087704  -0.000199  1.022756  0.0  0.045512  -0.000511  0.089942  0.085016  -0.000381  1.02588  0.0
H  H64  1  0.24428456  0.68043776  0.94548561  1  0.442656  2.2e-05  0.861939  0.0  0.405906  -1.3e-05  0.934466  0.0  0.417778  -3e-06  0.917544  0.0  0.657834  -2.7e-05  0.307513  0.397551  -2.3e-05  0.946353  0.0
H  H65  1  0.25571189  0.31956353  0.44548632  1  0.442624  2.2e-05  0.861987  0.0  0.405878  -1.3e-05  0.934507  0.0  0.417752  -3e-06  0.917585  0.0  0.657764  -2.7e-05  0.307508  0.39752  -2.3e-05  0.946398  0.0
H  H66  1  0.75570976  0.18043756  0.55451579  1  0.442591  2.1e-05  0.862037  0.0  0.405836  -1.3e-05  0.934578  0.0  0.417708  -3e-06  0.917656  0.0  0.65781  -2.7e-05  0.307494  0.397477  -2.3e-05  0.946469  0.0
H  H67  1  0.74428958  0.81956194  0.05451439  1  0.442615  2.2e-05  0.862  0.0  0.405863  -1.3e-05  0.934528  0.0  0.417734  -3e-06  0.917608  0.0  0.65781  -2.7e-05  0.307501  0.397509  -2.3e-05  0.946414  0.0
H  H68  1  0.48673600  0.61261330  0.04999088  1  0.365113  -1.9e-05  0.927243  0.0  0.344871  -2.6e-05  0.991962  0.0  0.355166  -2e-06  0.980886  0.0  0.645426  -6.5e-05  0.292202  0.337777  -5.6e-05  0.999489  0.0
H  H69  1  0.01326045  0.38738710  0.54999088  1  0.365094  -1.9e-05  0.927293  0.0  0.344814  -2.6e-05  0.992062  0.0  0.355107  -2e-06  0.980994  0.0  0.645509  -6.5e-05  0.292169  0.33772  -5.6e-05  0.999586  0.0
H  H70  1  0.51326118  0.11261310  0.45001263  1  0.365135  -1.8e-05  0.927197  0.0  0.344846  -2.6e-05  0.99199  0.0  0.355138  -2e-06  0.980925  0.0  0.64537  -6.5e-05  0.292203  0.33775  -5.6e-05  0.999518  0.0
H  H71  1  0.98673816  0.88738729  0.95001193  1  0.365159  -1.9e-05  0.927184  0.0  0.344874  -2.6e-05  0.991966  0.0  0.355165  -2e-06  0.980899  0.0  0.645391  -6.5e-05  0.292185  0.337781  -5.6e-05  0.999491  0.0
C  C72  1  0.86951729  0.42306512  0.81072702  1  -0.030115  0.002952  3.606336  0.003  -0.083351  -1.7e-05  3.872171  0.001  -0.078713  0.00106  3.885393  0.001  0.210165  -0.001548  -0.076114  -0.086087  -0.000984  3.86339  0.0
C  C73  1  0.63048348  0.57693169  0.31072140  1  -0.030256  0.002959  3.606439  0.003  -0.083417  -1.8e-05  3.872202  0.001  -0.078793  0.001061  3.88544  0.001  0.210585  -0.001547  -0.076168  -0.086154  -0.000984  3.863426  0.0
C  C74  1  0.13047274  0.92306800  0.68927509  1  -0.030147  0.002938  3.606353  0.003  -0.083439  -1.9e-05  3.872208  0.001  -0.07876  0.00106  3.885382  0.001  0.20988  -0.00155  -0.076112  -0.08617  -0.000985  3.863413  0.0
C  C75  1  0.36952227  0.07693954  0.18927719  1  -0.030104  0.002956  3.606316  0.003  -0.083325  -1.8e-05  3.87214  0.001  -0.078691  0.001061  3.885366  0.001  0.210464  -0.001548  -0.076109  -0.086055  -0.000984  3.863349  0.0
C  C76  1  0.83074324  0.29062951  0.79912912  1  -0.132999  9.9e-05  3.707922  -0.001  -0.179655  0.000187  3.976049  0.0  -0.180586  0.000392  3.988893  0.0  -0.039672  -0.000522  -0.172056  -0.178812  -3.5e-05  3.967257  0.0
C  C77  1  0.66926325  0.70936820  0.29912772  1  -0.133012  0.000105  3.708026  -0.001  -0.179655  0.000187  3.976081  0.0  -0.180576  0.000392  3.988927  0.0  -0.039298  -0.000521  -0.172079  -0.178809  -3.4e-05  3.967281  0.0
C  C78  1  0.16925109  0.79063239  0.70087298  1  -0.133015  0.000107  3.707942  -0.001  -0.179547  0.000187  3.975911  0.0  -0.18049  0.000391  3.988761  0.0  -0.039688  -0.000522  -0.172051  -0.178697  -3.5e-05  3.967102  0.0
C  C79  1  0.33074250  0.20937158  0.20087368  1  -0.132938  0.000112  3.707932  -0.001  -0.17958  0.000187  3.976005  0.0  -0.180505  0.000391  3.988853  0.0  -0.039613  -0.000521  -0.172028  -0.178719  -3.4e-05  3.967184  0.0
C  C80  1  0.63685152  0.27062639  0.75314947  1  -0.116721  0.000627  3.642954  0.001  -0.15857  0.000105  3.896273  0.0  -0.158873  0.000204  3.9097  0.0  -0.021767  -0.000146  -0.16546  -0.158109  -1.5e-05  3.886863  0.0
C  C81  1  0.86315782  0.72937132  0.25314667  1  -0.116837  0.000631  3.642897  0.001  -0.158584  0.000105  3.896237  0.0  -0.158899  0.000204  3.909649  0.0  -0.021551  -0.000146  -0.165474  -0.158122  -1.5e-05  3.886833  0.0
C  C82  1  0.36314709  0.77062837  0.74684632  1  -0.116806  0.000599  3.64316  0.001  -0.158571  0.000105  3.896444  0.0  -0.158908  0.000204  3.909867  0.0  -0.021433  -0.000147  -0.165408  -0.158107  -1.6e-05  3.887036  0.0
C  C83  1  0.13684650  0.22937649  0.24685123  1  -0.116739  0.000589  3.642953  0.001  -0.158527  0.000106  3.896256  0.0  -0.158848  0.000204  3.909678  0.0  -0.021331  -0.000146  -0.165454  -0.158067  -1.5e-05  3.88685  0.0
C  C84  1  0.47548584  0.33511148  0.80649263  1  -0.139468  -0.007716  3.666583  -0.009  -0.145086  -0.00467  3.904175  -0.006  -0.15312  -0.002957  3.918812  -0.004  -0.003959  -0.009022  -0.088771  -0.139535  -0.006107  3.893734  -0.007
C  C85  1  0.02451490  0.66488176  0.30649193  1  -0.139198  -0.007705  3.666483  -0.009  -0.144974  -0.004667  3.904261  -0.006  -0.153041  -0.002956  3.918914  -0.004  -0.004177  -0.009017  -0.088713  -0.139427  -0.006102  3.893824  -0.007
C  C86  1  0.52451277  0.83511346  0.69350386  1  -0.139478  -0.007722  3.666311  -0.009  -0.145231  -0.004677  3.904207  -0.006  -0.153282  -0.002962  3.918858  -0.004  -0.00408  -0.009033  -0.088743  -0.139683  -0.006115  3.893764  -0.007
C  C87  1  0.97548800  0.16488961  0.19350737  1  -0.139411  -0.007686  3.666563  -0.009  -0.145026  -0.004672  3.904193  -0.006  -0.153056  -0.002959  3.918831  -0.004  -0.003919  -0.009022  -0.088765  -0.139475  -0.006107  3.893754  -0.007
C  C88  1  0.52726030  0.46624532  0.82034596  1  -0.032551  0.003538  3.59761  0.004  -0.091166  2.3e-05  3.862294  0.001  -0.085822  0.001283  3.87618  0.002  0.229548  -0.001682  -0.068128  -0.09426  -0.001119  3.852948  0.0
C  C89  1  0.97273761  0.53374792  0.32034386  1  -0.032605  0.003519  3.597771  0.004  -0.091199  2.3e-05  3.862496  0.001  -0.085848  0.001282  3.876362  0.002  0.230063  -0.001679  -0.068157  -0.094288  -0.001119  3.853137  0.0
C  C90  1  0.47273402  0.96624641  0.67964982  1  -0.032632  0.003539  3.597892  0.004  -0.09117  2.3e-05  3.862625  0.001  -0.085815  0.001282  3.876515  0.002  0.229352  -0.001684  -0.068155  -0.094266  -0.00112  3.853277  0.0
C  C91  1  0.02726529  0.03375487  0.17965474  1  -0.032728  0.003468  3.597779  0.004  -0.091294  2.3e-05  3.862401  0.001  -0.085956  0.001282  3.876305  0.002  0.229545  -0.001682  -0.068142  -0.094386  -0.00112  3.853044  0.0
C  C92  1  0.42537303  0.26897771  0.89651509  1  0.668135  0.012431  3.7817  0.012  0.634829  0.002392  4.077237  0.003  0.675054  0.002822  4.070023  0.003  1.515711  0.001705  0.221205  0.607407  0.001776  4.080799  0.003
C  C93  1  0.07463199  0.73102089  0.39650807  1  0.6679  0.012424  3.782076  0.012  0.634715  0.00239  4.077514  0.003  0.674952  0.00282  4.07029  0.003  1.515575  0.001705  0.22118  0.607296  0.001775  4.081069  0.003
C  C94  1  0.57462415  0.76897881  0.60347228  1  0.668626  0.012432  3.781433  0.012  0.635183  0.002392  4.077247  0.003  0.675407  0.002825  4.070026  0.003  1.515889  0.001703  0.221207  0.607769  0.001776  4.080804  0.003
C  C95  1  0.92537519  0.23102069  0.10348281  1  0.668301  0.012413  3.781353  0.012  0.634892  0.002395  4.077062  0.003  0.675117  0.002823  4.069847  0.003  1.515699  0.001705  0.221182  0.60747  0.001776  4.080629  0.003
C  C96  1  0.75900166  0.61163339  0.87462456  1  -0.377859  0.004404  3.630873  0.005  -0.410658  0.001299  3.888071  0.002  -0.415612  0.001997  3.898391  0.002  -0.291047  -9.3e-05  -0.083212  -0.406837  0.000583  3.881596  0.002
C  C97  1  0.74099054  0.38836343  0.37462246  1  -0.37801  0.004402  3.631091  0.005  -0.410747  0.001298  3.888199  0.002  -0.41572  0.001995  3.898525  0.002  -0.291131  -9.3e-05  -0.083228  -0.406925  0.000582  3.881727  0.002
C  C98  1  0.24098409  0.11163498  0.62537333  1  -0.377794  0.00441  3.630785  0.005  -0.410589  0.0013  3.888123  0.002  -0.415553  0.001997  3.898418  0.002  -0.290955  -9.1e-05  -0.083215  -0.406783  0.000583  3.88166  0.002
C  C99  1  0.25901093  0.88836720  0.12537614  1  -0.377875  0.004366  3.631055  0.005  -0.410657  0.0013  3.888272  0.002  -0.415626  0.001997  3.898601  0.002  -0.291134  -9.3e-05  -0.083215  -0.406834  0.000583  3.88179  0.002
C  C100  1  0.31929517  0.49896396  0.11549193  1  -0.019396  -0.000181  3.663292  0.0  -0.107566  -0.00034  3.926967  0.0  -0.100912  -0.000203  3.929475  0.0  0.446857  -0.000503  -0.159811  -0.111966  -0.000468  3.925009  0.0
C  C101  1  0.18070699  0.50103375  0.61549263  1  -0.019368  -0.000178  3.663292  0.0  -0.107499  -0.00034  3.926971  0.0  -0.100845  -0.000203  3.929478  0.0  0.447223  -0.000503  -0.159822  -0.111894  -0.000468  3.925011  0.0
C  C102  1  0.68070344  0.99895790  0.38451649  1  -0.019273  -0.000177  3.663099  0.0  -0.107398  -0.00034  3.926691  0.0  -0.100745  -0.000203  3.929202  0.0  0.446832  -0.000503  -0.159719  -0.111798  -0.000469  3.924726  0.0
C  C103  1  0.81929876  0.00104070  0.88451158  1  -0.019259  -0.000165  3.663229  0.0  -0.107424  -0.00034  3.926872  0.0  -0.10077  -0.000203  3.929378  0.0  0.446883  -0.000504  -0.159753  -0.111835  -0.000469  3.924902  0.0
N  N104  1  0.71551979  0.48244326  0.86636281  1  -0.149478  -0.105997  3.299137  -0.139  -0.089699  -0.064425  3.575703  -0.091  -0.122488  -0.048445  3.607742  -0.075  -0.982089  -0.1118  -0.343786  -0.06987  -0.072943  3.555406  -0.097
N  N105  1  0.78447669  0.51755087  0.36636070  1  -0.149432  -0.10597  3.299017  -0.139  -0.089678  -0.064413  3.575609  -0.091  -0.122465  -0.048438  3.607657  -0.075  -0.982116  -0.11178  -0.343775  -0.069854  -0.072929  3.555321  -0.097
N  N106  1  0.28447024  0.98244525  0.63363439  1  -0.149419  -0.106037  3.299187  -0.139  -0.089653  -0.06444  3.575812  -0.091  -0.122465  -0.048455  3.607858  -0.075  -0.982166  -0.111823  -0.343742  -0.069803  -0.072956  3.5555  -0.097
N  N107  1  0.21552620  0.01755693  0.13363719  1  -0.14956  -0.105982  3.299237  -0.139  -0.08985  -0.064422  3.575884  -0.091  -0.122628  -0.048445  3.607918  -0.075  -0.982082  -0.111795  -0.34382  -0.070011  -0.072939  3.555579  -0.097
O  O108  1  0.13873105  0.62934589  0.91448351  1  -0.755553  -0.00104  2.005977  -0.001  -0.684476  -0.001019  2.241113  -0.001  -0.706373  -0.000689  2.216635  -0.001  -1.432434  -0.002792  -0.389185  -0.669052  -0.001313  2.257838  -0.002
O  O109  1  0.36126682  0.37065182  0.41448491  1  -0.755506  -0.001039  2.006105  -0.001  -0.684413  -0.001019  2.241213  -0.001  -0.706314  -0.000689  2.216731  -0.001  -1.432374  -0.002791  -0.389168  -0.668995  -0.001313  2.257955  -0.002
O  O110  1  0.86126470  0.12934659  0.58551509  1  -0.75551  -0.00104  2.005975  -0.001  -0.684403  -0.00102  2.241053  -0.001  -0.706304  -0.000689  2.216573  -0.001  -1.432382  -0.002793  -0.389184  -0.668992  -0.001314  2.257812  -0.002
O  O111  1  0.63873464  0.87065380  0.08551509  1  -0.755548  -0.001039  2.005968  -0.001  -0.684424  -0.001019  2.24106  -0.001  -0.706321  -0.000689  2.216581  -0.001  -1.432421  -0.002792  -0.389184  -0.669013  -0.001313  2.257813  -0.002
O  O112  1  0.91457795  0.76023476  0.00785754  1  -0.846878  -0.004743  1.999075  -0.006  -0.758061  -0.003012  2.231012  -0.004  -0.78582  -0.001867  2.212636  -0.003  -1.463735  -0.007186  -0.359503  -0.738533  -0.004078  2.243367  -0.006
O  O113  1  0.58541853  0.23977100  0.50786316  1  -0.84691  -0.004744  1.999092  -0.006  -0.758121  -0.003012  2.231109  -0.004  -0.785845  -0.001867  2.212645  -0.003  -1.463945  -0.007187  -0.359532  -0.738558  -0.004078  2.243444  -0.006
O  O114  1  0.08540637  0.26024082  0.49214316  1  -0.84693  -0.004745  1.999296  -0.006  -0.758136  -0.003012  2.231241  -0.004  -0.785893  -0.001867  2.212842  -0.003  -1.463601  -0.007187  -0.359456  -0.738583  -0.004079  2.243579  -0.006
O  O115  1  0.41458436  0.73976136  0.99214246  1  -0.846923  -0.004744  1.999176  -0.006  -0.75811  -0.003012  2.231102  -0.004  -0.785872  -0.001867  2.212723  -0.003  -1.463371  -0.007186  -0.359507  -0.738572  -0.004079  2.243452  -0.006
O  O116  1  0.90835421  0.53145104  0.03365544  1  -0.808364  -0.057713  2.007941  -0.078  -0.759024  -0.040281  2.307488  -0.058  -0.79629  -0.03128  2.288351  -0.049  -1.386454  -0.074157  -0.379825  -0.734177  -0.0453  2.321146  -0.061
O  O117  1  0.59165084  0.46855204  0.53365474  1  -0.808264  -0.057707  2.007818  -0.078  -0.758955  -0.040277  2.307373  -0.058  -0.796227  -0.031276  2.288245  -0.049  -1.386345  -0.074144  -0.379768  -0.734117  -0.045294  2.321051  -0.061
O  O118  1  0.09163582  0.03145621  0.46634175  1  -0.808351  -0.057734  2.007811  -0.078  -0.759066  -0.040292  2.307341  -0.058  -0.796337  -0.031287  2.28821  -0.049  -1.386688  -0.074181  -0.379895  -0.734198  -0.045311  2.321008  -0.061
O  O119  1  0.40835777  0.96854597  0.96634175  1  -0.80828  -0.057725  2.007719  -0.078  -0.758999  -0.040286  2.307288  -0.058  -0.796261  -0.031283  2.288152  -0.049  -1.386684  -0.074171  -0.379871  -0.73414  -0.045305  2.320945  -0.061
O  O120  1  0.51416274  0.28920078  0.97340561  1  -0.594991  -0.08068  2.066558  -0.112  -0.576422  -0.05134  2.357751  -0.078  -0.620076  -0.036355  2.346646  -0.061  -1.121711  -0.097757  -0.314274  -0.546575  -0.062176  2.365394  -0.089
O  O121  1  0.98583375  0.71079336  0.47340632  1  -0.595044  -0.080697  2.066451  -0.112  -0.576505  -0.051348  2.357579  -0.078  -0.620163  -0.036361  2.346466  -0.061  -1.121522  -0.097766  -0.314392  -0.54666  -0.062182  2.36522  -0.089
O  O122  1  0.48584444  0.78919203  0.52660000  1  -0.595137  -0.08064  2.066543  -0.112  -0.576533  -0.051322  2.357835  -0.078  -0.620178  -0.03634  2.346718  -0.06  -1.121927  -0.097721  -0.314329  -0.546678  -0.062155  2.365497  -0.089
O  O123  1  0.01417058  0.21080657  0.02659649  1  -0.595009  -0.080666  2.066335  -0.112  -0.576396  -0.051335  2.357537  -0.078  -0.620041  -0.036351  2.346427  -0.06  -1.121767  -0.097745  -0.314226  -0.546539  -0.06217  2.365178  -0.089
O  O124  1  0.29355438  0.19099479  0.88939860  1  -0.55808  -0.068534  2.00398  -0.093  -0.527115  -0.044894  2.269972  -0.066  -0.566151  -0.033061  2.259154  -0.053  -1.094819  -0.083312  -0.312726  -0.500178  -0.053359  2.277006  -0.074
O  O125  1  0.20644492  0.80899935  0.38939649  1  -0.557902  -0.068493  2.004279  -0.093  -0.526938  -0.044874  2.270197  -0.066  -0.565971  -0.033047  2.25937  -0.053  -1.094836  -0.083272  -0.31261  -0.500001  -0.053333  2.27724  -0.074
O  O126  1  0.70645565  0.69100213  0.61059860  1  -0.558366  -0.068572  2.003918  -0.093  -0.527273  -0.044914  2.269904  -0.066  -0.566321  -0.033074  2.259089  -0.053  -1.094681  -0.083353  -0.31268  -0.500347  -0.053385  2.27694  -0.075
O  O127  1  0.79354654  0.30900362  0.11059930  1  -0.558188  -0.06854  2.003828  -0.093  -0.527176  -0.044899  2.26987  -0.066  -0.56622  -0.033065  2.259058  -0.053  -1.094778  -0.083324  -0.312768  -0.50025  -0.053367  2.276908  -0.074
O  O128  1  0.50397272  0.53476358  0.08242246  1  -0.543714  0.000351  2.148963  -0.001  -0.492315  0.00037  2.400508  -0.001  -0.511458  0.000954  2.386542  0.0  -1.168485  -0.000924  -0.424917  -0.478544  -0.000349  2.410085  -0.002
O  O129  1  0.99602662  0.46523770  0.58242386  1  -0.543741  0.00035  2.149011  -0.001  -0.492307  0.000368  2.400577  -0.001  -0.51145  0.000953  2.386611  0.0  -1.168977  -0.000925  -0.424896  -0.478541  -0.000349  2.41016  -0.002
O  O130  1  0.49602303  0.03476428  0.41758175  1  -0.543812  0.00035  2.148813  -0.001  -0.492388  0.000371  2.400375  -0.001  -0.511531  0.000955  2.386409  0.0  -1.168538  -0.000921  -0.424947  -0.478603  -0.000347  2.409959  -0.002
O  O131  1  0.00397771  0.96523700  0.91758175  1  -0.543811  0.000349  2.148789  -0.001  -0.492383  0.00037  2.400366  -0.001  -0.511522  0.000954  2.386396  0.0  -1.16855  -0.000924  -0.424919  -0.478603  -0.000349  2.409945  -0.002
