# generated using pymatgen
data_CdH24C20(SN4)2
_symmetry_space_group_name_H-M   'P 1'
_cell_length_a   9.10244212
_cell_length_b   10.82228849
_cell_length_c   12.33050195
_cell_angle_alpha   89.99987808
_cell_angle_beta   90.00002646
_cell_angle_gamma   108.61164981
_symmetry_Int_Tables_number   1
_chemical_formula_structural   CdH24C20(SN4)2
_chemical_formula_sum   'Cd2 H48 C40 S4 N16'
_cell_volume   1151.14568684
_cell_formula_units_Z   2
loop_
 _symmetry_equiv_pos_site_id
 _symmetry_equiv_pos_as_xyz
  1  'x, y, z'
loop_
 _atom_site_type_symbol
 _atom_site_label
 _atom_site_symmetry_multiplicity
 _atom_site_fract_x
 _atom_site_fract_y
 _atom_site_fract_z
 _atom_site_occupancy
 _atom_site_hle17_bader_spin_density
 _atom_site_hle17_ddec_charge
 _atom_site_hle17_ddec_spin_density
 _atom_site_hle17_ddec_sum_bond_order
 _atom_site_hle17_magmom
 _atom_site_hse06_10hf_bader_spin_density
 _atom_site_hse06_10hf_ddec_charge
 _atom_site_hse06_10hf_ddec_spin_density
 _atom_site_hse06_10hf_ddec_sum_bond_order
 _atom_site_hse06_10hf_magmom
 _atom_site_hse06_bader_spin_density
 _atom_site_hse06_ddec_charge
 _atom_site_hse06_ddec_spin_density
 _atom_site_hse06_ddec_sum_bond_order
 _atom_site_hse06_magmom
 _atom_site_pbe_bader_spin_density
 _atom_site_pbe_cm5_charge
 _atom_site_pbe_ddec_charge
 _atom_site_pbe_ddec_spin_density
 _atom_site_pbe_ddec_sum_bond_order
 _atom_site_pbe_magmom
Cd  Cd0  1  0.81668351  0.74964158  0.67782099  1  0  1.024928  0  1.826266  0  0  0.829812  0  2.277284  0  0  0.877145  0  2.237958  0  0  0.779988  0.796327  0  2.303856  0
Cd  Cd1  1  0.18331798  0.25035960  0.17782062  1  0  1.024959  0  1.826231  0  0  0.829819  0  2.277271  0  0  0.877146  0  2.237948  0  0  0.780004  0.796329  0  2.303846  0
H  H2  1  0.62962658  0.55671117  0.87562412  1  0  0.072142  0  0.975157  0  0  0.079227  0  1.046706  0  0  0.080693  0  1.046255  0  0  0.108474  0.077928  0  1.047269  0
H  H3  1  0.37037302  0.44329050  0.37562426  1  0  0.072193  0  0.975176  0  0  0.079278  0  1.04672  0  0  0.080745  0  1.046268  0  0  0.108505  0.077979  0  1.047282  0
H  H4  1  0.13585972  0.43958431  0.82243815  1  0  0.090066  0  0.977984  0  0  0.099213  0  1.042737  0  0  0.101699  0  1.041508  0  0  0.096589  0.096691  0  1.04517  0
H  H5  1  0.86413843  0.56041653  0.32243824  1  0  0.090029  0  0.977981  0  0  0.099186  0  1.042736  0  0  0.101672  0  1.041507  0  0  0.096577  0.096665  0  1.045169  0
H  H6  1  0.18851491  0.58758959  0.66116478  1  0  0.101714  0  0.973391  0  0  0.108046  0  1.03936  0  0  0.110927  0  1.039061  0  0  0.09834  0.106236  0  1.039542  0
H  H7  1  0.81148472  0.41240969  0.16116594  1  0  0.101638  0  0.973419  0  0  0.107985  0  1.039373  0  0  0.110866  0  1.03907  0  0  0.098341  0.106175  0  1.039555  0
H  H8  1  0.46362156  0.71932430  0.61872037  1  0  0.07237  0  0.97518  0  0  0.077493  0  1.048481  0  0  0.079938  0  1.046359  0  0  0.109217  0.076289  0  1.048788  0
H  H9  1  0.53637704  0.28067803  0.11872168  1  0  0.072379  0  0.975221  0  0  0.077485  0  1.048533  0  0  0.079928  0  1.046414  0  0  0.109217  0.076281  0  1.048838  0
H  H10  1  0.31662108  0.29557199  0.93024496  1  0  0.066794  0  0.948055  0  0  0.08306  0  1.013045  0  0  0.08255  0  1.014376  0  0  0.102133  0.083148  0  1.012471  0
H  H11  1  0.68337998  0.70443051  0.43024391  1  0  0.066767  0  0.948088  0  0  0.083025  0  1.013083  0  0  0.08252  0  1.01441  0  0  0.102104  0.083113  0  1.012507  0
H  H12  1  0.46675262  0.41127916  0.99999629  1  0  0.058259  0  0.947575  0  0  0.072776  0  1.018676  0  0  0.072998  0  1.018696  0  0  0.102576  0.07377  0  1.016122  0
H  H13  1  0.53324732  0.58872318  0.49999703  1  0  0.058233  0  0.94763  0  0  0.072775  0  1.018695  0  0  0.072996  0  1.01872  0  0  0.102572  0.073768  0  1.01614  0
H  H14  1  0.13825249  0.40358477  0.00401084  1  0  0.268784  0  0.945296  0  0  0.255302  0  1.012764  0  0  0.261002  0  1.009667  0  0  0.268978  0.252501  0  1.013108  0
H  H15  1  0.86174757  0.59641587  0.50400989  1  0  0.268769  0  0.945301  0  0  0.255275  0  1.012774  0  0  0.260976  0  1.009674  0  0  0.268975  0.252474  0  1.013116  0
H  H16  1  0.28045614  0.50208056  0.07689507  1  0  0.27679  0  0.964276  0  0  0.257649  0  1.037524  0  0  0.265386  0  1.031989  0  0  0.268108  0.252001  0  1.041809  0
H  H17  1  0.71954209  0.49792090  0.57689507  1  0  0.276805  0  0.964284  0  0  0.257658  0  1.037543  0  0  0.265395  0  1.032005  0  0  0.268111  0.252009  0  1.041828  0
H  H18  1  0.97531460  0.89720738  0.45333043  1  0  0.077797  0  0.961735  0  0  0.082784  0  1.034453  0  0  0.085102  0  1.032636  0  0  0.111549  0.081238  0  1.035883  0
H  H19  1  0.02468604  0.10279116  0.95333093  1  0  0.077795  0  0.961731  0  0  0.082798  0  1.034437  0  0  0.085115  0  1.032619  0  0  0.111528  0.081253  0  1.035864  0
H  H20  1  0.47330401  0.02979047  0.48371191  1  0  0.085853  0  0.988411  0  0  0.092405  0  1.059376  0  0  0.095008  0  1.05803  0  0  0.0929  0.090835  0  1.059797  0
H  H21  1  0.52669404  0.97020703  0.98371096  1  0  0.085867  0  0.988399  0  0  0.092401  0  1.059391  0  0  0.095009  0  1.058038  0  0  0.092877  0.090833  0  1.05981  0
H  H22  1  0.44057579  0.91769973  0.66363887  1  0  0.098493  0  0.956505  0  0  0.107727  0  1.018962  0  0  0.110393  0  1.018657  0  0  0.105179  0.106052  0  1.019236  0
H  H23  1  0.55942460  0.08230150  0.16363813  1  0  0.098453  0  0.956496  0  0  0.107678  0  1.018971  0  0  0.110345  0  1.018666  0  0  0.105164  0.106003  0  1.019245  0
H  H24  1  0.17056029  0.80157902  0.73102954  1  0  0.074679  0  0.970556  0  0  0.079769  0  1.044271  0  0  0.082173  0  1.042199  0  0  0.104371  0.078078  0  1.045662  0
H  H25  1  0.82943936  0.19842302  0.23102624  1  0  0.074687  0  0.970505  0  0  0.079768  0  1.044233  0  0  0.082176  0  1.042155  0  0  0.10437  0.078075  0  1.045624  0
H  H26  1  0.35433278  0.12150575  0.34620564  1  0  0.060258  0  0.931334  0  0  0.075991  0  0.996574  0  0  0.076322  0  0.996457  0  0  0.100592  0.075817  0  0.996322  0
H  H27  1  0.64566936  0.87849402  0.84620572  1  0  0.06028  0  0.931355  0  0  0.075966  0  0.996614  0  0  0.076297  0  0.996495  0  0  0.100589  0.075793  0  0.99636  0
H  H28  1  0.25450374  0.97522467  0.27938435  1  0  0.06999  0  0.918098  0  0  0.091864  0  0.974121  0  0  0.091246  0  0.974886  0  0  0.108407  0.091768  0  0.974399  0
H  H29  1  0.74549842  0.02477527  0.77938687  1  0  0.070023  0  0.918113  0  0  0.091875  0  0.974128  0  0  0.091257  0  0.974893  0  0  0.108414  0.091778  0  0.974406  0
H  H30  1  0.08299744  0.13424143  0.38041506  1  0  0.273489  0  0.930111  0  0  0.260663  0  0.996289  0  0  0.265455  0  0.994843  0  0  0.277104  0.257641  0  0.996794  0
H  H31  1  0.91700355  0.86575533  0.88041525  1  0  0.273488  0  0.930133  0  0  0.260667  0  0.996303  0  0  0.265461  0  0.994854  0  0  0.277099  0.257646  0  0.996806  0
H  H32  1  0.02159796  0.01434575  0.29087947  1  0  0.274646  0  0.974015  0  0  0.249442  0  1.057475  0  0  0.257248  0  1.051917  0  0  0.270866  0.243936  0  1.06137  0
H  H33  1  0.97840235  0.98565222  0.79088108  1  0  0.274661  0  0.974023  0  0  0.249452  0  1.057486  0  0  0.257257  0  1.051927  0  0  0.270869  0.243948  0  1.061382  0
H  H34  1  0.68944040  0.90110363  0.32102027  1  0  0.062326  0  0.975877  0  0  0.067694  0  1.050619  0  0  0.069643  0  1.049353  0  0  0.099821  0.066189  0  1.051683  0
H  H35  1  0.31056546  0.09890009  0.82102493  1  0  0.062268  0  0.975936  0  0  0.067659  0  1.050659  0  0  0.069598  0  1.049401  0  0  0.099823  0.066163  0  1.051715  0
H  H36  1  0.53671582  0.63573510  0.05385862  1  0  0.089993  0  0.975699  0  0  0.101017  0  1.040079  0  0  0.103326  0  1.039179  0  0  0.101144  0.099181  0  1.041087  0
H  H37  1  0.46327942  0.36426155  0.55385716  1  0  0.09  0  0.975758  0  0  0.10105  0  1.040094  0  0  0.103364  0  1.039183  0  0  0.101155  0.099214  0  1.041103  0
H  H38  1  0.81880168  0.66351241  0.01620405  1  0  0.09426  0  0.979386  0  0  0.101637  0  1.046222  0  0  0.104026  0  1.046154  0  0  0.096608  0.09962  0  1.047114  0
H  H39  1  0.18119172  0.33648239  0.51620741  1  0  0.094309  0  0.979361  0  0  0.101674  0  1.046199  0  0  0.104064  0  1.046129  0  0  0.096633  0.099656  0  1.047093  0
H  H40  1  0.02006857  0.81050553  0.13523056  1  0  0.061556  0  0.974234  0  0  0.066958  0  1.045856  0  0  0.069427  0  1.044143  0  0  0.097654  0.064889  0  1.047685  0
H  H41  1  0.97992479  0.18948897  0.63524096  1  0  0.061559  0  0.974255  0  0  0.066978  0  1.045854  0  0  0.069436  0  1.04415  0  0  0.09764  0.064909  0  1.047681  0
H  H42  1  0.40176404  0.70550452  0.30496510  1  0  0.057073  0  0.952012  0  0  0.073789  0  1.020452  0  0  0.073333  0  1.021851  0  0  0.096844  0.074606  0  1.018379  0
H  H43  1  0.59823701  0.29449537  0.80496300  1  0  0.0571  0  0.95199  0  0  0.073813  0  1.020431  0  0  0.073357  0  1.02183  0  0  0.096861  0.074625  0  1.018356  0
H  H44  1  0.41983921  0.85075246  0.23505216  1  0  0.040532  0  0.931049  0  0  0.06006  0  0.994756  0  0  0.059973  0  0.99472  0  0  0.092694  0.059545  0  0.995665  0
H  H45  1  0.58016330  0.14924563  0.73505195  1  0  0.040515  0  0.931018  0  0  0.060036  0  0.994742  0  0  0.059952  0  0.994703  0  0  0.092685  0.059518  0  0.995647  0
H  H46  1  0.20506079  0.63906069  0.19061131  1  0  0.269184  0  0.927337  0  0  0.265578  0  0.979631  0  0  0.269755  0  0.977236  0  0  0.279485  0.262664  0  0.981586  0
H  H47  1  0.79493740  0.36094048  0.69060996  1  0  0.269204  0  0.927319  0  0  0.265599  0  0.979611  0  0  0.269775  0  0.977219  0  0  0.279504  0.262683  0  0.981567  0
H  H48  1  0.28962629  0.72968954  0.08730238  1  0  0.251423  0  0.982059  0  0  0.238902  0  1.05594  0  0  0.244125  0  1.052247  0  0  0.25415  0.235463  0  1.058054  0
H  H49  1  0.71037375  0.27031090  0.58730037  1  0  0.25141  0  0.982074  0  0  0.238887  0  1.055963  0  0  0.244109  0  1.052272  0  0  0.254128  0.235447  0  1.058077  0
C  C50  1  0.89733867  0.53085350  0.85238588  1  0  0.279032  0  4.079304  0  0  0.263509  0  4.380947  0  0  0.285645  0  4.393423  0  0  0.129132  0.247381  0  4.375312  0
C  C51  1  0.10265685  0.46914337  0.35238183  1  0  0.279125  0  4.079463  0  0  0.263599  0  4.381091  0  0  0.285733  0  4.393564  0  0  0.129165  0.247471  0  4.375461  0
C  C52  1  0.74619076  0.99211999  0.52446771  1  0  0.277511  0  4.057422  0  0  0.258864  0  4.363447  0  0  0.280521  0  4.376736  0  0  0.133062  0.243939  0  4.355254  0
C  C53  1  0.25381848  0.00788445  0.02446214  1  0  0.277527  0  4.05732  0  0  0.258883  0  4.363344  0  0  0.280541  0  4.376627  0  0  0.133083  0.243959  0  4.355153  0
C  C54  1  0.52814353  0.56277896  0.83153100  1  0  0.067732  0  3.698722  0  0  0.031539  0  3.946664  0  0  0.03737  0  3.965409  0  0  0.039757  0.028671  0  3.933066  0
C  C55  1  0.47185533  0.43722087  0.33153281  1  0  0.067664  0  3.698803  0  0  0.031439  0  3.946756  0  0  0.037269  0  3.965502  0  0  0.039725  0.028571  0  3.93316  0
C  C56  1  0.37914577  0.48782389  0.86344864  1  0  0.014578  0  3.733179  0  0  0.042105  0  3.970651  0  0  0.037342  0  3.995026  0  0  -0.008605  0.045294  0  3.95391  0
C  C57  1  0.62085421  0.51217879  0.36345036  1  0  0.014606  0  3.7332  0  0  0.042193  0  3.9706  0  0  0.037431  0  3.994976  0  0  -0.008541  0.045379  0  3.953861  0
C  C58  1  0.25442690  0.49725984  0.80139680  1  0  -0.041753  0  3.687485  0  0  -0.066383  0  3.925751  0  0  -0.064467  0  3.945868  0  0  -0.067472  -0.066949  0  3.912487  0
C  C59  1  0.74557235  0.50274104  0.30139858  1  0  -0.04166  0  3.687373  0  0  -0.066337  0  3.925671  0  0  -0.064421  0  3.945788  0  0  -0.067463  -0.066904  0  3.912411  0
C  C60  1  0.28279949  0.58012175  0.71222680  1  0  -0.112273  0  3.756753  0  0  -0.122048  0  4.006794  0  0  -0.128994  0  4.029726  0  0  -0.084592  -0.118014  0  3.991456  0
C  C61  1  0.71719941  0.41987839  0.21222953  1  0  -0.112267  0  3.756688  0  0  -0.122051  0  4.006755  0  0  -0.128994  0  4.029688  0  0  -0.08465  -0.118016  0  3.991418  0
C  C62  1  0.43536812  0.65209466  0.68722047  1  0  0.104394  0  3.727344  0  0  0.073045  0  3.979784  0  0  0.079172  0  3.998316  0  0  0.037944  0.069226  0  3.966912  0
C  C63  1  0.56462898  0.34790653  0.18722086  1  0  0.104342  0  3.727477  0  0  0.073017  0  3.979914  0  0  0.079143  0  3.998444  0  0  0.037948  0.069197  0  3.967042  0
C  C64  1  0.35520352  0.39696320  0.95924207  1  0  0.038308  0  3.701954  0  0  -0.025269  0  3.959721  0  0  -0.019761  0  3.971783  0  0  -0.073393  -0.028867  0  3.950758  0
C  C65  1  0.64479753  0.60303923  0.45924038  1  0  0.038262  0  3.702111  0  0  -0.025322  0  3.959814  0  0  -0.019819  0  3.971881  0  0  -0.07339  -0.028909  0  3.950838  0
C  C66  1  0.08180185  0.90338004  0.49682485  1  0  0.081504  0  3.686078  0  0  0.043424  0  3.936721  0  0  0.049743  0  3.954577  0  0  0.039247  0.039271  0  3.924484  0
C  C67  1  0.91819914  0.09661936  0.99682404  1  0  0.081477  0  3.686134  0  0  0.043361  0  3.936762  0  0  0.049684  0  3.954609  0  0  0.039224  0.039207  0  3.924524  0
C  C68  1  0.22660957  0.97115653  0.45296366  1  0  0.015293  0  3.72772  0  0  0.043744  0  3.963196  0  0  0.038876  0  3.987592  0  0  -0.007273  0.046904  0  3.946822  0
C  C69  1  0.77339397  0.02884100  0.95296374  1  0  0.015247  0  3.727726  0  0  0.043761  0  3.963085  0  0  0.038894  0  3.987482  0  0  -0.007265  0.04692  0  3.94671  0
C  C70  1  0.35773846  0.97570196  0.51400742  1  0  -0.05618  0  3.706052  0  0  -0.080475  0  3.946445  0  0  -0.078681  0  3.966738  0  0  -0.072162  -0.081107  0  3.932319  0
C  C71  1  0.64226303  0.02429670  0.01400682  1  0  -0.056261  0  3.705894  0  0  -0.080583  0  3.946301  0  0  -0.078792  0  3.966592  0  0  -0.072155  -0.081216  0  3.932175  0
C  C72  1  0.33998703  0.91392161  0.61434889  1  0  -0.115559  0  3.762661  0  0  -0.125663  0  4.014996  0  0  -0.132627  0  4.037778  0  0  -0.086078  -0.121653  0  4.000022  0
C  C73  1  0.66001224  0.08607681  0.11434655  1  0  -0.115383  0  3.762509  0  0  -0.12547  0  4.014838  0  0  -0.132434  0  4.037622  0  0  -0.086028  -0.121459  0  3.999862  0
C  C74  1  0.19110039  0.84943928  0.65206272  1  0  0.116295  0  3.720351  0  0  0.082309  0  3.976248  0  0  0.088785  0  3.99476  0  0  0.038052  0.078191  0  3.963903  0
C  C75  1  0.80890001  0.15056197  0.15206031  1  0  0.116271  0  3.720263  0  0  0.082289  0  3.976157  0  0  0.088762  0  3.994667  0  0  0.03805  0.078173  0  3.963811  0
C  C76  1  0.24413838  0.04074357  0.34525845  1  0  0.051101  0  3.699067  0  0  -0.013428  0  3.959752  0  0  -0.007621  0  3.971553  0  0  -0.067091  -0.016982  0  3.951288  0
C  C77  1  0.75586409  0.95925424  0.84525842  1  0  0.051048  0  3.699203  0  0  -0.013405  0  3.959775  0  0  -0.007601  0  3.971576  0  0  -0.067123  -0.016958  0  3.95131  0
C  C78  1  0.71292731  0.84394165  0.25382761  1  0  0.05585  0  3.732729  0  0  0.025364  0  3.986073  0  0  0.029969  0  4.003797  0  0  0.036415  0.022511  0  3.974217  0
C  C79  1  0.28707705  0.15605834  0.75383134  1  0  0.05591  0  3.732755  0  0  0.025409  0  3.986088  0  0  0.030017  0  4.003827  0  0  0.036418  0.022546  0  3.974228  0
C  C80  1  0.59013395  0.76259905  0.19253737  1  0  0.022014  0  3.724842  0  0  0.048952  0  3.959227  0  0  0.044636  0  3.984841  0  0  -0.008401  0.051756  0  3.941875  0
C  C81  1  0.40986273  0.23739822  0.69253857  1  0  0.021997  0  3.724944  0  0  0.048945  0  3.959306  0  0  0.044631  0  3.984919  0  0  -0.008411  0.051746  0  3.941947  0
C  C82  1  0.62865054  0.69774200  0.10472674  1  0  -0.064022  0  3.712041  0  0  -0.089363  0  3.954319  0  0  -0.088728  0  3.975475  0  0  -0.079472  -0.089535  0  3.940488  0
C  C83  1  0.37134468  0.30225452  0.60472618  1  0  -0.064019  0  3.712133  0  0  -0.089384  0  3.954398  0  0  -0.088748  0  3.975554  0  0  -0.079468  -0.089557  0  3.940563  0
C  C84  1  0.78435374  0.71396418  0.08329291  1  0  -0.127568  0  3.776824  0  0  -0.135979  0  4.027468  0  0  -0.142167  0  4.051205  0  0  -0.093781  -0.132113  0  4.011615  0
C  C85  1  0.21564150  0.28603240  0.58329476  1  0  -0.127581  0  3.776844  0  0  -0.135974  0  4.027487  0  0  -0.142164  0  4.051221  0  0  -0.093773  -0.132107  0  4.01163  0
C  C86  1  0.89737673  0.79513158  0.15050829  1  0  0.101464  0  3.748255  0  0  0.071682  0  4.006816  0  0  0.07607  0  4.02546  0  0  0.028985  0.069076  0  3.994117  0
C  C87  1  0.10262101  0.20486285  0.65051430  1  0  0.101411  0  3.74837  0  0  0.07161  0  4.006933  0  0  0.076011  0  4.025576  0  0  0.028941  0.069005  0  3.994228  0
C  C88  1  0.42603979  0.75090747  0.22410379  1  0  0.051298  0  3.727793  0  0  -0.010807  0  3.991004  0  0  -0.00638  0  4.003661  0  0  -0.070056  -0.013738  0  3.982895  0
C  C89  1  0.57396125  0.24908968  0.72410259  1  0  0.051324  0  3.727748  0  0  -0.010771  0  3.990955  0  0  -0.006345  0  4.003611  0  0  -0.07004  -0.013689  0  3.982826  0
S  S90  1  0.86684761  0.40576842  0.93249060  1  0  -0.388023  0  2.024034  0  0  -0.366865  0  2.309717  0  0  -0.381437  0  2.305918  0  0  -0.17135  -0.356114  0  2.312694  0
S  S91  1  0.13315122  0.59423116  0.43248957  1  0  -0.388143  0  2.023906  0  0  -0.366978  0  2.309574  0  0  -0.381551  0  2.305774  0  0  -0.171409  -0.356226  0  2.312553  0
S  S92  1  0.78301041  0.12627306  0.45476334  1  0  -0.364929  0  2.028089  0  0  -0.336142  0  2.313151  0  0  -0.350059  0  2.307022  0  0  -0.150552  -0.326443  0  2.317329  0
S  S93  1  0.21699616  0.87373227  0.95475678  1  0  -0.364911  0  2.028104  0  0  -0.336121  0  2.31316  0  0  -0.350039  0  2.307028  0  0  -0.150527  -0.326423  0  2.31734  0
N  N94  1  0.91874131  0.62141904  0.79282861  1  0  -0.567083  0  2.817061  0  0  -0.509467  0  3.088206  0  0  -0.529477  0  3.093389  0  0  -0.404769  -0.496145  0  3.085775  0
N  N95  1  0.08125904  0.37858185  0.29283121  1  0  -0.567075  0  2.817342  0  0  -0.50946  0  3.088488  0  0  -0.529464  0  3.093669  0  0  -0.404754  -0.496137  0  3.086061  0
N  N96  1  0.71789216  0.89300731  0.57417543  1  0  -0.564729  0  2.824549  0  0  -0.506544  0  3.099211  0  0  -0.526526  0  3.105629  0  0  -0.398057  -0.493219  0  3.094677  0
N  N97  1  0.28210793  0.10699610  0.07417049  1  0  -0.564777  0  2.824487  0  0  -0.506591  0  3.09915  0  0  -0.526573  0  3.105561  0  0  -0.398093  -0.493267  0  3.094615  0
N  N98  1  0.55645286  0.64353685  0.74567960  1  0  -0.323766  0  3.250569  0  0  -0.245065  0  3.510739  0  0  -0.263063  0  3.53034  0  0  -0.329213  -0.233361  0  3.497355  0
N  N99  1  0.44354678  0.35646515  0.24568074  1  0  -0.323679  0  3.250699  0  0  -0.244969  0  3.510841  0  0  -0.262964  0  3.530443  0  0  -0.329189  -0.233262  0  3.497456  0
N  N100  1  0.24245430  0.41081031  0.04013995  1  0  -0.627002  0  3.109217  0  0  -0.564825  0  3.35224  0  0  -0.58581  0  3.351385  0  0  -0.630518  -0.550889  0  3.351724  0
N  N101  1  0.75754760  0.58919219  0.54013980  1  0  -0.626937  0  3.109167  0  0  -0.564777  0  3.352258  0  0  -0.585763  0  3.351401  0  0  -0.630509  -0.550846  0  3.351737  0
N  N102  1  0.06443280  0.84446694  0.59410723  1  0  -0.328526  0  3.265379  0  0  -0.250502  0  3.529582  0  0  -0.269049  0  3.549467  0  0  -0.333184  -0.237988  0  3.515526  0
N  N103  1  0.93556871  0.15553445  0.09410567  1  0  -0.32853  0  3.265321  0  0  -0.250511  0  3.529546  0  0  -0.269059  0  3.549434  0  0  -0.333187  -0.237996  0  3.515488  0
N  N104  1  0.11757871  0.09097543  0.31561807  1  0  -0.635708  0  3.133592  0  0  -0.575573  0  3.383294  0  0  -0.596368  0  3.382783  0  0  -0.63211  -0.561153  0  3.382918  0
N  N105  1  0.88242197  0.90902346  0.81561898  1  0  -0.635683  0  3.133711  0  0  -0.575571  0  3.383404  0  0  -0.596365  0  3.382892  0  0  -0.632069  -0.561155  0  3.383027  0
N  N106  1  0.86277775  0.86027886  0.23456725  1  0  -0.307781  0  3.142878  0  0  -0.253912  0  3.402126  0  0  -0.266112  0  3.419545  0  0  -0.316263  -0.245594  0  3.3902  0
N  N107  1  0.13722591  0.13972216  0.73457421  1  0  -0.307786  0  3.142941  0  0  -0.25393  0  3.402236  0  0  -0.266128  0  3.419648  0  0  -0.316261  -0.245613  0  3.390311  0
N  N108  1  0.30756110  0.67267824  0.14937291  1  0  -0.62487  0  3.040237  0  0  -0.585067  0  3.261353  0  0  -0.599679  0  3.262225  0  0  -0.621974  -0.574751  0  3.260885  0
N  N109  1  0.69243710  0.32732304  0.64937159  1  0  -0.624911  0  3.040254  0  0  -0.585105  0  3.261363  0  0  -0.599719  0  3.262239  0  0  -0.621993  -0.574792  0  3.260888  0
