# generated using pymatgen
data_Zn2H10C15S2(N3O4)2
_symmetry_space_group_name_H-M   'P 1'
_cell_length_a   17.26432626
_cell_length_b   20.27125551
_cell_length_c   20.37386683
_cell_angle_alpha   90.00006858
_cell_angle_beta   89.99994130
_cell_angle_gamma   90.00001413
_symmetry_Int_Tables_number   1
_chemical_formula_structural   Zn2H10C15S2(N3O4)2
_chemical_formula_sum   'Zn16 H80 C120 S16 N48 O64'
_cell_volume   7130.23338965
_cell_formula_units_Z   8
loop_
 _symmetry_equiv_pos_site_id
 _symmetry_equiv_pos_as_xyz
  1  'x, y, z'
loop_
 _atom_site_type_symbol
 _atom_site_label
 _atom_site_symmetry_multiplicity
 _atom_site_fract_x
 _atom_site_fract_y
 _atom_site_fract_z
 _atom_site_occupancy
 _atom_site_pbe_bader_charge
 _atom_site_pbe_bader_spin_density
 _atom_site_pbe_cm5_charge
 _atom_site_pbe_ddec_charge
 _atom_site_pbe_ddec_spin_density
 _atom_site_pbe_ddec_sum_bond_order
 _atom_site_pbe_magmom
Zn  Zn0  1  0.33000623  0.23014100  0.52204964  1  1.294695  0  0.680096  0.865859  0  2.335171  0
Zn  Zn1  1  0.83000724  0.26985884  0.47795178  1  1.29469  0  0.680091  0.865872  0  2.335214  0
Zn  Zn2  1  0.66999265  0.76985866  0.02204802  1  1.294571  0  0.680084  0.865887  0  2.335191  0
Zn  Zn3  1  0.16999225  0.73014088  0.97795217  1  1.294692  0  0.680065  0.865831  0  2.335195  0
Zn  Zn4  1  0.66999354  0.76985943  0.47794969  1  1.294665  0  0.680107  0.865907  0  2.335152  0
Zn  Zn5  1  0.16999253  0.73014208  0.52204903  1  1.294678  0  0.680085  0.865861  0  2.33521  0
Zn  Zn6  1  0.33000769  0.23014128  0.97795082  1  1.294717  0  0.680107  0.865909  0  2.3351  0
Zn  Zn7  1  0.83000809  0.26985857  0.02204863  1  1.294712  0  0.680093  0.865855  0  2.335186  0
Zn  Zn8  1  0.17519280  0.27530096  0.47744603  1  1.297859  0  0.680097  0.863584  0  2.342075  0
Zn  Zn9  1  0.67519259  0.22469885  0.52255455  1  1.297832  0  0.680098  0.863536  0  2.342106  0
Zn  Zn10  1  0.82480668  0.72469876  0.97744486  1  1.297806  0  0.680099  0.863555  0  2.342162  0
Zn  Zn11  1  0.32480687  0.77530131  0.02255470  1  1.29783  0  0.680084  0.86356  0  2.342152  0
Zn  Zn12  1  0.82480696  0.72469898  0.52255429  1  1.297934  0  0.680084  0.863542  0  2.342146  0
Zn  Zn13  1  0.32480717  0.77530109  0.47744675  1  1.298027  0  0.680099  0.863569  0  2.342098  0
Zn  Zn14  1  0.17519366  0.27530118  0.02255447  1  1.297907  0  0.680077  0.86351  0  2.34221  0
Zn  Zn15  1  0.67519289  0.22469863  0.97744561  1  1.297846  0  0.680113  0.86359  0  2.34206  0
H  H16  1  0.44827972  0.23197452  0.31543638  1  0.106464  0  0.10603  0.120071  0  1.005597  0
H  H17  1  0.94828048  0.26802634  0.68456395  1  0.10647  0  0.106  0.12006  0  1.005602  0
H  H18  1  0.55171939  0.76802550  0.81543452  1  0.1064  0  0.10603  0.120094  0  1.005565  0
H  H19  1  0.05172052  0.73197155  0.18456528  1  0.106486  0  0.106024  0.120089  0  1.005589  0
H  H20  1  0.55172062  0.76802641  0.68456295  1  0.106458  0  0.106014  0.12006  0  1.005586  0
H  H21  1  0.05172102  0.73197114  0.31543734  1  0.106462  0  0.106011  0.120078  0  1.005556  0
H  H22  1  0.44827980  0.23197395  0.18456432  1  0.106475  0  0.106044  0.1201  0  1.005555  0
H  H23  1  0.94828040  0.26802691  0.81543602  1  0.106468  0  0.106005  0.12008  0  1.005556  0
H  H24  1  0.07612366  0.33140959  0.68424877  1  0.108917  0  0.113704  0.130333  0  0.983917  0
H  H25  1  0.57612426  0.16859069  0.31575287  1  0.108884  0  0.113704  0.13032  0  0.983913  0
H  H26  1  0.92387502  0.66859076  0.18424730  1  0.10872  0  0.113718  0.130324  0  0.983922  0
H  H27  1  0.42387427  0.83141031  0.81575316  1  0.10874  0  0.113713  0.130334  0  0.983916  0
H  H28  1  0.92387552  0.66859035  0.31575056  1  0.108929  0  0.11371  0.130346  0  0.98394  0
H  H29  1  0.42387493  0.83141023  0.68424941  1  0.108764  0  0.113722  0.130342  0  0.983911  0
H  H30  1  0.07612358  0.33141016  0.81575253  1  0.108903  0  0.113721  0.130327  0  0.983874  0
H  H31  1  0.57612434  0.16858963  0.18424862  1  0.108731  0  0.113704  0.130317  0  0.983935  0
H  H32  1  0.05574469  0.07159728  0.53711603  1  0.090627  0  0.109811  0.124313  0  0.994895  0
H  H33  1  0.55574461  0.42840301  0.46288318  1  0.090633  0  0.109818  0.124348  0  0.994874  0
H  H34  1  0.94425532  0.92840290  0.03711632  1  0.090631  0  0.109805  0.124303  0  0.994883  0
H  H35  1  0.44425605  0.57159719  0.96288265  1  0.090611  0  0.109823  0.124355  0  0.994885  0
H  H36  1  0.94425565  0.92840266  0.46288282  1  0.090616  0  0.109809  0.124336  0  0.994891  0
H  H37  1  0.44425457  0.57159743  0.53711664  1  0.090632  0  0.109805  0.124306  0  0.994897  0
H  H38  1  0.05574560  0.07159753  0.96288253  1  0.090642  0  0.109811  0.124334  0  0.994874  0
H  H39  1  0.55574487  0.42840275  0.03711717  1  0.090622  0  0.109812  0.12431  0  0.994895  0
H  H40  1  0.05448152  0.93999736  0.54181177  1  0.100494  0  0.112379  0.12862  0  0.990504  0
H  H41  1  0.55448249  0.56000314  0.45818754  1  0.100499  0  0.112362  0.128577  0  0.990536  0
H  H42  1  0.94551791  0.06000331  0.04181152  1  0.10049  0  0.112382  0.128624  0  0.990496  0
H  H43  1  0.44551818  0.43999656  0.95818735  1  0.100489  0  0.112368  0.128591  0  0.990511  0
H  H44  1  0.94551766  0.06000307  0.45818805  1  0.100496  0  0.112356  0.128573  0  0.990547  0
H  H45  1  0.44551785  0.43999729  0.54181278  1  0.10049  0  0.11236  0.12857  0  0.990542  0
H  H46  1  0.05448243  0.93999712  0.95818732  1  0.100502  0  0.112348  0.128552  0  0.990542  0
H  H47  1  0.55448159  0.56000289  0.04181101  1  0.100483  0  0.112378  0.128605  0  0.990512  0
H  H48  1  0.95253442  0.23459615  0.54102221  1  0.532094  0  0.311923  0.33301  0  0.965125  0
H  H49  1  0.45253407  0.26540421  0.45897911  1  0.532092  0  0.311876  0.332919  0  0.965242  0
H  H50  1  0.04746618  0.76540403  0.04102112  1  0.532063  0  0.311903  0.332951  0  0.965184  0
H  H51  1  0.54746602  0.73459648  0.95897820  1  0.532068  0  0.311915  0.333005  0  0.965135  0
H  H52  1  0.04746650  0.76540428  0.45897762  1  0.532062  0  0.311912  0.333015  0  0.965103  0
H  H53  1  0.54746627  0.73459721  0.54102072  1  0.532092  0  0.311881  0.332934  0  0.965231  0
H  H54  1  0.95253475  0.23459542  0.95897821  1  0.532128  0  0.311915  0.333021  0  0.965097  0
H  H55  1  0.45253375  0.26540346  0.04102114  1  0.532073  0  0.311891  0.332939  0  0.965239  0
H  H56  1  0.05337509  0.22516941  0.53191779  1  0.511635  0  0.314424  0.333519  0  0.955426  0
H  H57  1  0.55337496  0.27483038  0.46808289  1  0.511637  0  0.314464  0.333591  0  0.955348  0
H  H58  1  0.94662493  0.77483076  0.03191741  1  0.511624  0  0.314493  0.333663  0  0.955333  0
H  H59  1  0.44662512  0.72516982  0.96808205  1  0.511626  0  0.314447  0.333599  0  0.955351  0
H  H60  1  0.94662525  0.77483053  0.46808105  1  0.511634  0  0.314452  0.333608  0  0.955322  0
H  H61  1  0.44662538  0.72517005  0.53191743  1  0.511635  0  0.314449  0.333575  0  0.955386  0
H  H62  1  0.05337541  0.22516868  0.96808242  1  0.511615  0  0.31446  0.333598  0  0.955435  0
H  H63  1  0.55337464  0.27483012  0.03191777  1  0.51163  0  0.314466  0.333637  0  0.95529  0
H  H64  1  0.87438557  0.39769642  0.32161136  1  0.437687  0  0.325166  0.326402  0  0.912277  0
H  H65  1  0.37438491  0.10230442  0.67838953  1  0.437683  0  0.325153  0.326385  0  0.912293  0
H  H66  1  0.12561527  0.60230311  0.82161115  1  0.439035  0  0.325146  0.326363  0  0.912343  0
H  H67  1  0.62561552  0.89769642  0.17838908  1  0.43905  0  0.325162  0.326431  0  0.912254  0
H  H68  1  0.12561420  0.60230549  0.67838895  1  0.437692  0  0.325177  0.326385  0  0.912317  0
H  H69  1  0.62561485  0.89769749  0.32161079  1  0.437668  0  0.325152  0.326415  0  0.912259  0
H  H70  1  0.87438565  0.39769584  0.17838867  1  0.439032  0  0.325176  0.326391  0  0.912312  0
H  H71  1  0.37438482  0.10230352  0.82161075  1  0.43904  0  0.325161  0.326384  0  0.912309  0
H  H72  1  0.81982736  0.33982139  0.36676282  1  0.536367  0  0.303042  0.326046  0  0.991929  0
H  H73  1  0.31982678  0.16017944  0.63323812  1  0.53634  0  0.303068  0.326077  0  0.991992  0
H  H74  1  0.18017342  0.66017869  0.86676263  1  0.536387  0  0.303046  0.325984  0  0.991978  0
H  H75  1  0.68017313  0.83982184  0.13323755  1  0.536402  0  0.303063  0.326064  0  0.99208  0
H  H76  1  0.18017240  0.66018003  0.63323799  1  0.536358  0  0.30306  0.326055  0  0.991912  0
H  H77  1  0.68017241  0.83982247  0.36676220  1  0.536404  0  0.3031  0.326102  0  0.992047  0
H  H78  1  0.81982692  0.33982075  0.13323719  1  0.536365  0  0.303064  0.326043  0  0.991887  0
H  H79  1  0.31982664  0.16017860  0.86676227  1  0.536382  0  0.30305  0.326034  0  0.992042  0
H  H80  1  0.12624921  0.42236528  0.34106653  1  0.461807  0  0.328997  0.331661  0  0.903178  0
H  H81  1  0.62624878  0.07763453  0.65893409  1  0.461787  0  0.328985  0.331656  0  0.903187  0
H  H82  1  0.87375102  0.57763428  0.84106711  1  0.461807  0  0.329053  0.331737  0  0.903136  0
H  H83  1  0.37375109  0.92236432  0.15893487  1  0.461778  0  0.328971  0.33166  0  0.903213  0
H  H84  1  0.87375055  0.57763614  0.65893281  1  0.461832  0  0.328999  0.331681  0  0.903211  0
H  H85  1  0.37374924  0.92236541  0.34106623  1  0.461855  0  0.328976  0.331668  0  0.903189  0
H  H86  1  0.12624932  0.42236467  0.15893419  1  0.461781  0  0.329  0.331673  0  0.903216  0
H  H87  1  0.62624925  0.07763513  0.84106643  1  0.461786  0  0.32899  0.331673  0  0.903172  0
H  H88  1  0.18243439  0.38194799  0.40095742  1  0.5248  0  0.304265  0.326896  0  0.986659  0
H  H89  1  0.68243347  0.11805133  0.59904217  1  0.524799  0  0.304255  0.326911  0  0.986602  0
H  H90  1  0.81756693  0.61805065  0.90095760  1  0.524874  0  0.304247  0.326954  0  0.986606  0
H  H91  1  0.31756705  0.88194793  0.09904393  1  0.524462  0  0.304286  0.326933  0  0.986655  0
H  H92  1  0.81756479  0.61805146  0.59904192  1  0.524795  0  0.304266  0.327051  0  0.986457  0
H  H93  1  0.31756629  0.88194811  0.40095765  1  0.524866  0  0.304268  0.326991  0  0.986564  0
H  H94  1  0.18243515  0.38194879  0.09904271  1  0.524796  0  0.304247  0.326918  0  0.986605  0
H  H95  1  0.68243329  0.11805151  0.90095687  1  0.52488  0  0.304273  0.32698  0  0.986581  0
C  C96  1  0.06660711  0.35758490  0.39532573  1  1.617224  0  0.354991  0.636853  0  4.12729  0
C  C97  1  0.56660561  0.14241489  0.60467445  1  1.617162  0  0.355036  0.636894  0  4.127249  0
C  C98  1  0.93339654  0.64241324  0.89532535  1  1.617238  0  0.355025  0.636861  0  4.127314  0
C  C99  1  0.43339607  0.85758586  0.10467559  1  1.617281  0  0.355023  0.636888  0  4.127288  0
C  C100  1  0.93339382  0.64241602  0.60467508  1  1.617079  0  0.354949  0.636763  0  4.127417  0
C  C101  1  0.43339473  0.85758604  0.39532537  1  1.617247  0  0.354978  0.636847  0  4.127316  0
C  C102  1  0.06660612  0.35758522  0.10467496  1  1.617237  0  0.354999  0.63687  0  4.127258  0
C  C103  1  0.56660369  0.14241457  0.89532571  1  1.617224  0  0.35499  0.636851  0  4.12723  0
C  C104  1  0.93551793  0.35002946  0.39010935  1  1.625193  0  0.356137  0.639933  0  4.123989  0
C  C105  1  0.43551795  0.14997090  0.60989100  1  1.624783  0  0.356097  0.63982  0  4.124076  0
C  C106  1  0.06448108  0.64997163  0.89011023  1  1.625191  0  0.356202  0.639978  0  4.123927  0
C  C107  1  0.56448140  0.85002838  0.10989152  1  1.624821  0  0.356096  0.639853  0  4.124118  0
C  C108  1  0.06448125  0.64997294  0.60989146  1  1.62501  0  0.356152  0.639948  0  4.124199  0
C  C109  1  0.56448065  0.85002954  0.39010834  1  1.624724  0  0.356074  0.639898  0  4.123982  0
C  C110  1  0.93551868  0.35002782  0.10989058  1  1.625191  0  0.356164  0.639898  0  4.124006  0
C  C111  1  0.43551894  0.14997205  0.89011026  1  1.624722  0  0.35613  0.639872  0  4.124038  0
C  C112  1  0.00212090  0.28801106  0.46681190  1  1.658085  0  0.363907  0.643069  0  4.074209  0
C  C113  1  0.50212067  0.21198971  0.53319030  1  1.658084  0  0.363896  0.643056  0  4.074251  0
C  C114  1  0.99787918  0.71198964  0.96680910  1  1.658055  0  0.36387  0.643  0  4.074274  0
C  C115  1  0.49787878  0.78801096  0.03318983  1  1.658036  0  0.363938  0.643212  0  4.07416  0
C  C116  1  0.99787944  0.71199086  0.53318891  1  1.658052  0  0.36391  0.643126  0  4.074243  0
C  C117  1  0.49787852  0.78801171  0.46680953  1  1.658044  0  0.363887  0.643092  0  4.074313  0
C  C118  1  0.00212116  0.28801079  0.03318876  1  1.658098  0  0.363881  0.643081  0  4.074178  0
C  C119  1  0.50212214  0.21198800  0.96680705  1  1.658059  0  0.36388  0.64311  0  4.074293  0
C  C120  1  0.29935003  0.24357027  0.38001379  1  1.577946  0  0.210045  0.608209  0  4.205257  0
C  C121  1  0.79935087  0.25642809  0.61998668  1  1.57799  0  0.210048  0.608201  0  4.205366  0
C  C122  1  0.70064899  0.75642834  0.88001277  1  1.578038  0  0.210094  0.60826  0  4.205221  0
C  C123  1  0.20064905  0.74357071  0.11998691  1  1.57802  0  0.210067  0.60821  0  4.205326  0
C  C124  1  0.70064973  0.75642967  0.61998604  1  1.577948  0  0.210109  0.608354  0  4.205185  0
C  C125  1  0.20065005  0.74357087  0.38001364  1  1.578033  0  0.210072  0.60829  0  4.205295  0
C  C126  1  0.29935077  0.24357061  0.11998706  1  1.57804  0  0.210027  0.608076  0  4.205461  0
C  C127  1  0.79935071  0.25642824  0.88001341  1  1.578046  0  0.210055  0.608242  0  4.205361  0
C  C128  1  0.32285346  0.24101539  0.31040745  1  -0.114489  0  -0.0272  -0.128185  0  3.983334  0
C  C129  1  0.82285421  0.25898594  0.68959349  1  -0.114471  0  -0.027137  -0.128009  0  3.983295  0
C  C130  1  0.67714623  0.75898315  0.81040547  1  -0.114461  0  -0.027149  -0.128113  0  3.98332  0
C  C131  1  0.17714679  0.74101393  0.18959373  1  -0.114481  0  -0.027164  -0.128024  0  3.983261  0
C  C132  1  0.67714631  0.75898406  0.68959237  1  -0.114517  0  -0.027241  -0.128229  0  3.983318  0
C  C133  1  0.17714671  0.74101449  0.31040683  1  -0.114467  0  -0.027177  -0.128127  0  3.983363  0
C  C134  1  0.32285353  0.24101531  0.18959386  1  -0.114483  0  -0.027204  -0.128141  0  3.983316  0
C  C135  1  0.82285413  0.25898650  0.81040658  1  -0.11447  0  -0.02718  -0.128096  0  3.983329  0
C  C136  1  0.39702607  0.23567876  0.28457432  1  -0.0136  0  -0.099899  -0.109682  0  4.005124  0
C  C137  1  0.89702621  0.26432258  0.71542606  1  -0.01363  0  -0.099879  -0.109736  0  4.005132  0
C  C138  1  0.60297365  0.76432024  0.78457242  1  -0.178032  0  -0.099939  -0.109734  0  4.005084  0
C  C139  1  0.10297475  0.73567633  0.21542685  1  -0.178111  0  -0.099866  -0.109735  0  4.00509  0
C  C140  1  0.60297427  0.76432069  0.71542501  1  -0.013627  0  -0.099806  -0.109616  0  4.004977  0
C  C141  1  0.10297355  0.73567588  0.28457475  1  -0.013647  0  -0.099892  -0.109721  0  4.005082  0
C  C142  1  0.39702553  0.23567872  0.21542643  1  -0.178116  0  -0.099866  -0.10965  0  4.005109  0
C  C143  1  0.89702675  0.26432262  0.78457395  1  -0.178166  0  -0.099878  -0.109717  0  4.005056  0
C  C144  1  0.20424685  0.26740120  0.61990203  1  1.597693  0  0.210626  0.604484  0  4.214353  0
C  C145  1  0.70424681  0.23259912  0.38009950  1  1.597704  0  0.210659  0.604605  0  4.214367  0
C  C146  1  0.79575249  0.73259908  0.11990075  1  1.598049  0  0.210676  0.604752  0  4.214245  0
C  C147  1  0.29575280  0.76740147  0.88009983  1  1.598019  0  0.21064  0.604625  0  4.214314  0
C  C148  1  0.79575233  0.73259825  0.38009828  1  1.597681  0  0.210648  0.604641  0  4.214327  0
C  C149  1  0.29575527  0.76740230  0.61990131  1  1.597696  0  0.210684  0.604591  0  4.214271  0
C  C150  1  0.20424727  0.26740135  0.88009859  1  1.59767  0  0.21061  0.60449  0  4.214342  0
C  C151  1  0.70424465  0.23259797  0.11990098  1  1.597686  0  0.210678  0.604602  0  4.21418  0
C  C152  1  0.18332447  0.27580624  0.68956580  1  -0.178192  0  -0.025102  -0.122327  0  3.987938  0
C  C153  1  0.68332509  0.22419357  0.31043526  1  -0.178161  0  -0.025106  -0.122334  0  3.98795  0
C  C154  1  0.81667478  0.72419461  0.18956448  1  -0.178589  0  -0.025072  -0.122408  0  3.988004  0
C  C155  1  0.31667344  0.77580693  0.81043558  1  -0.178563  0  -0.02509  -0.122292  0  3.987902  0
C  C156  1  0.81667471  0.72419271  0.31043452  1  -0.178514  0  -0.025075  -0.122234  0  3.987935  0
C  C157  1  0.31667409  0.77580735  0.68956604  1  -0.17853  0  -0.025097  -0.122274  0  3.987835  0
C  C158  1  0.18332440  0.27580681  0.81043534  1  -0.178221  0  -0.025115  -0.122316  0  3.98797  0
C  C159  1  0.68332401  0.22419350  0.18956473  1  -0.178197  0  -0.025099  -0.122345  0  3.987941  0
C  C160  1  0.11955713  0.30835332  0.71541366  1  -0.111955  0  -0.092876  -0.105247  0  3.992581  0
C  C161  1  0.61955893  0.19164549  0.28458745  1  0.052078  0  -0.092861  -0.105201  0  3.992617  0
C  C162  1  0.88044093  0.69164707  0.21541176  1  0.05227  0  -0.09283  -0.10508  0  3.992527  0
C  C163  1  0.38044079  0.80835301  0.78458726  1  0.052246  0  -0.092883  -0.10524  0  3.992554  0
C  C164  1  0.88044147  0.69164514  0.28458616  1  -0.111923  0  -0.092905  -0.105373  0  3.992647  0
C  C165  1  0.38044141  0.80835395  0.71541434  1  -0.111768  0  -0.092888  -0.105276  0  3.992615  0
C  C166  1  0.11955767  0.30835238  0.78458708  1  0.052427  0  -0.092824  -0.105147  0  3.992552  0
C  C167  1  0.61955724  0.19164644  0.21541354  1  -0.111771  0  -0.092832  -0.10517  0  3.992616  0
C  C168  1  0.20159693  0.13396933  0.50206423  1  1.622725  0  0.209599  0.607254  0  4.210084  0
C  C169  1  0.70159736  0.36602999  0.49793583  1  1.622701  0  0.209582  0.607259  0  4.210114  0
C  C170  1  0.79840255  0.86603031  0.00206310  1  1.622785  0  0.209605  0.607342  0  4.210086  0
C  C171  1  0.29840268  0.63396926  0.99793648  1  1.622733  0  0.209615  0.607376  0  4.210043  0
C  C172  1  0.79840284  0.86603012  0.49793510  1  1.622756  0  0.20958  0.607235  0  4.210143  0
C  C173  1  0.29840240  0.63396995  0.50206400  1  1.6227  0  0.20957  0.60728  0  4.210123  0
C  C174  1  0.20159837  0.13396963  0.99793525  1  1.62262  0  0.209581  0.607318  0  4.21012  0
C  C175  1  0.70159766  0.36602970  0.00206383  1  1.622652  0  0.209552  0.607201  0  4.210153  0
C  C176  1  0.17620525  0.06461349  0.50676483  1  -0.250157  0  -0.025291  -0.121313  0  3.980946  0
C  C177  1  0.67620571  0.43538632  0.49323476  1  -0.250202  0  -0.025258  -0.121254  0  3.980788  0
C  C178  1  0.82379539  0.93538616  0.00676327  1  -0.250167  0  -0.025249  -0.121284  0  3.980798  0
C  C179  1  0.32379550  0.56461342  0.99323580  1  -0.250519  0  -0.025268  -0.121323  0  3.980875  0
C  C180  1  0.82379509  0.93538645  0.49323450  1  -0.250511  0  -0.025247  -0.121248  0  3.980809  0
C  C181  1  0.32379405  0.56461362  0.50676507  1  -0.250141  0  -0.025257  -0.12131  0  3.980812  0
C  C182  1  0.17620611  0.06461378  0.99323459  1  -0.250213  0  -0.025285  -0.1214  0  3.980929  0
C  C183  1  0.67620542  0.43538603  0.00676451  1  -0.250191  0  -0.025238  -0.121239  0  3.980749  0
C  C184  1  0.10452505  0.03981335  0.52518796  1  -0.002972  0  -0.097226  -0.110117  0  4.000572  0
C  C185  1  0.60452670  0.46018595  0.47481120  1  -0.002936  0  -0.097254  -0.110207  0  4.000528  0
C  C186  1  0.89547440  0.96018632  0.02518735  1  -0.00294  0  -0.097248  -0.110129  0  4.000509  0
C  C187  1  0.39547453  0.53981376  0.97481117  1  -0.002595  0  -0.097245  -0.110162  0  4.000522  0
C  C188  1  0.89547413  0.96018609  0.47481088  1  -0.002606  0  -0.097259  -0.110183  0  4.000621  0
C  C189  1  0.39547422  0.53981349  0.52518911  1  -0.002942  0  -0.097258  -0.110144  0  4.000543  0
C  C190  1  0.10452710  0.03981412  0.97481100  1  -0.002935  0  -0.097226  -0.110086  0  4.000462  0
C  C191  1  0.60452582  0.46018568  0.02518816  1  -0.002943  0  -0.097219  -0.110072  0  4.000507  0
C  C192  1  0.10371427  0.97027028  0.52752484  1  0.057097  0  -0.094741  -0.105116  0  3.992621  0
C  C193  1  0.60371522  0.52972975  0.47247394  1  0.057101  0  -0.094742  -0.105066  0  3.992637  0
C  C194  1  0.89628576  0.02972989  0.02752459  1  0.057079  0  -0.094742  -0.105127  0  3.992609  0
C  C195  1  0.39628602  0.47026997  0.97247382  1  0.057061  0  -0.094768  -0.105127  0  3.992607  0
C  C196  1  0.89628549  0.02972966  0.47247400  1  0.05708  0  -0.094762  -0.105133  0  3.99268  0
C  C197  1  0.39628513  0.47027019  0.52752687  1  0.05707  0  -0.094756  -0.105107  0  3.992662  0
C  C198  1  0.10371516  0.97027054  0.97247327  1  0.057097  0  -0.094733  -0.105081  0  3.992611  0
C  C199  1  0.60371432  0.52972948  0.02752502  1  0.057108  0  -0.094708  -0.105087  0  3.992626  0
C  C200  1  0.17428697  0.94320535  0.50925286  1  -0.241326  0  -0.027299  -0.128233  0  3.991527  0
C  C201  1  0.67428732  0.55679518  0.49074684  1  -0.241281  0  -0.027328  -0.128284  0  3.991498  0
C  C202  1  0.82571366  0.05679480  0.00925123  1  -0.241316  0  -0.027361  -0.128304  0  3.991491  0
C  C203  1  0.32571389  0.44320505  0.99074774  1  -0.241261  0  -0.027356  -0.128297  0  3.99146  0
C  C204  1  0.82571337  0.05679459  0.49074746  1  -0.241289  0  -0.027285  -0.128171  0  3.991392  0
C  C205  1  0.32571302  0.44320525  0.50925347  1  -0.241271  0  -0.027312  -0.128238  0  3.991422  0
C  C206  1  0.17428726  0.94320564  0.99074712  1  -0.241256  0  -0.027354  -0.128285  0  3.991542  0
C  C207  1  0.67428645  0.55679440  0.00925061  1  -0.241648  0  -0.027371  -0.128329  0  3.991665  0
C  C208  1  0.19595708  0.87299805  0.50461206  1  1.595146  0  0.21186  0.608786  0  4.20705  0
C  C209  1  0.69595455  0.62700396  0.49538713  1  1.595254  0  0.211906  0.608825  0  4.207016  0
C  C210  1  0.80404529  0.12700307  0.00461152  1  1.59519  0  0.21189  0.608886  0  4.207084  0
C  C211  1  0.30404549  0.37299627  0.99538796  1  1.595207  0  0.21185  0.608815  0  4.207137  0
C  C212  1  0.80404442  0.12700337  0.49538777  1  1.595209  0  0.211837  0.60873  0  4.207272  0
C  C213  1  0.30404521  0.37299598  0.50461318  1  1.594872  0  0.211923  0.608858  0  4.206984  0
C  C214  1  0.19595447  0.87299637  0.99538782  1  1.595176  0  0.211855  0.608657  0  4.207358  0
C  C215  1  0.69595427  0.62700268  0.00461039  1  1.595214  0  0.211749  0.608736  0  4.207429  0
S  S216  1  0.24182843  0.00285165  0.49129888  1  0.298047  0  0.096702  0.168098  0  2.864398  0
S  S217  1  0.74182831  0.49714818  0.50870066  1  0.298027  0  0.096699  0.1681  0  2.864369  0
S  S218  1  0.75817220  0.99714809  0.99129760  1  0.298056  0  0.096697  0.168091  0  2.864294  0
S  S219  1  0.25817232  0.50285196  0.00870153  1  0.298049  0  0.096752  0.168158  0  2.864337  0
S  S220  1  0.75817133  0.99714780  0.50870095  1  0.29805  0  0.09669  0.16805  0  2.864212  0
S  S221  1  0.25817145  0.50285127  0.49129917  1  0.298019  0  0.096711  0.16812  0  2.864327  0
S  S222  1  0.24182872  0.00285234  0.00870075  1  0.298035  0  0.096738  0.168171  0  2.864363  0
S  S223  1  0.74182802  0.49714798  0.99129829  1  0.29836  0  0.096682  0.168054  0  2.864314  0
S  S224  1  0.24296476  0.24561082  0.75000052  1  0.273842  0  0.092773  0.15611  0  2.883867  0
S  S225  1  0.74296488  0.25438901  0.24999950  1  0.274202  0  0.092784  0.156121  0  2.883874  0
S  S226  1  0.75703385  0.75439011  0.24999979  1  0.274474  0  0.09275  0.156107  0  2.883883  0
S  S227  1  0.25703373  0.74561142  0.75000082  1  0.274502  0  0.092785  0.156094  0  2.883911  0
S  S228  1  0.25353773  0.24583645  0.25000069  1  0.294993  0  0.104088  0.182916  0  2.857911  0
S  S229  1  0.75353840  0.25416436  0.75000031  1  0.295022  0  0.104075  0.182858  0  2.857934  0
S  S230  1  0.74646146  0.75416250  0.74999864  1  0.295015  0  0.10404  0.182874  0  2.857967  0
S  S231  1  0.24646194  0.74583656  0.25000050  1  0.294991  0  0.104052  0.18285  0  2.858002  0
N  N232  1  0.07101616  0.31051730  0.44329057  1  -1.246946  0  -0.358578  -0.5285  0  3.31626  0
N  N233  1  0.57101589  0.18948397  0.55670960  1  -1.246921  0  -0.358565  -0.528476  0  3.316282  0
N  N234  1  0.92898395  0.68948336  0.94329075  1  -1.246881  0  -0.358542  -0.528453  0  3.316326  0
N  N235  1  0.42898468  0.81051623  0.05670873  1  -1.246975  0  -0.358563  -0.528509  0  3.316212  0
N  N236  1  0.92898302  0.68948362  0.55670925  1  -1.247001  0  -0.35856  -0.528461  0  3.316232  0
N  N237  1  0.42898387  0.81051696  0.44329121  1  -1.247035  0  -0.35855  -0.528483  0  3.31633  0
N  N238  1  0.07101697  0.31051658  0.05670957  1  -1.247022  0  -0.358557  -0.528496  0  3.316204  0
N  N239  1  0.57101566  0.18948371  0.94329110  1  -1.246972  0  -0.358498  -0.528395  0  3.316426  0
N  N240  1  0.00056864  0.37754122  0.36728102  1  -1.26883  0  -0.373719  -0.587752  0  3.183038  0
N  N241  1  0.50056884  0.12245856  0.63272020  1  -1.269572  0  -0.373779  -0.587778  0  3.183128  0
N  N242  1  0.99943156  0.62245837  0.86728007  1  -1.268923  0  -0.373751  -0.587753  0  3.18327  0
N  N243  1  0.49943222  0.87754074  0.13271983  1  -1.269702  0  -0.373748  -0.587712  0  3.183319  0
N  N244  1  0.99943112  0.62246070  0.63272028  1  -1.26966  0  -0.373754  -0.58777  0  3.183212  0
N  N245  1  0.49943092  0.87754089  0.36728110  1  -1.268907  0  -0.373716  -0.587725  0  3.183234  0
N  N246  1  0.00056878  0.37754058  0.13272024  1  -1.269609  0  -0.373766  -0.587767  0  3.183097  0
N  N247  1  0.50056870  0.12245969  0.86728048  1  -1.268868  0  -0.373742  -0.58775  0  3.183247  0
N  N248  1  0.93253313  0.30676133  0.44153550  1  -1.243914  0  -0.358612  -0.529724  0  3.314594  0
N  N249  1  0.43253322  0.19323952  0.55846485  1  -1.243503  0  -0.358541  -0.529623  0  3.314603  0
N  N250  1  0.06746698  0.69323933  0.94153545  1  -1.243956  0  -0.358623  -0.529723  0  3.314698  0
N  N251  1  0.56746677  0.80676019  0.05846336  1  -1.243447  0  -0.358572  -0.529704  0  3.314623  0
N  N252  1  0.06746721  0.69324009  0.55846580  1  -1.2437  0  -0.358596  -0.529729  0  3.314656  0
N  N253  1  0.56746654  0.80676042  0.44153645  1  -1.243396  0  -0.358545  -0.529683  0  3.314616  0
N  N254  1  0.93253394  0.30676061  0.05846487  1  -1.243983  0  -0.358628  -0.529714  0  3.314619  0
N  N255  1  0.43253299  0.19323975  0.94153646  1  -1.243651  0  -0.358588  -0.529731  0  3.314712  0
N  N256  1  0.00264333  0.24576851  0.51695503  1  -1.331202  0  -0.560969  -0.627542  0  3.287239  0
N  N257  1  0.50264259  0.25423275  0.48304471  1  -1.331195  0  -0.561002  -0.627556  0  3.287076  0
N  N258  1  0.99735614  0.75423263  0.01695556  1  -1.331142  0  -0.56105  -0.627629  0  3.287026  0
N  N259  1  0.49735631  0.74576797  0.98304386  1  -1.331163  0  -0.56105  -0.627727  0  3.287034  0
N  N260  1  0.99735586  0.75423093  0.48304577  1  -1.331161  0  -0.561  -0.627665  0  3.28718  0
N  N261  1  0.49735717  0.74576769  0.51695609  1  -1.331151  0  -0.561009  -0.627592  0  3.287081  0
N  N262  1  0.00264478  0.24576781  0.98304525  1  -1.331159  0  -0.561015  -0.62767  0  3.287179  0
N  N263  1  0.50264287  0.25423345  0.01695744  1  -1.330976  0  -0.561086  -0.627736  0  3.28689  0
N  N264  1  0.86898886  0.36742007  0.36075168  1  -1.275785  0  -0.565242  -0.639856  0  3.28761  0
N  N265  1  0.36898826  0.13258077  0.63924921  1  -1.275807  0  -0.565237  -0.639835  0  3.287732  0
N  N266  1  0.13101193  0.63258000  0.86075052  1  -1.275767  0  -0.565213  -0.639745  0  3.287619  0
N  N267  1  0.63101164  0.86741953  0.13924823  1  -1.275807  0  -0.565251  -0.639943  0  3.287662  0
N  N268  1  0.13100974  0.63258135  0.63925010  1  -1.275747  0  -0.565264  -0.639847  0  3.287745  0
N  N269  1  0.63101150  0.86741917  0.36075208  1  -1.275772  0  -0.565233  -0.639935  0  3.287642  0
N  N270  1  0.86899015  0.36742043  0.13924979  1  -1.275732  0  -0.565253  -0.639814  0  3.287619  0
N  N271  1  0.36898755  0.13258090  0.86075110  1  -1.275754  0  -0.565226  -0.639792  0  3.287739  0
N  N272  1  0.13247590  0.38547316  0.37408871  1  -1.281142  0  -0.560906  -0.635059  0  3.281532  0
N  N273  1  0.63247610  0.11452665  0.62591092  1  -1.281097  0  -0.560876  -0.635068  0  3.281432  0
N  N274  1  0.86752256  0.61452447  0.87408836  1  -1.281541  0  -0.560967  -0.635226  0  3.281281  0
N  N275  1  0.36752265  0.88547314  0.12591215  1  -1.281071  0  -0.560879  -0.635109  0  3.281544  0
N  N276  1  0.86752329  0.61452728  0.62591112  1  -1.281025  0  -0.560876  -0.63518  0  3.281414  0
N  N277  1  0.36752192  0.88547329  0.37408890  1  -1.281268  0  -0.560888  -0.635178  0  3.281421  0
N  N278  1  0.13247605  0.38547350  0.12591196  1  -1.281428  0  -0.560859  -0.635078  0  3.281469  0
N  N279  1  0.63247769  0.11452630  0.87408816  1  -1.28149  0  -0.560876  -0.63515  0  3.281278  0
O  O280  1  0.22690353  0.24531906  0.39166158  1  -1.158667  0  -0.318979  -0.546341  0  2.329285  0
O  O281  1  0.72690496  0.25468077  0.60833845  1  -1.158646  0  -0.318943  -0.546282  0  2.329261  0
O  O282  1  0.77309548  0.75467958  0.89166099  1  -1.158687  0  -0.318962  -0.546315  0  2.329209  0
O  O283  1  0.27309498  0.74531999  0.10833862  1  -1.158686  0  -0.318955  -0.546293  0  2.329257  0
O  O284  1  0.77309623  0.75468039  0.60833775  1  -1.15866  0  -0.318981  -0.546373  0  2.329268  0
O  O285  1  0.27309539  0.74532016  0.39166235  1  -1.158731  0  -0.31896  -0.546353  0  2.329275  0
O  O286  1  0.22690544  0.24531987  0.10833883  1  -1.158694  0  -0.318946  -0.546238  0  2.329302  0
O  O287  1  0.72690536  0.25468094  0.89166219  1  -1.158691  0  -0.318946  -0.546306  0  2.329276  0
O  O288  1  0.35325191  0.24412775  0.42313763  1  -1.175143  0  -0.317106  -0.55661  0  2.337304  0
O  O289  1  0.85325164  0.25587161  0.57686278  1  -1.175161  0  -0.317132  -0.556664  0  2.337387  0
O  O290  1  0.64674764  0.75587142  0.92313617  1  -1.175006  0  -0.317156  -0.556667  0  2.33737  0
O  O291  1  0.14674833  0.74412812  0.07686355  1  -1.175089  0  -0.317132  -0.556662  0  2.337407  0
O  O292  1  0.64674843  0.75587219  0.57686170  1  -1.175149  0  -0.317106  -0.556645  0  2.337266  0
O  O293  1  0.14674870  0.74412833  0.42313753  1  -1.17511  0  -0.317126  -0.55665  0  2.337384  0
O  O294  1  0.35325270  0.24412902  0.07686316  1  -1.17515  0  -0.317125  -0.556592  0  2.33737  0
O  O295  1  0.85325201  0.25587231  0.92313726  1  -1.175187  0  -0.317155  -0.556707  0  2.33738  0
O  O296  1  0.16216531  0.29570233  0.57741332  1  -1.160259  0  -0.310716  -0.531526  0  2.293233  0
O  O297  1  0.66216636  0.20429798  0.42258726  1  -1.160279  0  -0.310734  -0.531595  0  2.293333  0
O  O298  1  0.83783351  0.70429889  0.07741246  1  -1.160246  0  -0.310735  -0.531608  0  2.293252  0
O  O299  1  0.33783377  0.79570168  0.92258759  1  -1.160277  0  -0.310697  -0.531584  0  2.29332  0
O  O300  1  0.83783388  0.70429811  0.42258699  1  -1.160241  0  -0.310708  -0.531564  0  2.293251  0
O  O301  1  0.33783398  0.79570147  0.57741403  1  -1.160306  0  -0.310747  -0.531573  0  2.293431  0
O  O302  1  0.16216626  0.29570253  0.92258786  1  -1.160261  0  -0.310689  -0.53152  0  2.293271  0
O  O303  1  0.66216483  0.20429777  0.07741322  1  -1.160324  0  -0.310733  -0.531573  0  2.293289  0
O  O304  1  0.26421560  0.23199737  0.60782229  1  -1.190285  0  -0.31822  -0.573719  0  2.389004  0
O  O305  1  0.76421555  0.26800345  0.39217869  1  -1.190339  0  -0.318238  -0.573777  0  2.388968  0
O  O306  1  0.73578376  0.76800240  0.10781963  1  -1.19033  0  -0.318252  -0.573852  0  2.388949  0
O  O307  1  0.23578404  0.73199765  0.89218001  1  -1.190305  0  -0.318243  -0.573767  0  2.388924  0
O  O308  1  0.73578474  0.76800306  0.39217753  1  -1.190346  0  -0.318234  -0.573821  0  2.388953  0
O  O309  1  0.23578363  0.73199748  0.60782113  1  -1.190278  0  -0.318231  -0.573759  0  2.388844  0
O  O310  1  0.26421485  0.23199804  0.89217823  1  -1.190324  0  -0.31823  -0.573737  0  2.388949  0
O  O311  1  0.76421572  0.26800229  0.10782128  1  -1.190272  0  -0.318255  -0.573753  0  2.388741  0
O  O312  1  0.14933425  0.17863997  0.50268174  1  -1.174167  0  -0.317407  -0.556146  0  2.328447  0
O  O313  1  0.64933409  0.32135984  0.49731836  1  -1.174101  0  -0.317374  -0.556131  0  2.328575  0
O  O314  1  0.85066581  0.82135967  0.00268051  1  -1.174079  0  -0.317394  -0.556216  0  2.328534  0
O  O315  1  0.35066537  0.67864040  0.99731854  1  -1.174154  0  -0.317413  -0.556221  0  2.328447  0
O  O316  1  0.85066551  0.82135997  0.49731759  1  -1.174173  0  -0.31738  -0.556125  0  2.328555  0
O  O317  1  0.35066509  0.67863961  0.50268146  1  -1.174157  0  -0.317399  -0.556178  0  2.328509  0
O  O318  1  0.14933511  0.17864027  0.99731784  1  -1.174063  0  -0.317395  -0.556166  0  2.328504  0
O  O319  1  0.64933439  0.32136004  0.00268178  1  -1.174093  0  -0.317397  -0.556162  0  2.328492  0
O  O320  1  0.27430235  0.14368210  0.49795895  1  -1.171506  0  -0.320166  -0.549494  0  2.333093  0
O  O321  1  0.77430219  0.35631724  0.50204007  1  -1.171531  0  -0.320178  -0.549515  0  2.333084  0
O  O322  1  0.72569828  0.85631715  0.99795754  1  -1.171673  0  -0.320171  -0.549487  0  2.333084  0
O  O323  1  0.22569787  0.64368240  0.00204212  1  -1.171539  0  -0.32017  -0.549541  0  2.333113  0
O  O324  1  0.72569742  0.85631734  0.50203940  1  -1.171533  0  -0.320171  -0.549484  0  2.333052  0
O  O325  1  0.22569699  0.64368270  0.49796025  1  -1.171491  0  -0.320143  -0.549472  0  2.333068  0
O  O326  1  0.27430264  0.14368329  0.00203983  1  -1.17151  0  -0.320152  -0.549509  0  2.3331  0
O  O327  1  0.77430247  0.35631655  0.99796016  1  -1.171508  0  -0.32013  -0.549431  0  2.333093  0
O  O328  1  0.25807768  0.86005163  0.47244091  1  -1.188591  0  -0.319883  -0.574576  0  2.391705  0
O  O329  1  0.75807685  0.63994892  0.52756068  1  -1.188513  0  -0.319908  -0.574616  0  2.39166  0
O  O330  1  0.74192413  0.13994907  0.97243863  1  -1.188481  0  -0.319901  -0.574627  0  2.391687  0
O  O331  1  0.24192433  0.36005075  0.02756189  1  -1.18847  0  -0.319851  -0.574514  0  2.391644  0
O  O332  1  0.74192324  0.13994881  0.52756186  1  -1.1885  0  -0.319856  -0.574482  0  2.391695  0
O  O333  1  0.24192407  0.36005004  0.47243914  1  -1.188503  0  -0.319913  -0.57461  0  2.391675  0
O  O334  1  0.25807679  0.86005087  0.02756169  1  -1.188473  0  -0.319916  -0.574551  0  2.391718  0
O  O335  1  0.75807659  0.63994869  0.97243745  1  -1.188488  0  -0.319857  -0.574488  0  2.391692  0
O  O336  1  0.15280912  0.83092914  0.53268429  1  -1.158029  0  -0.312133  -0.529529  0  2.285891  0
O  O337  1  0.65280954  0.66907089  0.46731592  1  -1.158157  0  -0.312144  -0.529518  0  2.285982  0
O  O338  1  0.84719032  0.16907054  0.03268278  1  -1.158103  0  -0.312137  -0.529547  0  2.286057  0
O  O339  1  0.34719054  0.33092881  0.96731667  1  -1.158142  0  -0.312128  -0.529559  0  2.286126  0
O  O340  1  0.84718890  0.16907130  0.46731652  1  -1.158104  0  -0.31216  -0.529559  0  2.286152  0
O  O341  1  0.34719080  0.33092855  0.53268390  1  -1.157775  0  -0.312139  -0.529536  0  2.285979  0
O  O342  1  0.15280944  0.83092940  0.96731705  1  -1.158122  0  -0.3121  -0.529408  0  2.286157  0
O  O343  1  0.65280864  0.66906965  0.03268119  1  -1.15804  0  -0.312078  -0.529552  0  2.286241  0
