# generated using pymatgen
data_ZnH3(CO)4
_symmetry_space_group_name_H-M   'P 1'
_cell_length_a   6.85726832
_cell_length_b   15.15249399
_cell_length_c   15.15634612
_cell_angle_alpha   117.79656673
_cell_angle_beta   98.65764381
_cell_angle_gamma   98.67070031
_symmetry_Int_Tables_number   1
_chemical_formula_structural   ZnH3(CO)4
_chemical_formula_sum   'Zn6 H18 C24 O24'
_cell_volume   1332.54110135
_cell_formula_units_Z   6
loop_
 _symmetry_equiv_pos_site_id
 _symmetry_equiv_pos_as_xyz
  1  'x, y, z'
loop_
 _atom_site_type_symbol
 _atom_site_label
 _atom_site_symmetry_multiplicity
 _atom_site_fract_x
 _atom_site_fract_y
 _atom_site_fract_z
 _atom_site_occupancy
 _atom_site_hle17_bader_spin_density
 _atom_site_hle17_ddec_charge
 _atom_site_hle17_ddec_spin_density
 _atom_site_hle17_ddec_sum_bond_order
 _atom_site_hle17_magmom
 _atom_site_hse06_10hf_bader_spin_density
 _atom_site_hse06_10hf_ddec_charge
 _atom_site_hse06_10hf_ddec_spin_density
 _atom_site_hse06_10hf_ddec_sum_bond_order
 _atom_site_hse06_10hf_magmom
 _atom_site_hse06_bader_spin_density
 _atom_site_hse06_ddec_charge
 _atom_site_hse06_ddec_spin_density
 _atom_site_hse06_ddec_sum_bond_order
 _atom_site_hse06_magmom
 _atom_site_pbe_bader_spin_density
 _atom_site_pbe_cm5_charge
 _atom_site_pbe_ddec_charge
 _atom_site_pbe_ddec_spin_density
 _atom_site_pbe_ddec_sum_bond_order
 _atom_site_pbe_magmom
Zn  Zn0  1  0.70363789  0.73992658  0.32364178  1  0  1.159159  0  1.770308  0  0  0.997803  0  2.215443  0  0  1.045548  0  2.154938  0  0  0.671961  0.963928  0  2.257244  0
Zn  Zn1  1  0.96351598  0.58356111  0.26009652  1  0  1.159058  0  1.770023  0  0  0.9978  0  2.215282  0  0  1.045615  0  2.154614  0  0  0.671781  0.963858  0  2.257171  0
Zn  Zn2  1  0.37986204  0.67633485  0.41632854  1  0  1.159292  0  1.77065  0  0  0.997787  0  2.215564  0  0  1.045609  0  2.15504  0  0  0.671962  0.963917  0  2.257383  0
Zn  Zn3  1  0.29635950  0.26007756  0.67635723  1  0  1.159224  0  1.770586  0  0  0.997918  0  2.21533  0  0  1.045659  0  2.154819  0  0  0.671982  0.964038  0  2.25714  0
Zn  Zn4  1  0.03648406  0.41644226  0.73990824  1  0  1.158961  0  1.770061  0  0  0.997692  0  2.215321  0  0  1.045502  0  2.154656  0  0  0.671731  0.963769  0  2.257164  0
Zn  Zn5  1  0.62014752  0.32366698  0.58367349  1  0  1.159312  0  1.770572  0  0  0.997827  0  2.215458  0  0  1.045642  0  2.154936  0  0  0.671944  0.963958  0  2.257274  0
H  H6  1  0.15822138  0.02529122  0.45756598  1  0  0.133202  0  0.932623  0  0  0.14093  0  0.993697  0  0  0.145475  0  0.990207  0  0  0.108306  0.13765  0  0.996314  0
H  H7  1  0.13295113  0.43237922  0.97483224  1  0  0.133087  0  0.932759  0  0  0.140988  0  0.993588  0  0  0.145578  0  0.990034  0  0  0.10841  0.137665  0  0.996252  0
H  H8  1  0.70057003  0.54248662  0.56768819  1  0  0.133575  0  0.932036  0  0  0.141046  0  0.993491  0  0  0.145567  0  0.99004  0  0  0.108312  0.137781  0  0.996086  0
H  H9  1  0.84177491  0.97470753  0.54243967  1  0  0.133184  0  0.93273  0  0  0.140883  0  0.99382  0  0  0.145426  0  0.990335  0  0  0.108293  0.137613  0  0.996413  0
H  H10  1  0.86704401  0.56762029  0.02516909  1  0  0.133141  0  0.93246  0  0  0.140973  0  0.993544  0  0  0.145527  0  0.990035  0  0  0.108384  0.137647  0  0.996204  0
H  H11  1  0.29943034  0.45750596  0.43229836  1  0  0.133543  0  0.932059  0  0  0.141018  0  0.99353  0  0  0.145528  0  0.99008  0  0  0.108278  0.137752  0  0.996128  0
H  H12  1  0.51291591  0.85484381  0.26358817  1  0  0.427502  0  0.804579  0  0  0.415703  0  0.850195  0  0  0.4227  0  0.843122  0  0  0.331922  0.410758  0  0.855246  0
H  H13  1  0.65767650  0.40861983  0.14529304  1  0  0.427137  0  0.805036  0  0  0.415545  0  0.850298  0  0  0.422558  0  0.843188  0  0  0.331769  0.410579  0  0.855381  0
H  H14  1  0.24885458  0.73660283  0.59128150  1  0  0.427529  0  0.805249  0  0  0.416191  0  0.849704  0  0  0.423193  0  0.842592  0  0  0.331708  0.411242  0  0.854762  0
H  H15  1  0.48706921  0.14515339  0.73641010  1  0  0.427489  0  0.805078  0  0  0.415852  0  0.849988  0  0  0.422853  0  0.842899  0  0  0.331947  0.410908  0  0.855052  0
H  H16  1  0.34232084  0.59138122  0.85470519  1  0  0.427152  0  0.805013  0  0  0.415518  0  0.850325  0  0  0.422527  0  0.843219  0  0  0.33176  0.410581  0  0.855369  0
H  H17  1  0.75114054  0.26339669  0.40871850  1  0  0.427516  0  0.805283  0  0  0.416172  0  0.849744  0  0  0.423176  0  0.842631  0  0  0.331696  0.411221  0  0.854812  0
H  H18  1  0.36017847  0.76450850  0.25888898  1  0  0.423852  0  0.861337  0  0  0.392744  0  0.936542  0  0  0.402039  0  0.923056  0  0  0.30043  0.386137  0  0.945923  0
H  H19  1  0.59542858  0.49443962  0.23563170  1  0  0.42327  0  0.861172  0  0  0.393268  0  0.936182  0  0  0.402594  0  0.922681  0  0  0.300434  0.386662  0  0.94574  0
H  H20  1  0.10100140  0.74118444  0.50554112  1  0  0.430741  0  0.848477  0  0  0.394226  0  0.935691  0  0  0.403766  0  0.921856  0  0  0.30017  0.387465  0  0.945486  0
H  H21  1  0.63980707  0.23548947  0.74111297  1  0  0.431002  0  0.84704  0  0  0.392897  0  0.936643  0  0  0.402218  0  0.923155  0  0  0.300467  0.386264  0  0.946249  0
H  H22  1  0.40456139  0.50556144  0.76436671  1  0  0.423303  0  0.861175  0  0  0.393302  0  0.93611  0  0  0.402632  0  0.922594  0  0  0.300415  0.386654  0  0.945773  0
H  H23  1  0.89900062  0.25881122  0.49445556  1  0  0.430624  0  0.848474  0  0  0.394106  0  0.935827  0  0  0.403641  0  0.921998  0  0  0.30011  0.387344  0  0.94562  0
C  C24  1  0.14410141  0.82769169  0.37971046  1  0  0.692991  0  3.817694  0  0  0.642461  0  4.106216  0  0  0.679147  0  4.095522  0  0  0.217836  0.617144  0  4.112878  0
C  C25  1  0.31646351  0.55187097  0.17231180  1  0  0.692544  0  3.817335  0  0  0.641976  0  4.106336  0  0  0.678622  0  4.095761  0  0  0.217752  0.616995  0  4.112936  0
C  C26  1  0.76442619  0.62030109  0.44806544  1  0  0.694131  0  3.817527  0  0  0.642114  0  4.1048  0  0  0.678813  0  4.094109  0  0  0.217662  0.617096  0  4.111456  0
C  C27  1  0.85588581  0.17230088  0.62028512  1  0  0.692925  0  3.818296  0  0  0.642694  0  4.105787  0  0  0.679397  0  4.095086  0  0  0.217887  0.617658  0  4.11249  0
C  C28  1  0.68354184  0.44812546  0.82768545  1  0  0.694634  0  3.817167  0  0  0.641905  0  4.106146  0  0  0.67855  0  4.095571  0  0  0.217764  0.616939  0  4.112713  0
C  C29  1  0.23558461  0.37969149  0.55192971  1  0  0.694242  0  3.81769  0  0  0.642216  0  4.105003  0  0  0.678891  0  4.094319  0  0  0.217693  0.617189  0  4.111666  0
C  C30  1  0.33043676  0.91393804  0.44218178  1  0  -0.176906  0  3.755051  0  0  -0.170515  0  4.014036  0  0  -0.180437  0  4.036614  0  0  -0.040909  -0.16286  0  3.997501  0
C  C31  1  0.41654734  0.52817619  0.08608591  1  0  -0.177684  0  3.756364  0  0  -0.171284  0  4.015283  0  0  -0.181322  0  4.038025  0  0  -0.041486  -0.164568  0  3.999949  0
C  C32  1  0.88823361  0.55783653  0.47178855  1  0  -0.185276  0  3.765903  0  0  -0.171614  0  4.015286  0  0  -0.181611  0  4.037884  0  0  -0.041318  -0.164894  0  3.999997  0
C  C33  1  0.66956267  0.08606996  0.55782774  1  0  -0.176628  0  3.755817  0  0  -0.170677  0  4.014144  0  0  -0.18061  0  4.036711  0  0  -0.040948  -0.164073  0  3.999008  0
C  C34  1  0.58345906  0.47183104  0.91392240  1  0  -0.185595  0  3.76629  0  0  -0.171218  0  4.014846  0  0  -0.18125  0  4.037569  0  0  -0.041485  -0.164494  0  3.999494  0
C  C35  1  0.11175681  0.44216530  0.52821552  1  0  -0.185178  0  3.765848  0  0  -0.171608  0  4.015325  0  0  -0.181584  0  4.03795  0  0  -0.041261  -0.164852  0  4.000064  0
C  C36  1  0.30929915  0.01442324  0.47599078  1  0  -0.170554  0  3.70575  0  0  -0.201783  0  3.967602  0  0  -0.204264  0  3.985765  0  0  -0.105817  -0.200352  0  3.955219  0
C  C37  1  0.29485437  0.46161580  0.98562343  1  0  -0.169938  0  3.703681  0  0  -0.200719  0  3.966199  0  0  -0.203285  0  3.984435  0  0  -0.10541  -0.198929  0  3.954056  0
C  C38  1  0.83323659  0.52403132  0.53841466  1  0  -0.169048  0  3.705404  0  0  -0.201873  0  3.966948  0  0  -0.204359  0  3.985142  0  0  -0.105538  -0.200114  0  3.954844  0
C  C39  1  0.69070537  0.98558013  0.52401890  1  0  -0.170927  0  3.704704  0  0  -0.201631  0  3.967138  0  0  -0.20411  0  3.985306  0  0  -0.105765  -0.199908  0  3.955137  0
C  C40  1  0.70514060  0.53838912  0.01438634  1  0  -0.167921  0  3.706885  0  0  -0.200884  0  3.966704  0  0  -0.203425  0  3.984952  0  0  -0.105523  -0.199095  0  3.954552  0
C  C41  1  0.16678056  0.47596511  0.46158271  1  0  -0.169093  0  3.705243  0  0  -0.201916  0  3.966893  0  0  -0.204415  0  3.985059  0  0  -0.105558  -0.200182  0  3.954745  0
C  C42  1  0.52671019  0.89807105  0.46706614  1  0  0.318468  0  3.857461  0  0  0.300877  0  4.124851  0  0  0.312613  0  4.143834  0  0  0.062956  0.292287  0  4.111863  0
C  C43  1  0.62870983  0.56889129  0.10190851  1  0  0.318648  0  3.857148  0  0  0.300917  0  4.124967  0  0  0.312606  0  4.143918  0  0  0.063362  0.292625  0  4.112013  0
C  C44  1  0.05971536  0.53290364  0.43102861  1  0  0.322148  0  3.856857  0  0  0.302226  0  4.124085  0  0  0.314005  0  4.14298  0  0  0.063525  0.293951  0  4.111157  0
C  C45  1  0.47329854  0.10192307  0.53293817  1  0  0.316916  0  3.859784  0  0  0.300973  0  4.124881  0  0  0.312715  0  4.143849  0  0  0.062902  0.292682  0  4.112071  0
C  C46  1  0.37128772  0.43110437  0.89808391  1  0  0.320741  0  3.85788  0  0  0.300769  0  4.124549  0  0  0.312464  0  4.143508  0  0  0.063284  0.292466  0  4.111596  0
C  C47  1  0.94030514  0.46709664  0.56896616  1  0  0.322232  0  3.857159  0  0  0.302381  0  4.124305  0  0  0.314093  0  4.143279  0  0  0.063478  0.294  0  4.111531  0
O  O48  1  0.97115125  0.84813508  0.37864243  1  0  -0.60331  0  2.023535  0  0  -0.536882  0  2.277416  0  0  -0.563774  0  2.261888  0  0  -0.304557  -0.51824  0  2.287741  0
O  O49  1  0.12309351  0.53037435  0.15192830  1  0  -0.602654  0  2.022484  0  0  -0.536319  0  2.276409  0  0  -0.563257  0  2.260951  0  0  -0.303835  -0.517627  0  2.286539  0
O  O50  1  0.59250964  0.62141221  0.46956115  1  0  -0.602723  0  2.021562  0  0  -0.536436  0  2.276079  0  0  -0.563325  0  2.260543  0  0  -0.304323  -0.517776  0  2.286266  0
O  O51  1  0.02885576  0.15186753  0.62136111  1  0  -0.603372  0  2.023267  0  0  -0.536925  0  2.277143  0  0  -0.563817  0  2.261609  0  0  -0.30456  -0.518265  0  2.287355  0
O  O52  1  0.87690803  0.46963211  0.84807537  1  0  -0.602353  0  2.021424  0  0  -0.536187  0  2.276369  0  0  -0.563122  0  2.26091  0  0  -0.303775  -0.517506  0  2.28649  0
O  O53  1  0.40750475  0.37859039  0.53044288  1  0  -0.602841  0  2.021879  0  0  -0.536514  0  2.276369  0  0  -0.563405  0  2.260849  0  0  -0.304394  -0.517846  0  2.286558  0
O  O54  1  0.16968165  0.73587619  0.32801481  1  0  -0.709481  0  2.156795  0  0  -0.629453  0  2.410047  0  0  -0.657466  0  2.393764  0  0  -0.318274  -0.609752  0  2.420525  0
O  O55  1  0.43380008  0.59187128  0.26407338  1  0  -0.708259  0  2.154818  0  0  -0.629238  0  2.410041  0  0  -0.657154  0  2.393658  0  0  -0.318427  -0.609679  0  2.420587  0
O  O56  1  0.84172914  0.67200641  0.40796649  1  0  -0.710565  0  2.154108  0  0  -0.62939  0  2.409039  0  0  -0.657557  0  2.392995  0  0  -0.318163  -0.609748  0  2.419549  0
O  O57  1  0.83032244  0.26412949  0.67198734  1  0  -0.711949  0  2.157978  0  0  -0.629684  0  2.409951  0  0  -0.657713  0  2.393664  0  0  -0.318336  -0.609926  0  2.420276  0
O  O58  1  0.56619569  0.40812361  0.73592450  1  0  -0.707968  0  2.153831  0  0  -0.629226  0  2.410065  0  0  -0.657139  0  2.393666  0  0  -0.318454  -0.609652  0  2.4206  0
O  O59  1  0.15827695  0.32799464  0.59202439  1  0  -0.710494  0  2.154339  0  0  -0.629285  0  2.409229  0  0  -0.657391  0  2.393139  0  0  -0.318048  -0.609641  0  2.419751  0
O  O60  1  0.56620577  0.80522586  0.43967339  1  0  -0.712729  0  2.243466  0  0  -0.623308  0  2.532853  0  0  -0.654194  0  2.520704  0  0  -0.367636  -0.601336  0  2.540595  0
O  O61  1  0.76104582  0.63432732  0.19470148  1  0  -0.713163  0  2.242304  0  0  -0.623757  0  2.531665  0  0  -0.654362  0  2.519228  0  0  -0.367873  -0.601655  0  2.539207  0
O  O62  1  0.12656284  0.56019005  0.36555945  1  0  -0.713147  0  2.243562  0  0  -0.623264  0  2.532869  0  0  -0.654094  0  2.520602  0  0  -0.367693  -0.601259  0  2.540505  0
O  O63  1  0.43379525  0.19477366  0.56032700  1  0  -0.712285  0  2.244094  0  0  -0.623309  0  2.532492  0  0  -0.654187  0  2.520331  0  0  -0.367613  -0.601326  0  2.540133  0
O  O64  1  0.23895198  0.36567759  0.80529924  1  0  -0.712887  0  2.241456  0  0  -0.623659  0  2.531833  0  0  -0.654278  0  2.519408  0  0  -0.36788  -0.601552  0  2.53937  0
O  O65  1  0.87344924  0.43981409  0.63443525  1  0  -0.71312  0  2.243288  0  0  -0.623286  0  2.532645  0  0  -0.654085  0  2.520388  0  0  -0.367618  -0.601248  0  2.540317  0
O  O66  1  0.48109213  0.78042237  0.23519532  1  0  -0.782068  0  1.835462  0  0  -0.728401  0  2.015324  0  0  -0.747235  0  1.989711  0  0  -0.556266  -0.715181  0  2.032984  0
O  O67  1  0.70030685  0.45471797  0.21969135  1  0  -0.781013  0  1.836032  0  0  -0.729105  0  2.015108  0  0  -0.748027  0  1.989403  0  0  -0.556568  -0.715818  0  2.033016  0
O  O68  1  0.24555019  0.76491017  0.54521423  1  0  -0.786857  0  1.825225  0  0  -0.731229  0  2.011186  0  0  -0.75027  0  1.985209  0  0  -0.556088  -0.717849  0  2.029311  0
O  O69  1  0.51889260  0.21957407  0.76480255  1  0  -0.786754  0  1.82323  0  0  -0.728992  0  2.014731  0  0  -0.747887  0  1.98906  0  0  -0.556346  -0.715729  0  2.03263  0
O  O70  1  0.29968971  0.54528155  0.78030544  1  0  -0.781007  0  1.836068  0  0  -0.729042  0  2.015201  0  0  -0.747955  0  1.989514  0  0  -0.556523  -0.715793  0  2.033044  0
O  O71  1  0.75444121  0.23508780  0.45478480  1  0  -0.786724  0  1.825193  0  0  -0.731082  0  2.011265  0  0  -0.750125  0  1.985295  0  0  -0.556003  -0.7177  0  2.029391  0
