# generated using pymatgen
data_AlH5C8O5
_symmetry_space_group_name_H-M   'P 1'
_cell_length_a   6.69641689
_cell_length_b   12.22204672
_cell_length_c   17.24954664
_cell_angle_alpha   90.00006011
_cell_angle_beta   90.00001439
_cell_angle_gamma   90.00017644
_symmetry_Int_Tables_number   1
_chemical_formula_structural   AlH5C8O5
_chemical_formula_sum   'Al4 H20 C32 O20'
_cell_volume   1411.77051629
_cell_formula_units_Z   4
loop_
 _symmetry_equiv_pos_site_id
 _symmetry_equiv_pos_as_xyz
  1  'x, y, z'
loop_
 _atom_site_type_symbol
 _atom_site_label
 _atom_site_symmetry_multiplicity
 _atom_site_fract_x
 _atom_site_fract_y
 _atom_site_fract_z
 _atom_site_occupancy
 _atom_site_pbe_bader_charge
 _atom_site_pbe_bader_spin_density
 _atom_site_pbe_cm5_charge
 _atom_site_pbe_ddec_charge
 _atom_site_pbe_ddec_spin_density
 _atom_site_pbe_ddec_sum_bond_order
 _atom_site_pbe_magmom
Al  Al0  1  0.00000000  0.00000000  0.00000000  1  2.504017  0  0.401201  1.650873  0  2.579266  0
Al  Al1  1  0.00000156  0.49999928  0.49999941  1  2.503953  0  0.401125  1.650842  0  2.579391  0
Al  Al2  1  0.50000023  0.00000042  0.00000003  1  2.503941  0  0.401103  1.650912  0  2.579388  0
Al  Al3  1  0.49999881  0.49999969  0.49999944  1  2.503972  0  0.401189  1.650875  0  2.579258  0
H  H4  1  0.07024256  0.67724201  0.30178500  1  0.063035  0  0.10696  0.108525  0  1.013442  0
H  H5  1  0.07011440  0.78613939  0.17739800  1  0.112807  0  0.10882  0.112271  0  1.008277  0
H  H6  1  0.92975450  0.17724211  0.19821460  1  0.058711  0  0.106946  0.108489  0  1.013507  0
H  H7  1  0.92988178  0.28613885  0.32260226  1  0.108595  0  0.108841  0.112289  0  1.008298  0
H  H8  1  0.57024488  0.32275872  0.69821270  1  0.058724  0  0.106942  0.108521  0  1.013492  0
H  H9  1  0.57011917  0.21386216  0.82260144  1  0.108554  0  0.108823  0.112307  0  1.008279  0
H  H10  1  0.42975627  0.82276004  0.80178778  1  0.063019  0  0.106929  0.108471  0  1.013481  0
H  H11  1  0.42988436  0.71386166  0.67740012  1  0.112747  0  0.108826  0.11228  0  1.008266  0
H  H12  1  0.92975804  0.32275738  0.69821388  1  0.063043  0  0.106947  0.1085  0  1.013438  0
H  H13  1  0.92988620  0.21386082  0.82260146  1  0.112876  0  0.108815  0.112286  0  1.00828  0
H  H14  1  0.07024461  0.82275974  0.80178602  1  0.058707  0  0.106949  0.10849  0  1.013507  0
H  H15  1  0.07011733  0.71386217  0.67739952  1  0.108539  0  0.108819  0.112278  0  1.00833  0
H  H16  1  0.42975422  0.67723985  0.30178676  1  0.058758  0  0.106943  0.108503  0  1.013438  0
H  H17  1  0.42987994  0.78613805  0.17739860  1  0.108535  0  0.108827  0.1123  0  1.00833  0
H  H18  1  0.57024283  0.17724180  0.19821284  1  0.063027  0  0.106949  0.108522  0  1.013476  0
H  H19  1  0.57011625  0.28613937  0.32260108  1  0.112881  0  0.108821  0.112291  0  1.008263  0
H  H20  1  0.75000151  0.14272715  0.01900639  1  0.619767  0  0.358543  0.437647  0  0.840104  0
H  H21  1  0.25000133  0.64272516  0.48099434  1  0.619792  0  0.358561  0.437689  0  0.840071  0
H  H22  1  0.24999910  0.85727470  0.98099365  1  0.61979  0  0.358563  0.437692  0  0.840064  0
H  H23  1  0.74999927  0.35727423  0.51900628  1  0.619783  0  0.358549  0.437677  0  0.840074  0
C  C24  1  0.93130908  0.70167560  0.27389215  1  0.016955  0  -0.079519  -0.091164  0  3.970056  0
C  C25  1  0.93134358  0.76128423  0.20523935  1  -0.036263  0  -0.078652  -0.090254  0  3.966557  0
C  C26  1  0.06868214  0.20167758  0.22610747  1  0.016802  0  -0.079439  -0.09105  0  3.969985  0
C  C27  1  0.06864948  0.26128466  0.29476089  1  -0.036267  0  -0.078714  -0.090316  0  3.966773  0
C  C28  1  0.43131231  0.29832327  0.72610617  1  0.016846  0  -0.079488  -0.091179  0  3.969996  0
C  C29  1  0.43134651  0.23871547  0.79476071  1  -0.036179  0  -0.078681  -0.090345  0  3.966636  0
C  C30  1  0.56869169  0.79832233  0.77389371  1  0.016881  0  -0.079467  -0.091096  0  3.970058  0
C  C31  1  0.56865566  0.73871360  0.70524029  1  -0.036078  0  -0.078661  -0.0903  0  3.966558  0
C  C32  1  0.06869301  0.29832297  0.72610673  1  0.016825  0  -0.079526  -0.091179  0  3.970059  0
C  C33  1  0.06865553  0.23871435  0.79476011  1  -0.036209  0  -0.078633  -0.09029  0  3.966584  0
C  C34  1  0.93131846  0.79832263  0.77389199  1  0.016682  0  -0.079489  -0.091063  0  3.969972  0
C  C35  1  0.93134814  0.73871473  0.70523915  1  -0.036067  0  -0.078677  -0.09034  0  3.966761  0
C  C36  1  0.56868978  0.70167612  0.27389271  1  0.016848  0  -0.079474  -0.091107  0  3.96998  0
C  C37  1  0.56865110  0.76128474  0.20523875  1  -0.036181  0  -0.078692  -0.090367  0  3.966752  0
C  C38  1  0.43130742  0.20167706  0.22610517  1  0.016978  0  -0.079476  -0.091186  0  3.970117  0
C  C39  1  0.43134494  0.26128579  0.29475859  1  -0.036326  0  -0.078633  -0.090253  0  3.966577  0
C  C40  1  0.74999696  0.61100414  0.38378717  1  1.573966  0  0.269627  0.643432  0  4.092705  0
C  C41  1  0.75000160  0.67245288  0.30897479  1  -0.049882  0  -0.010974  -0.037935  0  3.961774  0
C  C42  1  0.75000805  0.86127216  0.09958791  1  1.576457  0  0.267752  0.640949  0  4.10058  0
C  C43  1  0.74999443  0.79200067  0.17089178  1  -0.061476  0  -0.009089  -0.035126  0  3.961558  0
C  C44  1  0.24998329  0.11100625  0.11621123  1  1.573901  0  0.269644  0.643487  0  4.092684  0
C  C45  1  0.24999543  0.17245510  0.19102539  1  -0.049848  0  -0.011064  -0.037975  0  3.961781  0
C  C46  1  0.25000499  0.36127306  0.40041357  1  1.576609  0  0.267808  0.641027  0  4.10057  0
C  C47  1  0.24999731  0.29200065  0.32910732  1  -0.061415  0  -0.009135  -0.035215  0  3.961594  0
C  C48  1  0.25000662  0.38899443  0.61621172  1  1.573993  0  0.269642  0.643462  0  4.092735  0
C  C49  1  0.24999900  0.32754570  0.69102525  1  -0.049886  0  -0.010943  -0.03786  0  3.961679  0
C  C50  1  0.24999554  0.13872887  0.90041156  1  1.576349  0  0.267694  0.640887  0  4.100544  0
C  C51  1  0.25000468  0.20799954  0.82910710  1  -0.061497  0  -0.009112  -0.035102  0  3.961554  0
C  C52  1  0.75001432  0.88899559  0.88379056  1  1.573824  0  0.269656  0.643512  0  4.092668  0
C  C53  1  0.75000367  0.82754593  0.80897523  1  -0.049796  0  -0.01098  -0.037978  0  3.961636  0
C  C54  1  0.74999711  0.63872961  0.59958821  1  1.576603  0  0.267726  0.640941  0  4.100535  0
C  C55  1  0.75000330  0.70799629  0.67089388  1  -0.061486  0  -0.0091  -0.035127  0  3.961534  0
O  O56  1  0.91930164  0.88862531  0.07205271  1  -1.259827  0  -0.236712  -0.595805  0  2.351475  0
O  O57  1  0.91926952  0.58760069  0.41315258  1  -1.263455  0  -0.235348  -0.595686  0  2.351171  0
O  O58  1  0.08068766  0.38862515  0.42794705  1  -1.259822  0  -0.236727  -0.59592  0  2.351298  0
O  O59  1  0.08072404  0.08760166  0.08684754  1  -1.263699  0  -0.235336  -0.595685  0  2.351493  0
O  O60  1  0.41931289  0.11137518  0.92794619  1  -1.259693  0  -0.236738  -0.595914  0  2.351163  0
O  O61  1  0.41926735  0.41240062  0.58684632  1  -1.263586  0  -0.235333  -0.595703  0  2.351444  0
O  O62  1  0.58069902  0.61137396  0.57205471  1  -1.259859  0  -0.236705  -0.595796  0  2.351278  0
O  O63  1  0.58073282  0.91240072  0.91315596  1  -1.263325  0  -0.235333  -0.59574  0  2.351146  0
O  O64  1  0.08069598  0.11137735  0.92794501  1  -1.259781  0  -0.236646  -0.595765  0  2.351381  0
O  O65  1  0.08073257  0.41240115  0.58684689  1  -1.263477  0  -0.235362  -0.595714  0  2.351182  0
O  O66  1  0.91930846  0.61137343  0.57205531  1  -1.259859  0  -0.236748  -0.595901  0  2.351226  0
O  O67  1  0.91927507  0.91239855  0.91315366  1  -1.263594  0  -0.235362  -0.595717  0  2.351501  0
O  O68  1  0.58068921  0.88862666  0.07205211  1  -1.259787  0  -0.236731  -0.595939  0  2.351197  0
O  O69  1  0.58073325  0.58759959  0.41315140  1  -1.263489  0  -0.235343  -0.595688  0  2.35132  0
O  O70  1  0.41930606  0.38862543  0.42794649  1  -1.259943  0  -0.236672  -0.595801  0  2.351503  0
O  O71  1  0.41926330  0.08760113  0.08684466  1  -1.263209  0  -0.235338  -0.595758  0  2.351083  0
O  O72  1  0.74999830  0.06598876  0.00516948  1  -1.420698  0  -0.448116  -0.995441  0  2.200392  0
O  O73  1  0.24999664  0.56598843  0.49483294  1  -1.420716  0  -0.448124  -0.995493  0  2.200396  0
O  O74  1  0.25000081  0.93401227  0.99483172  1  -1.42071  0  -0.448128  -0.995488  0  2.200372  0
O  O75  1  0.75000098  0.43401178  0.50516768  1  -1.420702  0  -0.448116  -0.995465  0  2.200373  0
