# generated using pymatgen
data_CdH28C36(NO)4
_symmetry_space_group_name_H-M   'P 1'
_cell_length_a   9.63243961
_cell_length_b   11.51122234
_cell_length_c   16.67500000
_cell_angle_alpha   73.81705016
_cell_angle_beta   76.52686763
_cell_angle_gamma   66.11170921
_symmetry_Int_Tables_number   1
_chemical_formula_structural   CdH28C36(NO)4
_chemical_formula_sum   'Cd2 H56 C72 N8 O8'
_cell_volume   1608.30722502
_cell_formula_units_Z   2
loop_
 _symmetry_equiv_pos_site_id
 _symmetry_equiv_pos_as_xyz
  1  'x, y, z'
loop_
 _atom_site_type_symbol
 _atom_site_label
 _atom_site_symmetry_multiplicity
 _atom_site_fract_x
 _atom_site_fract_y
 _atom_site_fract_z
 _atom_site_occupancy
 _atom_site_hle17_bader_spin_density
 _atom_site_hle17_ddec_charge
 _atom_site_hle17_ddec_spin_density
 _atom_site_hle17_ddec_sum_bond_order
 _atom_site_hle17_magmom
 _atom_site_hse06_10hf_bader_spin_density
 _atom_site_hse06_10hf_ddec_charge
 _atom_site_hse06_10hf_ddec_spin_density
 _atom_site_hse06_10hf_ddec_sum_bond_order
 _atom_site_hse06_10hf_magmom
 _atom_site_hse06_bader_spin_density
 _atom_site_hse06_ddec_charge
 _atom_site_hse06_ddec_spin_density
 _atom_site_hse06_ddec_sum_bond_order
 _atom_site_hse06_magmom
 _atom_site_pbe_bader_charge
 _atom_site_pbe_bader_spin_density
 _atom_site_pbe_cm5_charge
 _atom_site_pbe_ddec_charge
 _atom_site_pbe_ddec_spin_density
 _atom_site_pbe_ddec_sum_bond_order
 _atom_site_pbe_magmom
Cd  Cd0  1  0.36953088  0.46462528  0.44497866  1  0  1.10859  0  1.725886  0  0  0.911593  0  2.180345  0  0  0.970341  0  2.128415  0  1.277783  0  0.778381  0.86982  0  2.216369  0
Cd  Cd1  1  0.63047025  0.53537410  0.55502041  1  0  1.108537  0  1.725923  0  0  0.911543  0  2.180366  0  0  0.970287  0  2.128441  0  1.277802  0  0.778352  0.869767  0  2.216393  0
H  H2  1  0.65993400  0.46630062  0.07549597  1  0  0.094578  0  0.965604  0  0  0.104411  0  1.030961  0  0  0.107118  0  1.030653  0  0.070305  0  0.097538  0.102643  0  1.031103  0
H  H3  1  0.34006481  0.53370168  0.92450405  1  0  0.094587  0  0.965586  0  0  0.104413  0  1.030947  0  0  0.10712  0  1.030637  0  0.070221  0  0.097548  0.102645  0  1.031088  0
H  H4  1  0.88329814  0.36604739  0.97475594  1  0  0.081011  0  0.958194  0  0  0.093689  0  1.01649  0  0  0.095762  0  1.016109  0  0.043716  0  0.09627  0.092339  0  1.016634  0
H  H5  1  0.11670341  0.63395102  0.02524505  1  0  0.081083  0  0.958133  0  0  0.093735  0  1.016443  0  0  0.095804  0  1.016065  0  0.043728  0  0.096302  0.092386  0  1.016588  0
H  H6  1  0.91232109  0.16282057  0.93489779  1  0  0.084321  0  0.98312  0  0  0.094453  0  1.045654  0  0  0.096669  0  1.046295  0  0.067793  0  0.09296  0.092781  0  1.045583  0
H  H7  1  0.08767790  0.83717881  0.06510277  1  0  0.08428  0  0.983172  0  0  0.094407  0  1.045715  0  0  0.096623  0  1.046357  0  0.067852  0  0.092947  0.092736  0  1.045643  0
H  H8  1  0.71538613  0.06284511  0.99618400  1  0  0.079672  0  0.951529  0  0  0.094001  0  1.006843  0  0  0.09623  0  1.006212  0  0.067237  0  0.096934  0.092333  0  1.007504  0
H  H9  1  0.28461055  0.93715719  0.00381630  1  0  0.079758  0  0.95146  0  0  0.094021  0  1.006843  0  0  0.09626  0  1.0062  0  0.067227  0  0.096942  0.092354  0  1.007503  0
H  H10  1  0.49393844  0.16092379  0.09738613  1  0  0.093191  0  0.96188  0  0  0.105267  0  1.019607  0  0  0.108238  0  1.018702  0  0.096318  0  0.098166  0.103139  0  1.020451  0
H  H11  1  0.50605888  0.83907947  0.90261450  1  0  0.093207  0  0.961849  0  0  0.105277  0  1.019581  0  0  0.108248  0  1.018676  0  0.096343  0  0.098171  0.10315  0  1.020425  0
H  H12  1  0.29224894  0.34096879  0.04861525  1  0  0.09362  0  0.981881  0  0  0.103987  0  1.046465  0  0  0.106466  0  1.046671  0  0.054499  0  0.098393  0.10219  0  1.046456  0
H  H13  1  0.70775071  0.65903157  0.95138324  1  0  0.093617  0  0.981917  0  0  0.103988  0  1.046501  0  0  0.106467  0  1.046708  0  0.054506  0  0.098397  0.102192  0  1.046489  0
H  H14  1  0.02578520  0.35096643  0.07867689  1  0  0.08198  0  0.960039  0  0  0.094825  0  1.01797  0  0  0.097348  0  1.016263  0  0.046109  0  0.097901  0.092854  0  1.019549  0
H  H15  1  0.97421486  0.64903295  0.92132411  1  0  0.081934  0  0.960039  0  0  0.094769  0  1.017985  0  0  0.097301  0  1.016267  0  0.046341  0  0.097867  0.092799  0  1.019562  0
H  H16  1  0.86494588  0.40162478  0.21455363  1  0  0.082111  0  0.969319  0  0  0.091413  0  1.034333  0  0  0.094056  0  1.034548  0  0.057255  0  0.090547  0.089569  0  1.034377  0
H  H17  1  0.13505757  0.59837169  0.78544689  1  0  0.08212  0  0.969293  0  0  0.091454  0  1.034265  0  0  0.094098  0  1.03448  0  0.057242  0  0.090573  0.089609  0  1.034312  0
H  H18  1  0.98303918  0.43371553  0.32211726  1  0  0.094819  0  0.956831  0  0  0.103005  0  1.023227  0  0  0.106132  0  1.020866  0  0.111857  0  0.09708  0.100633  0  1.025033  0
H  H19  1  0.01696260  0.56628483  0.67788213  1  0  0.094756  0  0.956856  0  0  0.102944  0  1.023255  0  0  0.106072  0  1.020892  0  0.111848  0  0.097056  0.100559  0  1.025075  0
H  H20  1  0.84545453  0.30886056  0.74344558  1  0  0.109929  0  0.953282  0  0  0.119132  0  1.015261  0  0  0.121689  0  1.014882  0  0.108888  0  0.101984  0.117252  0  1.015715  0
H  H21  1  0.15454595  0.69113785  0.25655376  1  0  0.109922  0  0.953302  0  0  0.119122  0  1.015283  0  0  0.12168  0  1.014904  0  0.108765  0  0.102007  0.117244  0  1.015731  0
H  H22  1  0.69870499  0.16202709  0.79933226  1  0  0.081135  0  0.981437  0  0  0.092707  0  1.04156  0  0  0.094313  0  1.0423  0  0.045578  0  0.09476  0.092286  0  1.040453  0
H  H23  1  0.30129146  0.83797326  0.20066785  1  0  0.081153  0  0.981458  0  0  0.092718  0  1.041582  0  0  0.094323  0  1.042324  0  0.045599  0  0.094779  0.092297  0  1.040476  0
H  H24  1  0.83573738  0.92355733  0.84603471  1  0  0.082324  0  0.960623  0  0  0.093213  0  1.020906  0  0  0.095625  0  1.02049  0  0.061256  0  0.093658  0.091324  0  1.021353  0
H  H25  1  0.16425990  0.07644108  0.15396746  1  0  0.082313  0  0.960639  0  0  0.093215  0  1.020908  0  0  0.095627  0  1.020493  0  0.061414  0  0.093666  0.091326  0  1.021356  0
H  H26  1  0.12083335  0.83398644  0.83658598  1  0  0.083314  0  0.970426  0  0  0.094067  0  1.031886  0  0  0.095481  0  1.033203  0  0.086681  0  0.0955  0.0922  0  1.032395  0
H  H27  1  0.87916522  0.16601391  0.16341504  1  0  0.083324  0  0.970491  0  0  0.094078  0  1.031939  0  0  0.095492  0  1.033256  0  0.086688  0  0.095496  0.092211  0  1.032449  0
H  H28  1  0.26699135  0.98072085  0.77770952  1  0  0.102505  0  0.942704  0  0  0.114316  0  0.998946  0  0  0.117384  0  0.997899  0  0.029589  0  0.101313  0.112061  0  0.999738  0
H  H29  1  0.73300551  0.01927853  0.22229192  1  0  0.102466  0  0.942692  0  0  0.114314  0  0.998907  0  0  0.117382  0  0.997861  0  0.029569  0  0.101328  0.11206  0  0.999698  0
H  H30  1  0.17493248  0.15068723  0.88407413  1  0  0.098505  0  0.976221  0  0  0.109159  0  1.037606  0  0  0.112393  0  1.037186  0  0.069513  0  0.099324  0.106954  0  1.038038  0
H  H31  1  0.82506586  0.84931118  0.11592550  1  0  0.098511  0  0.976227  0  0  0.109168  0  1.037615  0  0  0.112402  0  1.037196  0  0.069591  0  0.099321  0.106962  0  1.038051  0
H  H32  1  0.33426934  0.19287469  0.96019646  1  0  0.078623  0  0.950409  0  0  0.093019  0  1.005808  0  0  0.095742  0  1.003577  0  0.028532  0  0.097242  0.090953  0  1.007648  0
H  H33  1  0.66572817  0.80712567  0.03980231  1  0  0.07861  0  0.950356  0  0  0.093045  0  1.005712  0  0  0.095773  0  1.003476  0  0.028506  0  0.097241  0.090977  0  1.007554  0
H  H34  1  0.49593698  0.32500111  0.88358856  1  0  0.093584  0  0.963513  0  0  0.101782  0  1.027563  0  0  0.104925  0  1.027436  0  0.063291  0  0.096323  0.099562  0  1.027668  0
H  H35  1  0.50405988  0.67499827  0.11641108  1  0  0.093539  0  0.963534  0  0  0.101731  0  1.027598  0  0  0.104874  0  1.027471  0  0.063256  0  0.096285  0.099512  0  1.0277  0
H  H36  1  0.49367477  0.41242173  0.72971934  1  0  0.102552  0  0.995734  0  0  0.108885  0  1.065557  0  0  0.112881  0  1.061313  0  0.123538  0  0.096628  0.106  0  1.068649  0
H  H37  1  0.50632274  0.58757862  0.27028123  1  0  0.102538  0  0.995729  0  0  0.108868  0  1.065559  0  0  0.112864  0  1.061315  0  0.123517  0  0.096607  0.105985  0  1.068649  0
H  H38  1  0.32922186  0.77178525  0.38279462  1  0  0.082282  0  0.937809  0  0  0.091569  0  1.000083  0  0  0.093083  0  0.999455  0  0.099994  0  0.117746  0.090185  0  1.001083  0
H  H39  1  0.67078094  0.22821025  0.61720437  1  0  0.082227  0  0.937915  0  0  0.091515  0  1.000184  0  0  0.093021  0  0.999572  0  0.100002  0  0.117747  0.090146  0  1.001169  0
H  H40  1  0.11723902  0.98760868  0.37632689  1  0  0.105692  0  0.945463  0  0  0.120115  0  0.998179  0  0  0.122969  0  0.997716  0  0.088205  0  0.111636  0.118159  0  0.998556  0
H  H41  1  0.88276271  0.01238682  0.62367344  1  0  0.105646  0  0.94547  0  0  0.120068  0  0.998192  0  0  0.122921  0  0.99773  0  0.088137  0  0.111612  0.118113  0  0.998567  0
H  H42  1  0.81182690  0.78088647  0.50785560  1  0  0.115876  0  0.962613  0  0  0.123852  0  1.026362  0  0  0.127394  0  1.024361  0  0.111153  0  0.110615  0.121378  0  1.027977  0
H  H43  1  0.18817251  0.21911194  0.49214388  1  0  0.115862  0  0.96263  0  0  0.123852  0  1.026358  0  0  0.127395  0  1.024355  0  0.111161  0  0.110611  0.121375  0  1.027976  0
H  H44  1  0.03416366  0.57963994  0.51191092  1  0  0.101492  0  0.943557  0  0  0.107461  0  1.009986  0  0  0.110499  0  1.006604  0  0.151544  0  0.122722  0.105331  0  1.012475  0
H  H45  1  0.96583659  0.42035653  0.48809063  1  0  0.101604  0  0.9435  0  0  0.107436  0  1.010097  0  0  0.110472  0  1.006715  0  0.1516  0  0.122708  0.105307  0  1.012586  0
H  H46  1  0.66339963  0.95380666  0.53949875  1  0  0.10921  0  0.949998  0  0  0.122143  0  1.00347  0  0  0.125184  0  1.002903  0  0.071711  0  0.112442  0.120159  0  1.003764  0
H  H47  1  0.33660173  0.04619467  0.46049811  1  0  0.109202  0  0.949897  0  0  0.122116  0  1.003391  0  0  0.125157  0  1.002825  0  0.071694  0  0.112456  0.120132  0  1.003685  0
H  H48  1  0.45114153  0.16911887  0.53680115  1  0  0.084381  0  0.939914  0  0  0.092974  0  1.002204  0  0  0.095551  0  1.000252  0  0.115175  0  0.118011  0.091096  0  1.003732  0
H  H49  1  0.54886132  0.83088148  0.46319690  1  0  0.08438  0  0.939938  0  0  0.092983  0  1.00222  0  0  0.09556  0  1.000269  0  0.115122  0  0.118032  0.091105  0  1.003745  0
H  H50  1  0.69940799  0.35187354  0.34558831  1  0  0.089472  0  0.931526  0  0  0.099584  0  0.992347  0  0  0.101463  0  0.990681  0  0.116525  0  0.122224  0.098127  0  0.993717  0
H  H51  1  0.30059337  0.64812778  0.65440856  1  0  0.089458  0  0.931433  0  0  0.099573  0  0.992258  0  0  0.101451  0  0.990593  0  0.116605  0  0.122231  0.098117  0  0.993626  0
H  H52  1  0.92142532  0.14531352  0.33740541  1  0  0.109543  0  0.958516  0  0  0.118867  0  1.020668  0  0  0.121776  0  1.020328  0  0.091802  0  0.111309  0.116962  0  1.02076  0
H  H53  1  0.07858032  0.85468780  0.66259448  1  0  0.109589  0  0.958547  0  0  0.118918  0  1.020687  0  0  0.121827  0  1.020346  0  0.091873  0  0.111313  0.117013  0  1.02078  0
H  H54  1  0.14389678  0.28832431  0.65986480  1  0  0.2945  0  0.94492  0  0  0.274886  0  1.012838  0  0  0.283138  0  1.00633  0  0.49998  0  0.297355  0.26881  0  1.017947  0
H  H55  1  0.85610287  0.71167605  0.34013308  1  0  0.29452  0  0.944915  0  0  0.274894  0  1.012857  0  0  0.283144  0  1.006351  0  0.499999  0  0.297349  0.26882  0  1.017961  0
H  H56  1  0.46055244  0.42028757  0.19247373  1  0  0.294842  0  0.938524  0  0  0.279083  0  0.997727  0  0  0.28754  0  0.990931  0  0.499536  0  0.300594  0.273125  0  1.002577  0
H  H57  1  0.53944489  0.57971570  0.80752630  1  0  0.29488  0  0.938497  0  0  0.279106  0  0.997701  0  0  0.287564  0  0.990901  0  0.499562  0  0.300607  0.273149  0  1.00255  0
C  C58  1  0.67321809  0.37717164  0.05831361  1  0  -0.179987  0  3.737201  0  0  -0.197973  0  3.987804  0  0  -0.203391  0  4.008297  0  -0.086875  0  -0.103651  -0.194129  0  3.974138  0
C  C59  1  0.32678304  0.62282774  0.94168845  1  0  -0.179965  0  3.737168  0  0  -0.197932  0  3.987777  0  0  -0.20335  0  4.008268  0  -0.086852  0  -0.103649  -0.194089  0  3.974112  0
C  C60  1  0.79878997  0.32013146  0.00214048  1  0  -0.054558  0  3.80651  0  0  -0.067922  0  4.056584  0  0  -0.067475  0  4.077347  0  -0.001494  0  -0.095451  -0.068217  0  4.04262  0
C  C61  1  0.20121181  0.67986889  0.99786131  1  0  -0.054657  0  3.806626  0  0  -0.067999  0  4.056697  0  0  -0.067548  0  4.077455  0  -0.001474  0  -0.09548  -0.068293  0  4.042734  0
C  C62  1  0.81502596  0.20700095  0.97918648  1  0  -0.100434  0  3.796444  0  0  -0.116053  0  4.047349  0  0  -0.119787  0  4.069888  0  -0.015577  0  -0.106985  -0.113889  0  4.032468  0
C  C63  1  0.18497238  0.79299747  0.02081615  1  0  -0.10037  0  3.796424  0  0  -0.115978  0  4.04729  0  0  -0.119711  0  4.06983  0  -0.015738  0  -0.106997  -0.113815  0  4.032411  0
C  C64  1  0.70356625  0.15158755  0.01324906  1  0  -0.056893  0  3.82136  0  0  -0.070021  0  4.072433  0  0  -0.070057  0  4.094659  0  -0.065149  0  -0.095371  -0.069759  0  4.057452  0
C  C65  1  0.29643340  0.84841281  0.98675301  1  0  -0.056978  0  3.821136  0  0  -0.07005  0  4.072195  0  0  -0.070097  0  4.09442  0  -0.06519  0  -0.095347  -0.069789  0  4.057217  0
C  C66  1  0.57754701  0.20749238  0.06957910  1  0  -0.190036  0  3.762493  0  0  -0.206013  0  4.010043  0  0  -0.212006  0  4.031269  0  -0.125429  0  -0.105672  -0.202389  0  3.995615  0
C  C67  1  0.42245453  0.79250603  0.93042250  1  0  -0.190052  0  3.762364  0  0  -0.206014  0  4.009901  0  0  -0.212007  0  4.031131  0  -0.125353  0  -0.105703  -0.20239  0  3.995474  0
C  C68  1  0.56025348  0.32187673  0.09265789  1  0  0.248522  0  3.821987  0  0  0.243887  0  4.068427  0  0  0.252999  0  4.08992  0  0.361297  0  0.093448  0.237996  0  4.053525  0
C  C69  1  0.43974765  0.67812266  0.90734358  1  0  0.248587  0  3.821836  0  0  0.243912  0  4.0683  0  0  0.253022  0  4.089793  0  0.361401  0  0.093487  0.238023  0  4.053399  0
C  C70  1  0.29300757  0.37842741  0.16861652  1  0  0.260011  0  3.788906  0  0  0.243893  0  4.039053  0  0  0.257211  0  4.058849  0  0.426608  0  0.10698  0.23516  0  4.025255  0
C  C71  1  0.70699189  0.62157585  0.83138263  1  0  0.260236  0  3.788862  0  0  0.244134  0  4.038935  0  0  0.257454  0  4.058728  0  0.426481  0  0.107048  0.235393  0  4.025151  0
C  C72  1  0.22592236  0.35745509  0.10959526  1  0  -0.20334  0  3.770669  0  0  -0.219621  0  4.023815  0  0  -0.228084  0  4.045038  0  -0.049891  0  -0.110074  -0.213878  0  4.009066  0
C  C73  1  0.77407687  0.64254624  0.89040369  1  0  -0.203351  0  3.770804  0  0  -0.219649  0  4.023945  0  0  -0.228113  0  4.045172  0  -0.049722  0  -0.110065  -0.213904  0  4.009196  0
C  C74  1  0.07492663  0.36454104  0.12652538  1  0  -0.045935  0  3.82351  0  0  -0.058864  0  4.070986  0  0  -0.055197  0  4.090434  0  -0.033289  0  -0.094333  -0.060651  0  4.057304  0
C  C75  1  0.92506940  0.63546028  0.87347520  1  0  -0.04597  0  3.823435  0  0  -0.058893  0  4.070925  0  0  -0.055234  0  4.090372  0  -0.033492  0  -0.094351  -0.06068  0  4.057243  0
C  C76  1  0.98491287  0.39175534  0.20304220  1  0  -0.123856  0  3.822693  0  0  -0.138752  0  4.081612  0  0  -0.14614  0  4.10556  0  -0.063411  0  -0.118266  -0.134085  0  4.065079  0
C  C77  1  0.01508677  0.60824502  0.79695628  1  0  -0.123799  0  3.822586  0  0  -0.138714  0  4.081485  0  0  -0.146106  0  4.105443  0  -0.06345  0  -0.118237  -0.134046  0  4.064949  0
C  C78  1  0.04977303  0.41090664  0.26225906  1  0  -0.049703  0  3.773236  0  0  -0.075521  0  4.026985  0  0  -0.070697  0  4.045872  0  -0.045596  0  -0.09351  -0.078323  0  4.013834  0
C  C79  1  0.95022684  0.58909565  0.73774081  1  0  -0.049648  0  3.773385  0  0  -0.075474  0  4.027153  0  0  -0.07065  0  4.04604  0  -0.045532  0  -0.093516  -0.078267  0  4.014006  0
C  C80  1  0.20203016  0.40490748  0.24704843  1  0  -0.185595  0  3.723075  0  0  -0.165782  0  3.962535  0  0  -0.178804  0  3.983717  0  -0.055523  0  -0.037277  -0.157429  0  3.9481  0
C  C81  1  0.79796888  0.59509676  0.75294998  1  0  -0.185658  0  3.723029  0  0  -0.165856  0  3.962499  0  0  -0.178877  0  3.98368  0  -0.055624  0  -0.037265  -0.157498  0  3.94806  0
C  C82  1  0.26227062  0.42840592  0.31331208  1  0  0.631727  0  3.93334  0  0  0.582274  0  4.227185  0  0  0.618627  0  4.218605  0  1.510801  0  0.185478  0.557836  0  4.232068  0
C  C83  1  0.73773158  0.57159346  0.68668684  1  0  0.63183  0  3.933232  0  0  0.582369  0  4.227091  0  0  0.61872  0  4.218512  0  1.510799  0  0.18552  0.557932  0  4.231976  0
C  C84  1  0.06539400  0.15389611  0.75607638  1  0  0.225211  0  3.820453  0  0  0.222504  0  4.070325  0  0  0.229012  0  4.092483  0  0.335293  0  0.085888  0.217903  0  4.055505  0
C  C85  1  0.93460180  0.84610327  0.24392281  1  0  0.225204  0  3.820532  0  0  0.222489  0  4.070419  0  0  0.228999  0  4.092576  0  0.335198  0  0.085845  0.217888  0  4.0556  0
C  C86  1  0.90526103  0.20449814  0.76255974  1  0  -0.153282  0  3.716108  0  0  -0.172275  0  3.963724  0  0  -0.176097  0  3.984354  0  -0.074141  0  -0.095209  -0.170635  0  3.950965  0
C  C87  1  0.09473689  0.79550125  0.23743976  1  0  -0.153306  0  3.716112  0  0  -0.17229  0  3.963714  0  0  -0.17611  0  3.984343  0  -0.073602  0  -0.095201  -0.170648  0  3.950955  0
C  C88  1  0.82337700  0.12145962  0.79427405  1  0  -0.063347  0  3.802095  0  0  -0.073059  0  4.046177  0  0  -0.074511  0  4.068738  0  -0.030793  0  -0.095442  -0.072953  0  4.031482  0
C  C89  1  0.17662158  0.87854074  0.20572518  1  0  -0.063394  0  3.80209  0  0  -0.073099  0  4.046165  0  0  -0.074552  0  4.068727  0  -0.031149  0  -0.095491  -0.072994  0  4.031471  0
C  C90  1  0.89995324  0.98821083  0.82089703  1  0  -0.100688  0  3.794144  0  0  -0.113759  0  4.040224  0  0  -0.116896  0  4.062455  0  -0.01831  0  -0.102673  -0.110476  0  4.024617  0
C  C91  1  0.10004385  0.01179050  0.17910280  1  0  -0.100664  0  3.794251  0  0  -0.113743  0  4.040313  0  0  -0.116881  0  4.062547  0  -0.018477  0  -0.102707  -0.110461  0  4.024706  0
C  C92  1  0.05982140  0.93768844  0.81547567  1  0  -0.063983  0  3.807857  0  0  -0.075137  0  4.056277  0  0  -0.076474  0  4.080016  0  -0.097983  0  -0.095785  -0.074195  0  4.039699  0
C  C93  1  0.94017783  0.06231288  0.18452448  1  0  -0.064035  0  3.807887  0  0  -0.075194  0  4.056309  0  0  -0.076529  0  4.080042  0  -0.097959  0  -0.095777  -0.074253  0  4.039734  0
C  C94  1  0.14229717  0.01987000  0.78279226  1  0  -0.165211  0  3.746258  0  0  -0.185341  0  3.997281  0  0  -0.189575  0  4.01778  0  0.018311  0  -0.097141  -0.18146  0  3.982429  0
C  C95  1  0.85770117  0.98012841  0.21720736  1  0  -0.165126  0  3.74608  0  0  -0.185284  0  3.99712  0  0  -0.189518  0  4.01762  0  0.018297  0  -0.097121  -0.181404  0  3.98227  0
C  C96  1  0.24530065  0.20771284  0.85000900  1  0  -0.202265  0  3.747312  0  0  -0.216523  0  3.995182  0  0  -0.225774  0  4.016144  0  -0.041145  0  -0.111864  -0.211233  0  3.981221  0
C  C97  1  0.75469538  0.79228848  0.14999098  1  0  -0.202222  0  3.747267  0  0  -0.216509  0  3.995143  0  0  -0.225759  0  4.016109  0  -0.041166  0  -0.111853  -0.21122  0  3.981184  0
C  C98  1  0.33455605  0.23243793  0.89256637  1  0  -0.035664  0  3.817717  0  0  -0.050777  0  4.065468  0  0  -0.046398  0  4.084723  0  -0.051471  0  -0.091595  -0.052988  0  4.052259  0
C  C99  1  0.66543998  0.76756340  0.10743301  1  0  -0.035628  0  3.817552  0  0  -0.050762  0  4.06529  0  0  -0.046387  0  4.084548  0  -0.051483  0  -0.091573  -0.052974  0  4.052082  0
C  C100  1  0.42425920  0.30737558  0.85001496  1  0  -0.132787  0  3.822635  0  0  -0.146384  0  4.083124  0  0  -0.153846  0  4.104873  0  -0.061996  0  -0.118948  -0.141772  0  4.067406  0
C  C101  1  0.57573789  0.69262575  0.14998428  1  0  -0.132736  0  3.822516  0  0  -0.146331  0  4.083018  0  0  -0.153792  0  4.104769  0  -0.061981  0  -0.118897  -0.141718  0  4.067299  0
C  C102  1  0.42346591  0.35531357  0.76382808  1  0  -0.061056  0  3.778058  0  0  -0.086965  0  4.031762  0  0  -0.08141  0  4.049036  0  -0.081105  0  -0.096377  -0.08992  0  4.019051  0
C  C103  1  0.57653267  0.64468679  0.23617294  1  0  -0.061076  0  3.778029  0  0  -0.086987  0  4.031745  0  0  -0.081434  0  4.049019  0  -0.080938  0  -0.096419  -0.089944  0  4.019031  0
C  C104  1  0.33497216  0.33189671  0.71817468  1  0  -0.214269  0  3.755753  0  0  -0.19338  0  3.998233  0  0  -0.209089  0  4.021729  0  -0.04044  0  -0.044888  -0.182772  0  3.981853  0
C  C105  1  0.66502279  0.66810462  0.28182485  1  0  -0.214221  0  3.755687  0  0  -0.193343  0  3.998143  0  0  -0.209051  0  4.02164  0  -0.040625  0  -0.044781  -0.182735  0  3.981762  0
C  C106  1  0.24170414  0.25717855  0.76227729  1  0  0.278179  0  3.79404  0  0  0.261635  0  4.041459  0  0  0.276521  0  4.060135  0  0.475973  0  0.113261  0.252611  0  4.02786  0
C  C107  1  0.75829254  0.74282375  0.23772182  1  0  0.278011  0  3.794133  0  0  0.261513  0  4.041518  0  0  0.276397  0  4.060197  0  0.475932  0  0.113184  0.252491  0  4.027916  0
C  C108  1  0.34226310  0.38433238  0.62609439  1  0  0.639599  0  3.914232  0  0  0.58819  0  4.205907  0  0  0.624799  0  4.197916  0  1.485864  0  0.189807  0.56325  0  4.210669  0
C  C109  1  0.65773696  0.61566701  0.37390543  1  0  0.639642  0  3.914322  0  0  0.588243  0  4.205991  0  0  0.624851  0  4.198001  0  1.485917  0  0.189799  0.5633  0  4.210754  0
C  C110  1  0.21208308  0.78008619  0.41015522  1  0  0.135024  0  3.720341  0  0  0.102885  0  3.976815  0  0  0.110039  0  3.996558  0  0.498052  0  0.049979  0.098205  0  3.963468  0
C  C111  1  0.78791758  0.21990931  0.58984525  1  0  0.135039  0  3.720416  0  0  0.102914  0  3.976882  0  0  0.110071  0  3.99662  0  0.497985  0  0.049988  0.098224  0  3.96353  0
C  C112  1  0.09278746  0.89983453  0.40649037  1  0  -0.149467  0  3.721833  0  0  -0.169168  0  3.971271  0  0  -0.176468  0  3.993399  0  -0.007593  0  -0.076857  -0.164431  0  3.956247  0
C  C113  1  0.90721492  0.10016194  0.59350849  1  0  -0.149417  0  3.721851  0  0  -0.16912  0  3.971266  0  0  -0.176418  0  3.993391  0  -0.007505  0  -0.076828  -0.164385  0  3.956246  0
C  C114  1  0.94340155  0.90525389  0.44098678  1  0  0.0841  0  3.759329  0  0  0.095479  0  3.991205  0  0  0.098891  0  4.012752  0  -0.066253  0  0.011034  0.093413  0  3.976473  0
C  C115  1  0.05660213  0.09474452  0.55901393  1  0  0.084166  0  3.759313  0  0  0.095556  0  3.991172  0  0  0.098968  0  4.012719  0  -0.06622  0  0.011086  0.093491  0  3.976439  0
C  C116  1  0.92280023  0.78728286  0.47936183  1  0  -0.13518  0  3.669351  0  0  -0.154716  0  3.915961  0  0  -0.16098  0  3.934772  0  0.054161  0  -0.075533  -0.150177  0  3.903182  0
C  C117  1  0.07720048  0.21271749  0.52063711  1  0  -0.135195  0  3.669394  0  0  -0.154736  0  3.915973  0  0  -0.160998  0  3.934779  0  0.054188  0  -0.075548  -0.150194  0  3.903194  0
C  C118  1  0.04803250  0.67176511  0.48130913  1  0  0.143549  0  3.678212  0  0  0.110759  0  3.93059  0  0  0.118299  0  3.947838  0  0.462517  0  0.05367  0.10557  0  3.918856  0
C  C119  1  0.95196798  0.32823330  0.51869201  1  0  0.143465  0  3.678499  0  0  0.11074  0  3.930911  0  0  0.118282  0  3.948161  0  0.462405  0  0.053677  0.10555  0  3.919174  0
C  C120  1  0.81287438  0.03004440  0.43875275  1  0  0.099831  0  3.76191  0  0  0.111411  0  3.991838  0  0  0.115802  0  4.012825  0  0.001707  0  0.015898  0.108314  0  3.97784  0
C  C121  1  0.18713019  0.96995692  0.56124788  1  0  0.099812  0  3.761878  0  0  0.111388  0  3.9918  0  0  0.115778  0  4.012787  0  0.002059  0  0.015864  0.108291  0  3.977805  0
C  C122  1  0.67626919  0.03865807  0.49406983  1  0  -0.166174  0  3.725492  0  0  -0.183909  0  3.971571  0  0  -0.191536  0  3.992695  0  0.00024  0  -0.082495  -0.179302  0  3.957024  0
C  C123  1  0.32373579  0.96134228  0.50592973  1  0  -0.166162  0  3.725405  0  0  -0.18387  0  3.971497  0  0  -0.191497  0  3.992624  0  -0.000144  0  -0.082546  -0.179263  0  3.956949  0
C  C124  1  0.55754929  0.15818207  0.49332958  1  0  0.120067  0  3.735046  0  0  0.089619  0  3.989161  0  0  0.096362  0  4.008215  0  0.439989  0  0.045306  0.085477  0  3.975601  0
C  C125  1  0.44245463  0.84181829  0.50667012  1  0  0.120032  0  3.735262  0  0  0.089563  0  3.989393  0  0  0.096306  0  4.00845  0  0.439957  0  0.045296  0.085424  0  3.975829  0
C  C126  1  0.69684866  0.26060304  0.38685196  1  0  0.147107  0  3.682406  0  0  0.115687  0  3.932477  0  0  0.123523  0  3.950287  0  0.476732  0  0.055841  0.11058  0  3.920038  0
C  C127  1  0.30315697  0.73939829  0.61314793  1  0  0.147211  0  3.682349  0  0  0.115787  0  3.932428  0  0  0.123623  0  3.950237  0  0.476205  0  0.055825  0.110679  0  3.919989  0
C  C128  1  0.82082514  0.14483569  0.38353348  1  0  -0.146375  0  3.686991  0  0  -0.164814  0  3.932789  0  0  -0.171996  0  3.95347  0  0.000995  0  -0.073525  -0.159611  0  3.918412  0
C  C129  1  0.17918197  0.85516467  0.61646879  1  0  -0.14654  0  3.687029  0  0  -0.16499  0  3.932841  0  0  -0.17217  0  3.953517  0  0.001034  0  -0.073554  -0.159788  0  3.918468  0
N  N130  1  0.14874284  0.23716287  0.72113030  1  0  -0.440446  0  3.39363  0  0  -0.385923  0  3.635846  0  0  -0.407218  0  3.647949  0  -1.310627  0  -0.421181  -0.371857  0  3.627379  0
N  N131  1  0.85125402  0.76283652  0.27886994  1  0  -0.440343  0  3.393633  0  0  -0.385847  0  3.635867  0  0  -0.407142  0  3.647971  0  -1.310565  0  -0.421129  -0.371776  0  3.62739  0
N  N132  1  0.43950505  0.37941805  0.15110011  1  0  -0.428558  0  3.393965  0  0  -0.371662  0  3.629025  0  0  -0.393265  0  3.641024  0  -1.282092  0  -0.416539  -0.356531  0  3.620282  0
N  N133  1  0.56049654  0.62058522  0.84889755  1  0  -0.428835  0  3.394033  0  0  -0.371887  0  3.629052  0  0  -0.393487  0  3.641042  0  -1.282112  0  -0.416643  -0.356755  0  3.620316  0
N  N134  1  0.19024756  0.66809588  0.44686864  1  0  -0.329316  0  3.277372  0  0  -0.248913  0  3.54327  0  0  -0.270086  0  3.563275  0  -1.246954  0  -0.331797  -0.233941  0  3.529312  0
N  N135  1  0.80975482  0.33190059  0.55313142  1  0  -0.32927  0  3.277558  0  0  -0.248854  0  3.543383  0  0  -0.270028  0  3.563389  0  -1.246897  0  -0.331777  -0.233883  0  3.52943  0
N  N136  1  0.56782823  0.26756468  0.44109365  1  0  -0.317333  0  3.272052  0  0  -0.240404  0  3.536334  0  0  -0.260605  0  3.555694  0  -1.225415  0  -0.328921  -0.225947  0  3.522395  0
N  N137  1  0.43217527  0.73243665  0.55890592  1  0  -0.317295  0  3.272255  0  0  -0.240347  0  3.536518  0  0  -0.26055  0  3.555882  0  -1.224985  0  -0.328868  -0.225891  0  3.522577  0
O  O138  1  0.38189120  0.45977700  0.29334416  1  0  -0.653438  0  1.982082  0  0  -0.589984  0  2.214552  0  0  -0.617584  0  2.203826  0  -1.178889  0  -0.330691  -0.571144  0  2.221611  0
O  O139  1  0.61811035  0.54022141  0.70665684  1  0  -0.65348  0  1.982013  0  0  -0.590022  0  2.214498  0  0  -0.617619  0  2.203769  0  -1.178857  0  -0.330689  -0.57118  0  2.221558  0
O  O140  1  0.19377729  0.41762548  0.38892604  1  0  -0.646784  0  1.972977  0  0  -0.58715  0  2.220521  0  0  -0.61591  0  2.211094  0  -1.171619  0  -0.334273  -0.567234  0  2.226506  0
O  O141  1  0.80622319  0.58237293  0.61107330  1  0  -0.646814  0  1.972934  0  0  -0.587205  0  2.220505  0  0  -0.615964  0  2.211079  0  -1.171667  0  -0.334325  -0.567287  0  2.226491  0
O  O142  1  0.25642695  0.37043532  0.58353687  1  0  -0.637361  0  1.970212  0  0  -0.573727  0  2.209928  0  0  -0.600013  0  2.198663  0  -1.172795  0  -0.324166  -0.555326  0  2.217174  0
O  O143  1  0.74357418  0.62956406  0.41646220  1  0  -0.637394  0  1.970261  0  0  -0.573756  0  2.209964  0  0  -0.600038  0  2.1987  0  -1.17282  0  -0.324173  -0.555363  0  2.217233  0
O  O144  1  0.43631377  0.44219226  0.58760011  1  0  -0.69326  0  2.076822  0  0  -0.621165  0  2.352815  0  0  -0.652089  0  2.340031  0  -1.202029  0  -0.345658  -0.59987  0  2.361357  0
O  O145  1  0.56368481  0.55780810  0.41240032  1  0  -0.693262  0  2.076851  0  0  -0.621156  0  2.352813  0  0  -0.65208  0  2.340032  0  -1.202063  0  -0.345654  -0.599858  0  2.361355  0
