# generated using pymatgen
data_Na2H8C4N8O3
_symmetry_space_group_name_H-M   'P 1'
_cell_length_a   7.72640116
_cell_length_b   8.89120435
_cell_length_c   8.89123798
_cell_angle_alpha   100.95425684
_cell_angle_beta   111.76950974
_cell_angle_gamma   111.76937159
_symmetry_Int_Tables_number   1
_chemical_formula_structural   Na2H8C4N8O3
_chemical_formula_sum   'Na4 H16 C8 N16 O6'
_cell_volume   487.31198715
_cell_formula_units_Z   2
loop_
 _symmetry_equiv_pos_site_id
 _symmetry_equiv_pos_as_xyz
  1  'x, y, z'
loop_
 _atom_site_type_symbol
 _atom_site_label
 _atom_site_symmetry_multiplicity
 _atom_site_fract_x
 _atom_site_fract_y
 _atom_site_fract_z
 _atom_site_occupancy
 _atom_site_hle17_bader_spin_density
 _atom_site_hle17_ddec_charge
 _atom_site_hle17_ddec_spin_density
 _atom_site_hle17_ddec_sum_bond_order
 _atom_site_hle17_magmom
 _atom_site_hse06_10hf_bader_spin_density
 _atom_site_hse06_10hf_ddec_charge
 _atom_site_hse06_10hf_ddec_spin_density
 _atom_site_hse06_10hf_ddec_sum_bond_order
 _atom_site_hse06_10hf_magmom
 _atom_site_hse06_bader_spin_density
 _atom_site_hse06_ddec_charge
 _atom_site_hse06_ddec_spin_density
 _atom_site_hse06_ddec_sum_bond_order
 _atom_site_hse06_magmom
 _atom_site_pbe_bader_spin_density
 _atom_site_pbe_cm5_charge
 _atom_site_pbe_ddec_charge
 _atom_site_pbe_ddec_spin_density
 _atom_site_pbe_ddec_sum_bond_order
 _atom_site_pbe_magmom
Na  Na0  1  0.60091733  0.87715656  0.71984233  1  0  0.862275  0  0.407788  0  0  0.786086  0  0.597678  0  0  0.79882  0  0.574206  0  0  0.665807  0.776918  0  0.614316  0
Na  Na1  1  0.89908272  0.28015672  0.12284313  1  0  0.862271  0  0.407776  0  0  0.786076  0  0.597673  0  0  0.798811  0  0.574201  0  0  0.665797  0.776909  0  0.614311  0
Na  Na2  1  0.39908378  0.12284284  0.28015624  1  0  0.862262  0  0.407805  0  0  0.786081  0  0.597684  0  0  0.798813  0  0.574211  0  0  0.665805  0.776917  0  0.614315  0
Na  Na3  1  0.10091561  0.71984267  0.87715567  1  0  0.862269  0  0.4078  0  0  0.786078  0  0.597698  0  0  0.798811  0  0.574224  0  0  0.665797  0.776917  0  0.614325  0
H  H4  1  0.63768785  0.91009437  0.05865133  1  0  0.395557  0  0.919617  0  0  0.359561  0  0.993121  0  0  0.370168  0  0.97782  0  0  0.28971  0.352113  0  1.003843  0
H  H5  1  0.86231100  0.94134658  0.08990127  1  0  0.39561  0  0.91955  0  0  0.359625  0  0.993032  0  0  0.37023  0  0.977733  0  0  0.289717  0.352177  0  1.003754  0
H  H6  1  0.36230879  0.08989979  0.94134479  1  0  0.395625  0  0.91953  0  0  0.35964  0  0.993012  0  0  0.370246  0  0.977712  0  0  0.289724  0.352192  0  1.003734  0
H  H7  1  0.13768872  0.05865282  0.91009573  1  0  0.39556  0  0.919606  0  0  0.359571  0  0.993099  0  0  0.370177  0  0.977799  0  0  0.28971  0.352123  0  1.003822  0
H  H8  1  0.16243971  0.66664809  0.55151893  1  0  0.384946  0  0.938867  0  0  0.347525  0  1.015432  0  0  0.35785  0  1.000426  0  0  0.285138  0.340278  0  1.025953  0
H  H9  1  0.33756012  0.44847929  0.33335132  1  0  0.384961  0  0.938849  0  0  0.347538  0  1.015417  0  0  0.357862  0  1.000411  0  0  0.285142  0.34029  0  1.025937  0
H  H10  1  0.83756078  0.33335262  0.44848082  1  0  0.384941  0  0.938875  0  0  0.347512  0  1.015452  0  0  0.357837  0  1.000446  0  0  0.285133  0.340265  0  1.025973  0
H  H11  1  0.66243898  0.55152141  0.66664911  1  0  0.384966  0  0.938841  0  0  0.347542  0  1.015411  0  0  0.357865  0  1.000406  0  0  0.285144  0.340295  0  1.025932  0
H  H12  1  0.18705932  0.54799077  0.65602357  1  0  0.387257  0  0.930141  0  0  0.351917  0  1.005324  0  0  0.361937  0  0.990595  0  0  0.28693  0.344878  0  1.015662  0
H  H13  1  0.31294152  0.34397705  0.45200976  1  0  0.387235  0  0.930189  0  0  0.351892  0  1.005367  0  0  0.361913  0  0.990635  0  0  0.286915  0.344853  0  1.015704  0
H  H14  1  0.81294179  0.45200863  0.34397500  1  0  0.387243  0  0.930183  0  0  0.351901  0  1.005354  0  0  0.361922  0  0.990623  0  0  0.286916  0.344861  0  1.015693  0
H  H15  1  0.68705897  0.65602365  0.54798999  1  0  0.387251  0  0.93016  0  0  0.351909  0  1.005342  0  0  0.36193  0  0.99061  0  0  0.286917  0.344869  0  1.01568  0
H  H16  1  0.51705736  0.60209284  0.87935062  1  0  0.111015  0  0.947383  0  0  0.125384  0  1.00561  0  0  0.128258  0  1.003487  0  0  0.120211  0.123231  0  1.007372  0
H  H17  1  0.98294811  0.12065530  0.39790636  1  0  0.111093  0  0.947329  0  0  0.125452  0  1.005546  0  0  0.128324  0  1.003424  0  0  0.12023  0.123298  0  1.00731  0
H  H18  1  0.48294362  0.39790393  0.12065303  1  0  0.111042  0  0.947463  0  0  0.125406  0  1.00568  0  0  0.128277  0  1.003556  0  0  0.120222  0.123252  0  1.007444  0
H  H19  1  0.01705314  0.87934672  0.60209051  1  0  0.111029  0  0.947331  0  0  0.125406  0  1.005557  0  0  0.12828  0  1.003434  0  0  0.1202  0.123252  0  1.007321  0
C  C20  1  0.50772824  0.35280791  0.81877904  1  0  0.317207  0  3.833468  0  0  0.289891  0  4.107198  0  0  0.300449  0  4.124783  0  0  0.215484  0.282953  0  4.095098  0
C  C21  1  0.99227191  0.18122530  0.64720035  1  0  0.31731  0  3.833458  0  0  0.289978  0  4.107195  0  0  0.300534  0  4.124778  0  0  0.215499  0.283041  0  4.095091  0
C  C22  1  0.49227302  0.64719411  0.18122121  1  0  0.317244  0  3.833405  0  0  0.2899  0  4.107184  0  0  0.300457  0  4.12477  0  0  0.215506  0.28296  0  4.095085  0
C  C23  1  0.00773522  0.81878194  0.35280841  1  0  0.317155  0  3.833562  0  0  0.289845  0  4.107312  0  0  0.300401  0  4.124898  0  0  0.215436  0.282909  0  4.095206  0
C  C24  1  0.50660772  0.49586969  0.92602208  1  0  -0.110589  0  3.685352  0  0  -0.137722  0  3.952849  0  0  -0.139262  0  3.969608  0  0  -0.072887  -0.136689  0  3.941537  0
C  C25  1  0.99339291  0.07397757  0.50413103  1  0  -0.110842  0  3.685473  0  0  -0.137937  0  3.952964  0  0  -0.139476  0  3.969724  0  0  -0.072927  -0.136906  0  3.941653  0
C  C26  1  0.49338880  0.50412184  0.07397800  1  0  -0.110673  0  3.685424  0  0  -0.13778  0  3.952901  0  0  -0.139319  0  3.969661  0  0  -0.072903  -0.136748  0  3.941591  0
C  C27  1  0.00660709  0.92602705  0.49586820  1  0  -0.110559  0  3.685503  0  0  -0.1377  0  3.952955  0  0  -0.139242  0  3.969719  0  0  -0.072865  -0.136666  0  3.941639  0
N  N28  1  0.51514202  0.21248569  0.85185334  1  0  -0.368886  0  3.03833  0  0  -0.31745  0  3.304799  0  0  -0.331341  0  3.318664  0  0  -0.236903  -0.308049  0  3.295385  0
N  N29  1  0.98485881  0.14814779  0.78751395  1  0  -0.368863  0  3.03839  0  0  -0.317428  0  3.30486  0  0  -0.331319  0  3.318726  0  0  -0.236908  -0.308026  0  3.295445  0
N  N30  1  0.48485910  0.78751371  0.14814636  1  0  -0.368817  0  3.038326  0  0  -0.317363  0  3.304792  0  0  -0.331254  0  3.318659  0  0  -0.236873  -0.307963  0  3.295378  0
N  N31  1  0.01514462  0.85185553  0.21248836  1  0  -0.368821  0  3.038417  0  0  -0.317379  0  3.304874  0  0  -0.33127  0  3.318742  0  0  -0.236887  -0.30798  0  3.295459  0
N  N32  1  0.50917303  0.11560952  0.71140700  1  0  -0.138461  0  3.079459  0  0  -0.122603  0  3.387735  0  0  -0.12347  0  3.400176  0  0  -0.158374  -0.121698  0  3.379187  0
N  N33  1  0.99082804  0.28859393  0.88438966  1  0  -0.138425  0  3.079422  0  0  -0.12256  0  3.387684  0  0  -0.123428  0  3.400125  0  0  -0.158339  -0.121655  0  3.379136  0
N  N34  1  0.49082669  0.88438988  0.28859112  1  0  -0.138506  0  3.079533  0  0  -0.122654  0  3.387812  0  0  -0.12352  0  3.400252  0  0  -0.158417  -0.121748  0  3.379263  0
N  N35  1  0.00917260  0.71140938  0.11561289  1  0  -0.138517  0  3.079597  0  0  -0.12267  0  3.387881  0  0  -0.123538  0  3.400324  0  0  -0.158374  -0.121767  0  3.379335  0
N  N36  1  0.49899700  0.34269854  0.66226122  1  0  -0.37178  0  3.11537  0  0  -0.305707  0  3.365865  0  0  -0.321583  0  3.380706  0  0  -0.22192  -0.294863  0  3.355711  0
N  N37  1  0.00100173  0.33773776  0.65730260  1  0  -0.371801  0  3.115516  0  0  -0.305723  0  3.366011  0  0  -0.321599  0  3.380851  0  0  -0.221937  -0.29488  0  3.355857  0
N  N38  1  0.50100273  0.65730085  0.33773803  1  0  -0.371837  0  3.115385  0  0  -0.305766  0  3.365907  0  0  -0.321642  0  3.380747  0  0  -0.221964  -0.294922  0  3.355752  0
N  N39  1  0.99899954  0.66226425  0.34269990  1  0  -0.37183  0  3.115499  0  0  -0.305782  0  3.366021  0  0  -0.321658  0  3.380863  0  0  -0.221933  -0.29494  0  3.355864  0
N  N40  1  0.50060144  0.19335982  0.59892258  1  0  -0.135943  0  3.065876  0  0  -0.127725  0  3.371232  0  0  -0.128615  0  3.384463  0  0  -0.156195  -0.1269  0  3.362202  0
N  N41  1  0.99939865  0.40107745  0.80663887  1  0  -0.135974  0  3.065955  0  0  -0.12776  0  3.371312  0  0  -0.128647  0  3.384541  0  0  -0.15621  -0.126935  0  3.362282  0
N  N42  1  0.49939829  0.80663957  0.40107667  1  0  -0.135919  0  3.065864  0  0  -0.127691  0  3.371211  0  0  -0.128583  0  3.384443  0  0  -0.156178  -0.126867  0  3.362181  0
N  N43  1  0.00060122  0.59892456  0.19336205  1  0  -0.135859  0  3.065884  0  0  -0.127616  0  3.371219  0  0  -0.128509  0  3.384454  0  0  -0.156173  -0.126792  0  3.36219  0
O  O44  1  0.74999835  0.97134979  0.02864367  1  0  -0.901827  0  1.8104  0  0  -0.842275  0  2.000187  0  0  -0.859548  0  1.965635  0  0  -0.69983  -0.830035  0  2.024253  0
O  O45  1  0.24999906  0.02864569  0.97135071  1  0  -0.901827  0  1.810368  0  0  -0.842282  0  2.000153  0  0  -0.85955  0  1.965597  0  0  -0.699839  -0.830043  0  2.024219  0
O  O46  1  0.25156705  0.67218240  0.66939939  1  0  -0.881696  0  1.810149  0  0  -0.828038  0  1.997643  0  0  -0.843454  0  1.963832  0  0  -0.667071  -0.817173  0  2.021262  0
O  O47  1  0.24843510  0.33059984  0.32781791  1  0  -0.881686  0  1.810178  0  0  -0.828032  0  1.997669  0  0  -0.843445  0  1.96385  0  0  -0.66706  -0.817167  0  2.02129  0
O  O48  1  0.74843407  0.32781699  0.33060031  1  0  -0.881674  0  1.810186  0  0  -0.828017  0  1.997676  0  0  -0.843431  0  1.96386  0  0  -0.667054  -0.817152  0  2.021296  0
O  O49  1  0.75156679  0.66940086  0.67218341  1  0  -0.881711  0  1.81015  0  0  -0.828054  0  1.997649  0  0  -0.843468  0  1.96383  0  0  -0.667069  -0.81719  0  2.021269  0
