# generated using pymatgen
data_FeH16C26(SN3)2
_symmetry_space_group_name_H-M   'P 1'
_cell_length_a   8.70630439
_cell_length_b   8.70635491
_cell_length_c   22.06665064
_cell_angle_alpha   95.94988904
_cell_angle_beta   95.94433212
_cell_angle_gamma   107.44956630
_symmetry_Int_Tables_number   1
_chemical_formula_structural   FeH16C26(SN3)2
_chemical_formula_sum   'Fe2 H32 C52 S4 N12'
_cell_volume   1571.02548690
_cell_formula_units_Z   2
loop_
 _symmetry_equiv_pos_site_id
 _symmetry_equiv_pos_as_xyz
  1  'x, y, z'
loop_
 _atom_site_type_symbol
 _atom_site_label
 _atom_site_symmetry_multiplicity
 _atom_site_fract_x
 _atom_site_fract_y
 _atom_site_fract_z
 _atom_site_occupancy
 _atom_site_pbe_bader_charge
 _atom_site_pbe_bader_spin_density
 _atom_site_pbe_cm5_charge
 _atom_site_pbe_ddec_charge
 _atom_site_pbe_ddec_spin_density
 _atom_site_pbe_ddec_sum_bond_order
 _atom_site_pbe_magmom
Fe  Fe0  1  0.04114193  0.95867543  0.24994717  1  1.197289  0  0.737805  0.472138  0  3.557411  0
Fe  Fe1  1  0.95853258  0.04100101  0.74986620  1  1.197504  0  0.737793  0.471784  0  3.556623  0
H  H2  1  0.98607722  0.06094738  0.38022630  1  0.146413  0  0.124269  0.104205  0  0.993327  0
H  H3  1  0.93910579  0.01399000  0.11981226  1  0.146027  0  0.124388  0.104397  0  0.993401  0
H  H4  1  0.01402492  0.93906400  0.61982532  1  0.145645  0  0.124346  0.10453  0  0.993587  0
H  H5  1  0.06089755  0.98609279  0.88023323  1  0.146299  0  0.124267  0.104132  0  0.993454  0
H  H6  1  0.14308055  0.25710557  0.47240633  1  0.131092  0  0.105132  0.125318  0  1.020338  0
H  H7  1  0.74302722  0.85697998  0.02763070  1  0.131981  0  0.105178  0.125445  0  1.020457  0
H  H8  1  0.85702519  0.74303054  0.52764162  1  0.132261  0  0.105123  0.125314  0  1.020429  0
H  H9  1  0.25710586  0.14308716  0.97241233  1  0.13112  0  0.105194  0.125461  0  1.02029  0
H  H10  1  0.56518639  0.34617207  0.37718424  1  0.140296  0  0.101529  0.11971  0  1.034685  0
H  H11  1  0.65392283  0.43486945  0.12283013  1  0.14093  0  0.101476  0.119782  0  1.034604  0
H  H12  1  0.43489667  0.65397691  0.62283973  1  0.140897  0  0.101466  0.119737  0  1.034548  0
H  H13  1  0.34623097  0.56518339  0.87719323  1  0.140761  0  0.101545  0.119791  0  1.034561  0
H  H14  1  0.39033184  0.14240336  0.28979763  1  0.124841  0  0.11381  0.082821  0  1.059498  0
H  H15  1  0.85764594  0.60968938  0.21022097  1  0.125072  0  0.113944  0.083046  0  1.059619  0
H  H16  1  0.60968372  0.85766829  0.71023113  1  0.131685  0  0.113915  0.083043  0  1.059505  0
H  H17  1  0.14241883  0.39031652  0.78980347  1  0.125312  0  0.113918  0.082966  0  1.059354  0
H  H18  1  0.22501454  0.78440296  0.34411711  1  0.102418  0  0.124493  0.100881  0  0.974691  0
H  H19  1  0.21557320  0.77489996  0.15586588  1  0.102104  0  0.124481  0.100844  0  0.974604  0
H  H20  1  0.77481733  0.21553780  0.65584224  1  0.101944  0  0.1245  0.100917  0  0.974306  0
H  H21  1  0.78436340  0.22494928  0.84409629  1  0.102625  0  0.124447  0.10081  0  0.974487  0
H  H22  1  0.41218562  0.61320054  0.34892968  1  0.128101  0  0.1082  0.122869  0  1.018068  0
H  H23  1  0.38680981  0.58776456  0.15106343  1  0.127367  0  0.108247  0.122991  0  1.018045  0
H  H24  1  0.58776581  0.38686433  0.65107571  1  0.12763  0  0.108361  0.123048  0  1.018083  0
H  H25  1  0.61324391  0.41220345  0.84894082  1  0.127769  0  0.10815  0.122883  0  1.017991  0
H  H26  1  0.92748623  0.49216469  0.28545949  1  0.148952  0  0.110308  0.125589  0  1.022172  0
H  H27  1  0.50778671  0.07252436  0.21453556  1  0.148749  0  0.110189  0.12534  0  1.022466  0
H  H28  1  0.07254142  0.50774216  0.71454745  1  0.148595  0  0.11026  0.125591  0  1.022426  0
H  H29  1  0.49211730  0.92751567  0.78545773  1  0.149383  0  0.110375  0.125748  0  1.021898  0
H  H30  1  0.09737862  0.30932494  0.27814177  1  0.114953  0  0.121133  0.09459  0  1.014249  0
H  H31  1  0.69058048  0.90259056  0.22182211  1  0.114847  0  0.121153  0.094804  0  1.014362  0
H  H32  1  0.90256651  0.69049823  0.72179428  1  0.115561  0  0.121208  0.094874  0  1.014315  0
H  H33  1  0.30923853  0.09736499  0.77810469  1  0.114481  0  0.12106  0.094667  0  1.014195  0
C  C34  1  0.85629291  0.75451211  0.34125588  1  0.501443  0  0.129379  0.242758  0  4.361217  0
C  C35  1  0.24548418  0.14365425  0.15871939  1  0.500359  0  0.12925  0.242747  0  4.361805  0
C  C36  1  0.14361089  0.24546228  0.65870110  1  0.50183  0  0.129521  0.242826  0  4.362257  0
C  C37  1  0.75451130  0.85624895  0.84122985  1  0.502555  0  0.129515  0.242949  0  4.361838  0
C  C38  1  0.11441720  0.12676682  0.38154759  1  0.412912  0  0.045078  0.076224  0  3.92341  0
C  C39  1  0.87330890  0.88566075  0.11849580  1  0.410782  0  0.044607  0.075198  0  3.923129  0
C  C40  1  0.88569985  0.87329181  0.61851163  1  0.419048  0  0.044525  0.074678  0  3.923205  0
C  C41  1  0.12673078  0.11442388  0.88155809  1  0.413309  0  0.045097  0.076144  0  3.923984  0
C  C42  1  0.20204793  0.23642721  0.43248531  1  0.033081  0  -0.074275  -0.161363  0  3.896975  0
C  C43  1  0.76368126  0.79802217  0.06755547  1  0.032652  0  -0.074443  -0.161329  0  3.897599  0
C  C44  1  0.79805268  0.76368533  0.56756914  1  0.024514  0  -0.074386  -0.161062  0  3.89728  0
C  C45  1  0.23641537  0.20204646  0.93249289  1  0.03283  0  -0.074305  -0.161487  0  3.896849  0
C  C46  1  0.36757883  0.32184808  0.43190169  1  0.034528  0  0.013876  0.165915  0  4.097002  0
C  C47  1  0.67824822  0.63249443  0.06812993  1  0.034534  0  0.014134  0.165929  0  4.096321  0
C  C48  1  0.63250735  0.67825787  0.56813420  1  0.035111  0  0.014106  0.165879  0  4.096297  0
C  C49  1  0.32184252  0.36757253  0.93190089  1  0.034241  0  0.013871  0.165982  0  4.097028  0
C  C50  1  0.43800748  0.28332959  0.38001165  1  -0.05054  0  -0.07807  -0.16643  0  3.912185  0
C  C51  1  0.71675294  0.56205342  0.12001135  1  -0.049713  0  -0.077837  -0.166247  0  3.911993  0
C  C52  1  0.56208126  0.71678296  0.62001828  1  -0.050029  0  -0.077965  -0.166323  0  3.912411  0
C  C53  1  0.28335962  0.43801097  0.88001983  1  -0.050822  0  -0.077953  -0.166329  0  3.912035  0
C  C54  1  0.34185418  0.17134091  0.33131565  1  0.466562  0  0.040991  0.073467  0  3.944508  0
C  C55  1  0.82873217  0.65819972  0.16871587  1  0.464877  0  0.040731  0.072815  0  3.944473  0
C  C56  1  0.65821720  0.82874659  0.66872700  1  0.45829  0  0.040724  0.072694  0  3.944324  0
C  C57  1  0.17134864  0.34185603  0.83132539  1  0.466433  0  0.040898  0.073188  0  3.944553  0
C  C58  1  0.45940067  0.44469209  0.48007084  1  -0.283288  0  -0.028219  -0.070433  0  4.035394  0
C  C59  1  0.55539835  0.54068767  0.01995678  1  -0.033116  0  -0.02844  -0.070473  0  4.034928  0
C  C60  1  0.54070505  0.55541874  0.51995838  1  -0.033747  0  -0.028295  -0.070359  0  4.034955  0
C  C61  1  0.44468521  0.45938750  0.98007182  1  -0.283729  0  -0.028027  -0.070254  0  4.035304  0
C  C62  1  0.26660536  0.74033352  0.30276926  1  0.508546  0  0.051562  0.0858  0  3.958697  0
C  C63  1  0.25962938  0.73331829  0.19721464  1  0.509368  0  0.051418  0.085688  0  3.958733  0
C  C64  1  0.73325665  0.25959906  0.69720189  1  0.509464  0  0.051486  0.085748  0  3.958944  0
C  C65  1  0.74029404  0.26656035  0.80275637  1  0.507202  0  0.051548  0.085833  0  3.958021  0
C  C66  1  0.36755424  0.64338011  0.30520573  1  -0.042281  0  -0.074035  -0.166425  0  3.900064  0
C  C67  1  0.35660490  0.63239465  0.19478362  1  -0.04324  0  -0.074159  -0.166682  0  3.899806  0
C  C68  1  0.63238223  0.35662597  0.69478704  1  -0.043966  0  -0.074205  -0.166808  0  3.899853  0
C  C69  1  0.64339534  0.36755242  0.80521026  1  -0.042163  0  -0.074043  -0.166544  0  3.9002  0
C  C70  1  0.41369839  0.58627617  0.24999831  1  0.105934  0  0.021175  0.170888  0  4.076811  0
C  C71  1  0.58629122  0.41372181  0.75001176  1  0.106252  0  0.021249  0.171049  0  4.076884  0
C  C72  1  0.51435154  0.48564156  0.24999898  1  -0.038468  0  -0.012778  -0.057016  0  4.009728  0
C  C73  1  0.48566725  0.51438028  0.75002556  1  -0.037153  0  -0.012801  -0.057078  0  4.009756  0
C  C74  1  0.60110882  0.39890070  0.24999982  1  -0.300131  0  -0.019701  -0.071872  0  4.049511  0
C  C75  1  0.39890276  0.60112473  0.75002185  1  -0.300701  0  -0.019725  -0.07188  0  4.049481  0
C  C76  1  0.70152835  0.29846135  0.24999616  1  0.075573  0  0.012871  0.158775  0  4.091592  0
C  C77  1  0.29844788  0.70152221  0.75000459  1  0.078316  0  0.01294  0.158857  0  4.091399  0
C  C78  1  0.87075035  0.36300331  0.26895823  1  -0.039953  0  -0.074975  -0.167527  0  3.918106  0
C  C79  1  0.63695452  0.12924767  0.23102929  1  -0.040675  0  -0.074621  -0.166775  0  3.91798  0
C  C80  1  0.12923750  0.63690881  0.73103004  1  -0.04396  0  -0.074708  -0.167084  0  3.918084  0
C  C81  1  0.36295534  0.87075496  0.76895271  1  -0.040296  0  -0.07528  -0.167781  0  3.918518  0
C  C82  1  0.96585712  0.26127239  0.26650582  1  0.442493  0  0.041904  0.07639  0  3.910908  0
C  C83  1  0.73865418  0.03411059  0.23345903  1  0.442904  0  0.041495  0.075503  0  3.911046  0
C  C84  1  0.03408229  0.73859404  0.73343544  1  0.442541  0  0.041302  0.075093  0  3.91133  0
C  C85  1  0.26121203  0.96584319  0.76647784  1  0.442994  0  0.042177  0.076205  0  3.910861  0
S  S86  1  0.77958427  0.66755696  0.39729829  1  0.072843  0  -0.210999  -0.392081  0  2.279614  0
S  S87  1  0.33249721  0.22044195  0.10270293  1  0.073652  0  -0.210903  -0.391938  0  2.279863  0
S  S88  1  0.22047688  0.33255201  0.60269816  1  0.072454  0  -0.210969  -0.392093  0  2.278911  0
S  S89  1  0.66759736  0.77961941  0.89730606  1  0.072033  0  -0.211187  -0.392506  0  2.279016  0
N  N90  1  0.91273610  0.81736357  0.29962069  1  -1.33391  0  -0.43303  -0.471704  0  3.52129  0
N  N91  1  0.18259641  0.08716420  0.20033898  1  -1.333396  0  -0.432917  -0.471837  0  3.52181  0
N  N92  1  0.08709974  0.18255796  0.70029270  1  -1.333699  0  -0.433067  -0.471566  0  3.522649  0
N  N93  1  0.81729748  0.91262366  0.79959298  1  -1.334229  0  -0.433007  -0.471557  0  3.522233  0
N  N94  1  0.18105838  0.09614656  0.33053968  1  -1.206627  0  -0.317309  -0.169488  0  3.564563  0
N  N95  1  0.90391332  0.81902835  0.16951515  1  -1.20531  0  -0.317565  -0.168095  0  3.565813  0
N  N96  1  0.81908033  0.90391854  0.66954247  1  -1.206029  0  -0.317892  -0.167549  0  3.566762  0
N  N97  1  0.09613244  0.18109029  0.83056580  1  -1.206896  0  -0.316931  -0.169382  0  3.563375  0
N  N98  1  0.21456047  0.78536266  0.24998999  1  -1.231176  0  -0.287998  -0.194502  0  3.446111  0
N  N99  1  0.78527792  0.21448542  0.74996256  1  -1.230134  0  -0.288075  -0.194553  0  3.44612  0
N  N100  1  0.90258397  0.09735342  0.24997289  1  -1.161919  0  -0.332052  -0.140727  0  3.619815  0
N  N101  1  0.09729051  0.90253153  0.74992835  1  -1.162073  0  -0.331944  -0.140149  0  3.618618  0
