# generated using pymatgen
data_ZnH15C12NO4
_symmetry_space_group_name_H-M   'P 1'
_cell_length_a   6.74985327
_cell_length_b   12.56219233
_cell_length_c   12.56658132
_cell_angle_alpha   120.00764970
_cell_angle_beta   90.01186387
_cell_angle_gamma   90.01853316
_symmetry_Int_Tables_number   1
_chemical_formula_structural   ZnH15C12NO4
_chemical_formula_sum   'Zn3 H45 C36 N3 O12'
_cell_volume   922.72864700
_cell_formula_units_Z   3
loop_
 _symmetry_equiv_pos_site_id
 _symmetry_equiv_pos_as_xyz
  1  'x, y, z'
loop_
 _atom_site_type_symbol
 _atom_site_label
 _atom_site_symmetry_multiplicity
 _atom_site_fract_x
 _atom_site_fract_y
 _atom_site_fract_z
 _atom_site_occupancy
 _atom_site_hle17_bader_spin_density
 _atom_site_hle17_ddec_charge
 _atom_site_hle17_ddec_spin_density
 _atom_site_hle17_ddec_sum_bond_order
 _atom_site_hle17_magmom
 _atom_site_hse06_10hf_bader_spin_density
 _atom_site_hse06_10hf_ddec_charge
 _atom_site_hse06_10hf_ddec_spin_density
 _atom_site_hse06_10hf_ddec_sum_bond_order
 _atom_site_hse06_10hf_magmom
 _atom_site_hse06_bader_spin_density
 _atom_site_hse06_ddec_charge
 _atom_site_hse06_ddec_spin_density
 _atom_site_hse06_ddec_sum_bond_order
 _atom_site_hse06_magmom
 _atom_site_pbe_bader_spin_density
 _atom_site_pbe_cm5_charge
 _atom_site_pbe_ddec_charge
 _atom_site_pbe_ddec_spin_density
 _atom_site_pbe_ddec_sum_bond_order
 _atom_site_pbe_magmom
Zn  Zn0  1  0.11234619  0.46222494  0.64468773  1  0  1.102563  0  1.808282  0  0  0.923661  0  2.27318  0  0  0.970632  0  2.215257  0  0  0.691265  0.890758  0  2.31305  0
Zn  Zn1  1  0.44542983  0.35515674  0.81743658  1  0  1.102553  0  1.808435  0  0  0.923695  0  2.273016  0  0  0.970599  0  2.215108  0  0  0.691148  0.890823  0  2.312882  0
Zn  Zn2  1  0.77879335  0.18258129  0.53776433  1  0  1.102929  0  1.807253  0  0  0.923914  0  2.271962  0  0  0.970874  0  2.214055  0  0  0.691465  0.891044  0  2.311855  0
H  H3  1  0.61555159  0.74353688  0.82822951  1  0  0.105984  0  0.954597  0  0  0.11994  0  1.010711  0  0  0.122926  0  1.010404  0  0  0.101218  0.117809  0  1.011126  0
H  H4  1  0.94835252  0.17213735  0.91597859  1  0  0.107166  0  0.953669  0  0  0.12099  0  1.009809  0  0  0.124057  0  1.009365  0  0  0.101656  0.118809  0  1.010315  0
H  H5  1  0.28140980  0.08440125  0.25618768  1  0  0.106565  0  0.953734  0  0  0.120052  0  1.010377  0  0  0.12303  0  1.010074  0  0  0.101422  0.117937  0  1.010793  0
H  H6  1  0.30482292  0.05925716  0.86221712  1  0  0.091562  0  0.976499  0  0  0.099442  0  1.042225  0  0  0.101908  0  1.042769  0  0  0.094869  0.097682  0  1.042008  0
H  H7  1  0.63661364  0.13829330  0.19739908  1  0  0.092564  0  0.975138  0  0  0.099835  0  1.041455  0  0  0.10231  0  1.041975  0  0  0.095171  0.098102  0  1.041213  0
H  H8  1  0.96926121  0.80324926  0.94074268  1  0  0.091611  0  0.975971  0  0  0.099291  0  1.041991  0  0  0.101764  0  1.042536  0  0  0.094742  0.097555  0  1.04173  0
H  H9  1  0.60660368  0.96564737  0.89718669  1  0  0.080465  0  0.983  0  0  0.091344  0  1.045735  0  0  0.092537  0  1.04668  0  0  0.095835  0.090385  0  1.045163  0
H  H10  1  0.93890222  0.10376771  0.06948365  1  0  0.080635  0  0.981305  0  0  0.091041  0  1.044716  0  0  0.092306  0  1.04559  0  0  0.095706  0.090072  0  1.044163  0
H  H11  1  0.27146604  0.93145244  0.03413981  1  0  0.081057  0  0.981776  0  0  0.090974  0  1.045544  0  0  0.092235  0  1.046413  0  0  0.095736  0.090004  0  1.04499  0
H  H12  1  0.01445870  0.92678200  0.75675607  1  0  0.086743  0  0.945239  0  0  0.100747  0  1.002002  0  0  0.103486  0  1.000078  0  0  0.103154  0.098652  0  1.003537  0
H  H13  1  0.34629750  0.24335922  0.16981857  1  0  0.087265  0  0.944503  0  0  0.100987  0  1.001653  0  0  0.103741  0  0.999707  0  0  0.103311  0.098971  0  1.00308  0
H  H14  1  0.67924443  0.83021347  0.07337079  1  0  0.087657  0  0.944344  0  0  0.100972  0  1.002016  0  0  0.103708  0  1.000059  0  0  0.103317  0.098957  0  1.00347  0
H  H15  1  0.85954508  0.75059865  0.65543545  1  0  0.059888  0  0.932449  0  0  0.071741  0  1.002625  0  0  0.073749  0  0.998894  0  0  0.115528  0.070149  0  1.005429  0
H  H16  1  0.19198139  0.34445165  0.09475102  1  0  0.05918  0  0.932957  0  0  0.071774  0  1.002472  0  0  0.0738  0  0.998729  0  0  0.115305  0.070144  0  1.005353  0
H  H17  1  0.52516276  0.90496890  0.24963468  1  0  0.05895  0  0.932642  0  0  0.071496  0  1.00229  0  0  0.073552  0  0.998451  0  0  0.115385  0.069888  0  1.005173  0
H  H18  1  0.62933904  0.57985971  0.60276717  1  0  0.083954  0  0.94169  0  0  0.092937  0  1.006681  0  0  0.094406  0  1.006937  0  0  0.116132  0.091798  0  1.006667  0
H  H19  1  0.96205917  0.39706369  0.97662068  1  0  0.083831  0  0.941759  0  0  0.092433  0  1.007049  0  0  0.093869  0  1.007331  0  0  0.116303  0.091317  0  1.007028  0
H  H20  1  0.29552967  0.02269973  0.42033927  1  0  0.083719  0  0.941431  0  0  0.092849  0  1.006155  0  0  0.094289  0  1.006429  0  0  0.116132  0.091725  0  1.006136  0
H  H21  1  0.85402888  0.34932948  0.29764477  1  0  0.104764  0  0.976591  0  0  0.125877  0  1.037578  0  0  0.126719  0  1.039356  0  0  0.084296  0.125208  0  1.036418  0
H  H22  1  0.18677901  0.70238465  0.05158339  1  0  0.104196  0  0.977026  0  0  0.125988  0  1.037281  0  0  0.12689  0  1.039003  0  0  0.084027  0.12529  0  1.036138  0
H  H23  1  0.52147959  0.94840766  0.65065780  1  0  0.104123  0  0.976459  0  0  0.125882  0  1.036917  0  0  0.126793  0  1.038613  0  0  0.083995  0.125174  0  1.035794  0
H  H24  1  0.05239934  0.45420039  0.37034107  1  0  0.101997  0  0.958792  0  0  0.120117  0  1.025239  0  0  0.121793  0  1.024746  0  0  0.082503  0.118839  0  1.025689  0
H  H25  1  0.38518524  0.62962354  0.08351466  1  0  0.101721  0  0.958813  0  0  0.119551  0  1.025738  0  0  0.121276  0  1.02519  0  0  0.082197  0.118257  0  1.026204  0
H  H26  1  0.71961557  0.91647694  0.54580197  1  0  0.101747  0  0.959924  0  0  0.120029  0  1.026179  0  0  0.121691  0  1.025704  0  0  0.082488  0.118761  0  1.026621  0
H  H27  1  0.91078351  0.45883855  0.25283357  1  0  0.090487  0  0.975077  0  0  0.111688  0  1.041442  0  0  0.112317  0  1.042704  0  0  0.081537  0.111176  0  1.040612  0
H  H28  1  0.24394790  0.74716432  0.20581923  1  0  0.090511  0  0.975168  0  0  0.11174  0  1.041503  0  0  0.112431  0  1.042701  0  0  0.081535  0.111194  0  1.040712  0
H  H29  1  0.57878944  0.79409723  0.54131702  1  0  0.091172  0  0.974974  0  0  0.112279  0  1.041424  0  0  0.112919  0  1.042665  0  0  0.081761  0.111753  0  1.040623  0
H  H30  1  0.81305303  0.62904345  0.45790806  1  0  0.030681  0  0.92957  0  0  0.049012  0  0.984482  0  0  0.048557  0  0.985681  0  0  0.092622  0.049303  0  0.983671  0
H  H31  1  0.14605325  0.54194077  0.17077854  1  0  0.029437  0  0.929871  0  0  0.048665  0  0.984197  0  0  0.048255  0  0.985406  0  0  0.092368  0.048913  0  0.983428  0
H  H32  1  0.48007615  0.82879246  0.37102792  1  0  0.030084  0  0.930116  0  0  0.048784  0  0.984605  0  0  0.048338  0  0.985824  0  0  0.092482  0.049064  0  0.983798  0
H  H33  1  0.48501123  0.43566590  0.34295910  1  0  0.106368  0  0.981394  0  0  0.125421  0  1.045969  0  0  0.127006  0  1.046028  0  0  0.084991  0.12421  0  1.046034  0
H  H34  1  0.81802098  0.65696136  0.09263524  1  0  0.106854  0  0.980888  0  0  0.125496  0  1.045892  0  0  0.12709  0  1.045921  0  0  0.085142  0.124267  0  1.045979  0
H  H35  1  0.15237566  0.90668306  0.56428897  1  0  0.106798  0  0.98118  0  0  0.125679  0  1.045892  0  0  0.127323  0  1.045862  0  0  0.084997  0.124421  0  1.045999  0
H  H36  1  0.55374588  0.54575312  0.29987796  1  0  0.095014  0  0.952968  0  0  0.117843  0  1.012526  0  0  0.11867  0  1.013424  0  0  0.083756  0.117242  0  1.011895  0
H  H37  1  0.88688124  0.70002933  0.24574695  1  0  0.095172  0  0.952922  0  0  0.1179  0  1.012513  0  0  0.118699  0  1.013421  0  0  0.083929  0.117307  0  1.011879  0
H  H38  1  0.22141046  0.75357317  0.45436817  1  0  0.095407  0  0.952915  0  0  0.118021  0  1.012651  0  0  0.118833  0  1.013566  0  0  0.08382  0.117424  0  1.012015  0
H  H39  1  0.44987422  0.59475646  0.44743609  1  0  0.091559  0  0.96167  0  0  0.110712  0  1.028168  0  0  0.112127  0  1.028148  0  0  0.082038  0.109639  0  1.02828  0
H  H40  1  0.78267316  0.55244041  0.14718854  1  0  0.091148  0  0.962177  0  0  0.110562  0  1.028286  0  0  0.111983  0  1.02825  0  0  0.082032  0.109497  0  1.028389  0
H  H41  1  0.11680329  0.85189595  0.40524350  1  0  0.091225  0  0.96173  0  0  0.110608  0  1.027901  0  0  0.11202  0  1.02789  0  0  0.081932  0.109535  0  1.028009  0
H  H42  1  0.14922945  0.24502515  0.45202730  1  0  0.424917  0  0.882132  0  0  0.390366  0  0.951102  0  0  0.401888  0  0.934675  0  0  0.288148  0.382241  0  0.962658  0
H  H43  1  0.48277165  0.54785561  0.79306062  1  0  0.424947  0  0.88222  0  0  0.390485  0  0.950988  0  0  0.402015  0  0.934554  0  0  0.288178  0.382359  0  0.962541  0
H  H44  1  0.81590256  0.20702012  0.75494377  1  0  0.424571  0  0.882718  0  0  0.390031  0  0.951655  0  0  0.401552  0  0.93524  0  0  0.288101  0.381913  0  0.963193  0
H  H45  1  0.35939451  0.31958780  0.46823921  1  0  0.438416  0  0.862868  0  0  0.407531  0  0.925726  0  0  0.417862  0  0.910843  0  0  0.295503  0.400267  0  0.93618  0
H  H46  1  0.69305215  0.53165833  0.85128578  1  0  0.439052  0  0.861865  0  0  0.407707  0  0.925511  0  0  0.418103  0  0.910533  0  0  0.295639  0.400397  0  0.936024  0
H  H47  1  0.02622534  0.14889812  0.68058631  1  0  0.439128  0  0.861768  0  0  0.407722  0  0.925446  0  0  0.418079  0  0.910536  0  0  0.295414  0.400445  0  0.935908  0
C  C48  1  0.48427926  0.78393348  0.81171321  1  0  -0.23337  0  3.74418  0  0  -0.25188  0  4.001633  0  0  -0.262302  0  4.02166  0  0  -0.11725  -0.245083  0  3.988146  0
C  C49  1  0.81689596  0.18872455  0.97274852  1  0  -0.235565  0  3.745849  0  0  -0.254237  0  4.002981  0  0  -0.264713  0  4.022976  0  0  -0.117985  -0.247421  0  3.98954  0
C  C50  1  0.14986943  0.02764689  0.21591219  1  0  -0.234412  0  3.745176  0  0  -0.252586  0  4.002319  0  0  -0.263011  0  4.022378  0  0  -0.117623  -0.245806  0  3.98884  0
C  C51  1  0.32195257  0.70488466  0.75011881  1  0  0.358516  0  3.829276  0  0  0.339096  0  4.085851  0  0  0.357618  0  4.100491  0  0  0.094421  0.326525  0  4.075716  0
C  C52  1  0.65468088  0.25003277  0.95494344  1  0  0.358554  0  3.83127  0  0  0.339586  0  4.086601  0  0  0.358138  0  4.101261  0  0  0.095014  0.327017  0  4.076469  0
C  C53  1  0.98791411  0.04512477  0.29508721  1  0  0.359864  0  3.828271  0  0  0.340208  0  4.084528  0  0  0.358741  0  4.099148  0  0  0.095064  0.327648  0  4.074406  0
C  C54  1  0.30817612  0.96174988  0.83226715  1  0  -0.114083  0  3.800285  0  0  -0.131625  0  4.060083  0  0  -0.139071  0  4.082853  0  0  -0.110355  -0.126846  0  4.044475  0
C  C55  1  0.64015348  0.16821710  0.12985576  1  0  -0.1148  0  3.798567  0  0  -0.131887  0  4.058242  0  0  -0.139309  0  4.080958  0  0  -0.11022  -0.127143  0  4.042707  0
C  C56  1  0.97287557  0.87065814  0.03825673  1  0  -0.114505  0  3.799995  0  0  -0.131882  0  4.059462  0  0  -0.139343  0  4.082222  0  0  -0.110248  -0.127107  0  4.043898  0
C  C57  1  0.14918354  0.75932714  0.72954334  1  0  -0.126557  0  3.800028  0  0  -0.104515  0  4.03878  0  0  -0.118791  0  4.065786  0  0  -0.036458  -0.095137  0  4.020505  0
C  C58  1  0.48176029  0.27061618  0.02979228  1  0  -0.126622  0  3.800508  0  0  -0.104361  0  4.038614  0  0  -0.118723  0  4.065724  0  0  -0.03662  -0.094987  0  4.020364  0
C  C59  1  0.81481970  0.97024802  0.24075289  1  0  -0.127638  0  3.799758  0  0  -0.104912  0  4.037477  0  0  -0.119285  0  4.0646  0  0  -0.036553  -0.09549  0  4.019176  0
C  C60  1  0.47825763  0.90845249  0.85076350  1  0  -0.02114  0  3.790091  0  0  -0.036269  0  4.039949  0  0  -0.031346  0  4.059128  0  0  -0.084131  -0.03901  0  4.026605  0
C  C61  1  0.81055125  0.14992841  0.05835922  1  0  -0.019868  0  3.787598  0  0  -0.034549  0  4.037108  0  0  -0.029661  0  4.056205  0  0  -0.083542  -0.037296  0  4.023829  0
C  C62  1  0.14330568  0.94226707  0.09143285  1  0  -0.020945  0  3.789731  0  0  -0.03523  0  4.039427  0  0  -0.030311  0  4.058476  0  0  -0.083681  -0.037991  0  4.026171  0
C  C63  1  0.14760239  0.88734910  0.77281689  1  0  -0.062096  0  3.763647  0  0  -0.083925  0  4.012589  0  0  -0.08036  0  4.033865  0  0  -0.079445  -0.085696  0  3.997781  0
C  C64  1  0.47965531  0.22737897  0.11453789  1  0  -0.062664  0  3.763145  0  0  -0.08457  0  4.01195  0  0  -0.080982  0  4.033198  0  0  -0.079737  -0.086388  0  3.997189  0
C  C65  1  0.81258425  0.88560853  0.11274635  1  0  -0.062623  0  3.764118  0  0  -0.084342  0  4.012975  0  0  -0.080709  0  4.034224  0  0  -0.07973  -0.086189  0  3.998171  0
C  C66  1  0.97424910  0.69336050  0.66480218  1  0  0.173917  0  3.720981  0  0  0.125439  0  3.985133  0  0  0.143753  0  3.994325  0  0  0.080466  0.113177  0  3.978877  0
C  C67  1  0.30684682  0.33515124  0.02829514  1  0  0.174581  0  3.721225  0  0  0.125267  0  3.985311  0  0  0.143575  0  3.994563  0  0  0.080795  0.113015  0  3.979028  0
C  C68  1  0.64008231  0.97153241  0.30680485  1  0  0.174578  0  3.721176  0  0  0.125491  0  3.985014  0  0  0.143819  0  3.994266  0  0  0.080664  0.113196  0  3.978754  0
C  C69  1  0.75722150  0.52632532  0.54657666  1  0  -0.037772  0  3.60014  0  0  -0.055009  0  3.835285  0  0  -0.057305  0  3.849715  0  0  0.007028  -0.053332  0  3.825373  0
C  C70  1  0.09001181  0.45332264  0.97941297  1  0  -0.036717  0  3.597768  0  0  -0.053009  0  3.832428  0  0  -0.055191  0  3.846785  0  0  0.006793  -0.051403  0  3.822565  0
C  C71  1  0.42359975  0.02014227  0.47383046  1  0  -0.036946  0  3.598956  0  0  -0.053881  0  3.834032  0  0  -0.056105  0  3.8484  0  0  0.007341  -0.052252  0  3.824155  0
C  C72  1  0.90287266  0.44427842  0.33191031  1  0  -0.328337  0  3.67917  0  0  -0.40646  0  3.914973  0  0  -0.409586  0  3.926143  0  0  -0.255108  -0.404037  0  3.907303  0
C  C73  1  0.23574727  0.66808143  0.11215356  1  0  -0.327655  0  3.679351  0  0  -0.406198  0  3.915533  0  0  -0.40945  0  3.926731  0  0  -0.254588  -0.403686  0  3.907848  0
C  C74  1  0.57030330  0.88770249  0.55574802  1  0  -0.328202  0  3.680804  0  0  -0.407002  0  3.916387  0  0  -0.410143  0  3.92755  0  0  -0.254991  -0.404576  0  3.908738  0
C  C75  1  0.75797768  0.53541532  0.42758584  1  0  0.097571  0  3.620648  0  0  0.105952  0  3.853081  0  0  0.106263  0  3.871806  0  0  -0.082961  0.105796  0  3.840142  0
C  C76  1  0.09081205  0.57232518  0.10758666  1  0  0.099311  0  3.618134  0  0  0.106662  0  3.851175  0  0  0.106773  0  3.870202  0  0  -0.082131  0.106568  0  3.838182  0
C  C77  1  0.42496687  0.89195487  0.46462821  1  0  0.097917  0  3.62179  0  0  0.10632  0  3.853855  0  0  0.106551  0  3.872667  0  0  -0.082383  0.106206  0  3.840866  0
C  C78  1  0.54917558  0.52701180  0.37646176  1  0  -0.324795  0  3.690157  0  0  -0.404225  0  3.930537  0  0  -0.406987  0  3.940853  0  0  -0.250474  -0.402063  0  3.923439  0
C  C79  1  0.88209742  0.62341620  0.15042529  1  0  -0.325286  0  3.690404  0  0  -0.404234  0  3.930823  0  0  -0.406971  0  3.941146  0  0  -0.25099  -0.402091  0  3.923776  0
C  C80  1  0.21642794  0.84885832  0.47297509  1  0  -0.325437  0  3.691228  0  0  -0.404848  0  3.931431  0  0  -0.407675  0  3.941771  0  0  -0.250741  -0.402656  0  3.924399  0
C  C81  1  0.72265683  0.39569641  0.52367663  1  0  0.67776  0  3.775995  0  0  0.62279  0  4.072483  0  0  0.656925  0  4.064246  0  0  0.227019  0.599569  0  4.077475  0
C  C82  1  0.05579877  0.47621807  0.87172227  1  0  0.677881  0  3.774914  0  0  0.62211  0  4.072219  0  0  0.656206  0  4.063919  0  0  0.226897  0.598894  0  4.07724  0
C  C83  1  0.38919593  0.12784714  0.60439556  1  0  0.679601  0  3.774068  0  0  0.623818  0  4.071548  0  0  0.657864  0  4.063286  0  0  0.227172  0.600647  0  4.076568  0
N  N84  1  0.94057124  0.57661011  0.61682279  1  0  -0.389178  0  3.25641  0  0  -0.311502  0  3.54863  0  0  -0.332338  0  3.559373  0  0  -0.358683  -0.297594  0  3.541248  0
N  N85  1  0.27334482  0.38310582  0.95951908  1  0  -0.390314  0  3.256314  0  0  -0.312617  0  3.548549  0  0  -0.333509  0  3.559293  0  0  -0.359188  -0.298669  0  3.54115  0
N  N86  1  0.60670831  0.04031443  0.42352707  1  0  -0.389406  0  3.257098  0  0  -0.312019  0  3.549717  0  0  -0.332912  0  3.560479  0  0  -0.359053  -0.29807  0  3.542325  0
O  O87  1  0.33797249  0.58689024  0.71391500  1  0  -0.647325  0  2.115738  0  0  -0.562088  0  2.367995  0  0  -0.591795  0  2.358869  0  0  -0.33195  -0.541173  0  2.373686  0
O  O88  1  0.67079781  0.28592515  0.87296173  1  0  -0.646817  0  2.116288  0  0  -0.561561  0  2.368309  0  0  -0.591203  0  2.359037  0  0  -0.331986  -0.54061  0  2.373898  0
O  O89  1  0.00430601  0.12680314  0.41305084  1  0  -0.647764  0  2.115093  0  0  -0.562223  0  2.367198  0  0  -0.591857  0  2.357981  0  0  -0.332325  -0.54139  0  2.372973  0
O  O90  1  0.59635942  0.32705803  0.44750810  1  0  -0.6085  0  1.988121  0  0  -0.553913  0  2.216607  0  0  -0.57751  0  2.206461  0  0  -0.301808  -0.537583  0  2.223195  0
O  O91  1  0.92990456  0.55256552  0.87924200  1  0  -0.608804  0  1.987033  0  0  -0.553892  0  2.216033  0  0  -0.577496  0  2.205826  0  0  -0.301841  -0.537552  0  2.222649  0
O  O92  1  0.26314482  0.12020625  0.67305183  1  0  -0.610101  0  1.98552  0  0  -0.555168  0  2.214715  0  0  -0.578692  0  2.204397  0  0  -0.302431  -0.538842  0  2.221301  0
O  O93  1  0.82836214  0.36211137  0.58828147  1  0  -0.665721  0  2.13728  0  0  -0.576365  0  2.420366  0  0  -0.606769  0  2.402217  0  0  -0.313126  -0.555315  0  2.432379  0
O  O94  1  0.16142187  0.41146401  0.77356825  1  0  -0.665856  0  2.136854  0  0  -0.576618  0  2.420563  0  0  -0.606832  0  2.402222  0  0  -0.313195  -0.555583  0  2.432581  0
O  O95  1  0.49465958  0.22614723  0.63787128  1  0  -0.666331  0  2.13702  0  0  -0.576875  0  2.420443  0  0  -0.607049  0  2.402097  0  0  -0.313135  -0.555904  0  2.432457  0
O  O96  1  0.21346307  0.32774197  0.48181966  1  0  -0.844361  0  1.91027  0  0  -0.773795  0  2.128898  0  0  -0.797045  0  2.092702  0  0  -0.580654  -0.757422  0  2.153809  0
O  O97  1  0.54710601  0.51798503  0.84584592  1  0  -0.845198  0  1.909202  0  0  -0.774384  0  2.128334  0  0  -0.797718  0  2.092059  0  0  -0.580962  -0.758006  0  2.153391  0
O  O98  1  0.88036107  0.15446900  0.67231038  1  0  -0.84468  0  1.910157  0  0  -0.773892  0  2.129679  0  0  -0.797177  0  2.093368  0  0  -0.580622  -0.757536  0  2.154683  0
