# generated using pymatgen
data_Hg3H12C16(N2Cl3)2
_symmetry_space_group_name_H-M   'P 1'
_cell_length_a   3.87845690
_cell_length_b   9.85434267
_cell_length_c   15.00534600
_cell_angle_alpha   102.75664742
_cell_angle_beta   91.93996999
_cell_angle_gamma   97.17167283
_symmetry_Int_Tables_number   1
_chemical_formula_structural   Hg3H12C16(N2Cl3)2
_chemical_formula_sum   'Hg3 H12 C16 N4 Cl6'
_cell_volume   553.84818225
_cell_formula_units_Z   1
loop_
 _symmetry_equiv_pos_site_id
 _symmetry_equiv_pos_as_xyz
  1  'x, y, z'
loop_
 _atom_site_type_symbol
 _atom_site_label
 _atom_site_symmetry_multiplicity
 _atom_site_fract_x
 _atom_site_fract_y
 _atom_site_fract_z
 _atom_site_occupancy
 _atom_site_hle17_bader_spin_density
 _atom_site_hle17_ddec_charge
 _atom_site_hle17_ddec_spin_density
 _atom_site_hle17_ddec_sum_bond_order
 _atom_site_hle17_magmom
 _atom_site_hse06_10hf_bader_spin_density
 _atom_site_hse06_10hf_ddec_charge
 _atom_site_hse06_10hf_ddec_spin_density
 _atom_site_hse06_10hf_ddec_sum_bond_order
 _atom_site_hse06_10hf_magmom
 _atom_site_hse06_bader_spin_density
 _atom_site_hse06_ddec_charge
 _atom_site_hse06_ddec_spin_density
 _atom_site_hse06_ddec_sum_bond_order
 _atom_site_hse06_magmom
 _atom_site_pbe_bader_spin_density
 _atom_site_pbe_cm5_charge
 _atom_site_pbe_ddec_charge
 _atom_site_pbe_ddec_spin_density
 _atom_site_pbe_ddec_sum_bond_order
 _atom_site_pbe_magmom
Hg  Hg0  1  0.50001945  0.50000258  0.99999890  1  0  0.790105  0  2.038804  0  0  0.643207  0  2.524709  0  0  0.69968  0  2.489064  0  0  0.510207  0.609679  0  2.541664  0
Hg  Hg1  1  0.00000833  0.99999498  0.49999939  1  0  0.743288  0  2.087117  0  0  0.591472  0  2.5833  0  0  0.641916  0  2.547522  0  0  0.492557  0.555944  0  2.60802  0
Hg  Hg2  1  0.00001354  0.00000498  0.99999870  1  0  0.745565  0  2.142962  0  0  0.610607  0  2.652185  0  0  0.655778  0  2.615052  0  0  0.462009  0.588558  0  2.669877  0
H  H3  1  0.37734460  0.65620531  0.83485100  1  0  0.104794  0  0.984307  0  0  0.111775  0  1.053946  0  0  0.114321  0  1.052694  0  0  0.087179  0.109644  0  1.055679  0
H  H4  1  0.62263429  0.34378755  0.16514844  1  0  0.104836  0  0.984276  0  0  0.111781  0  1.05394  0  0  0.114327  0  1.05269  0  0  0.087185  0.109651  0  1.05567  0
H  H5  1  0.31421359  0.04778763  0.71363591  1  0  0.084132  0  0.958811  0  0  0.087548  0  1.030934  0  0  0.09036  0  1.028667  0  0  0.100406  0.086084  0  1.032098  0
H  H6  1  0.68579118  0.95221259  0.28636228  1  0  0.084175  0  0.958766  0  0  0.087593  0  1.030887  0  0  0.090403  0  1.028624  0  0  0.100423  0.086128  0  1.032053  0
H  H7  1  0.54939677  0.20917315  0.86281775  1  0  0.073081  0  1.000332  0  0  0.076612  0  1.077156  0  0  0.07873  0  1.07538  0  0  0.089489  0.074855  0  1.079138  0
H  H8  1  0.45060531  0.79082704  0.13718240  1  0  0.073115  0  1.000392  0  0  0.076646  0  1.077204  0  0  0.078763  0  1.075428  0  0  0.089502  0.07489  0  1.079181  0
H  H9  1  0.07904337  0.74812787  0.71590372  1  0  0.096451  0  0.94595  0  0  0.103553  0  1.011135  0  0  0.106206  0  1.010109  0  0  0.093504  0.102015  0  1.011597  0
H  H10  1  0.92099461  0.25187864  0.28409382  1  0  0.096515  0  0.945863  0  0  0.103547  0  1.011138  0  0  0.106199  0  1.010111  0  0  0.093481  0.102009  0  1.011599  0
H  H11  1  0.80672372  0.58657127  0.57365088  1  0  0.093352  0  0.956265  0  0  0.103767  0  1.017366  0  0  0.106152  0  1.017109  0  0  0.096823  0.101905  0  1.017788  0
H  H12  1  0.19326740  0.41342780  0.42635431  1  0  0.093352  0  0.956313  0  0  0.103786  0  1.017394  0  0  0.10617  0  1.017142  0  0  0.096826  0.101923  0  1.017815  0
H  H13  1  0.83667233  0.32856691  0.54644257  1  0  0.103309  0  0.978919  0  0  0.108709  0  1.052131  0  0  0.111797  0  1.050171  0  0  0.091589  0.106552  0  1.053696  0
H  H14  1  0.16328733  0.67143016  0.45355794  1  0  0.10325  0  0.978908  0  0  0.108648  0  1.052135  0  0  0.111736  0  1.050176  0  0  0.091564  0.106493  0  1.053702  0
C  C15  1  0.12282584  0.34641655  0.67538278  1  0  0.158858  0  3.768819  0  0  0.161675  0  4.005562  0  0  0.164627  0  4.028839  0  0  0.109237  0.159806  0  3.98969  0
C  C16  1  0.87717545  0.65358152  0.32461838  1  0  0.158943  0  3.769072  0  0  0.161806  0  4.005754  0  0  0.164757  0  4.029038  0  0  0.10928  0.15994  0  3.989883  0
C  C17  1  0.27030930  0.44020570  0.75936367  1  0  0.164232  0  3.754139  0  0  0.163661  0  3.991514  0  0  0.167273  0  4.015161  0  0  0.110335  0.160815  0  3.976187  0
C  C18  1  0.72969687  0.55979871  0.24063583  1  0  0.164063  0  3.754259  0  0  0.163484  0  3.991616  0  0  0.167098  0  4.015264  0  0  0.110295  0.160638  0  3.976285  0
C  C19  1  0.25782647  0.58585258  0.77217412  1  0  -0.126397  0  3.713093  0  0  -0.146413  0  3.962179  0  0  -0.1512  0  3.98508  0  0  -0.089947  -0.143485  0  3.947373  0
C  C20  1  0.74217281  0.41414661  0.22782319  1  0  -0.126358  0  3.713198  0  0  -0.146346  0  3.96229  0  0  -0.151136  0  3.985193  0  0  -0.089959  -0.143418  0  3.947482  0
C  C21  1  0.29416313  0.15974567  0.72589461  1  0  0.089824  0  3.691192  0  0  0.061625  0  3.952852  0  0  0.065118  0  3.969309  0  0  0.048731  0.059556  0  3.940497  0
C  C22  1  0.70584690  0.84025553  0.27410845  1  0  0.089822  0  3.691141  0  0  0.061609  0  3.952814  0  0  0.0651  0  3.969277  0  0  0.048727  0.059538  0  3.94047  0
C  C23  1  0.43068688  0.25079986  0.80949331  1  0  0.086309  0  3.695851  0  0  0.056058  0  3.952035  0  0  0.060833  0  3.969354  0  0  0.041202  0.052443  0  3.941408  0
C  C24  1  0.56931072  0.74920243  0.19050777  1  0  0.086208  0  3.695939  0  0  0.05597  0  3.9521  0  0  0.060751  0  3.969409  0  0  0.041163  0.052349  0  3.941475  0
C  C25  1  0.09413527  0.63612498  0.70562309  1  0  -0.033181  0  3.722041  0  0  -0.048741  0  3.974194  0  0  -0.050635  0  3.99672  0  0  -0.080851  -0.046941  0  3.957886  0
C  C26  1  0.90585957  0.36387632  0.29437448  1  0  -0.033244  0  3.722224  0  0  -0.048754  0  3.974361  0  0  -0.050643  0  3.996881  0  0  -0.080843  -0.046955  0  3.958054  0
C  C27  1  0.94016577  0.54373606  0.62407952  1  0  -0.042406  0  3.736974  0  0  -0.056663  0  3.984228  0  0  -0.058331  0  4.006922  0  0  -0.080869  -0.055118  0  3.968392  0
C  C28  1  0.05984420  0.45625680  0.37591763  1  0  -0.042405  0  3.737084  0  0  -0.056658  0  3.984315  0  0  -0.058328  0  4.007011  0  0  -0.080826  -0.055113  0  3.968484  0
C  C29  1  0.95541924  0.40139900  0.60854426  1  0  -0.139409  0  3.71485  0  0  -0.158996  0  3.96447  0  0  -0.163515  0  3.986377  0  0  -0.090667  -0.156004  0  3.94962  0
C  C30  1  0.04457003  0.59859387  0.39145397  1  0  -0.139397  0  3.71502  0  0  -0.159012  0  3.964653  0  0  -0.163533  0  3.986564  0  0  -0.090695  -0.156022  0  3.949804  0
N  N31  1  0.41944860  0.38756630  0.82594934  1  0  -0.29086  0  3.175591  0  0  -0.228238  0  3.432906  0  0  -0.246107  0  3.454954  0  0  -0.286703  -0.216158  0  3.418145  0
N  N32  1  0.58053343  0.61243598  0.17405356  1  0  -0.290725  0  3.175526  0  0  -0.228113  0  3.432846  0  0  -0.245982  0  3.454896  0  0  -0.286631  -0.216028  0  3.418074  0
N  N33  1  0.14118116  0.20585808  0.66050714  1  0  -0.302872  0  3.149272  0  0  -0.251179  0  3.412474  0  0  -0.265731  0  3.432219  0  0  -0.292327  -0.240153  0  3.398137  0
N  N34  1  0.85881123  0.79413683  0.33949477  1  0  -0.302912  0  3.149415  0  0  -0.251229  0  3.412626  0  0  -0.265785  0  3.432379  0  0  -0.292364  -0.240205  0  3.398294  0
Cl  Cl35  1  0.00064034  0.31451690  0.00975043  1  0  -0.45962  0  1.169037  0  0  -0.400824  0  1.495411  0  0  -0.422491  0  1.475903  0  0  -0.242931  -0.385854  0  1.50333  0
Cl  Cl36  1  0.99936925  0.68549058  0.99025424  1  0  -0.459636  0  1.168994  0  0  -0.400856  0  1.4954  0  0  -0.422523  0  1.475894  0  0  -0.242956  -0.385884  0  1.503314  0
Cl  Cl37  1  0.59724458  0.86696786  0.57629715  1  0  -0.416114  0  1.067597  0  0  -0.351834  0  1.3583  0  0  -0.37042  0  1.339876  0  0  -0.226489  -0.339235  0  1.37115  0
Cl  Cl38  1  0.40273505  0.13303448  0.42370238  1  0  -0.416106  0  1.067559  0  0  -0.351826  0  1.358244  0  0  -0.370409  0  1.339822  0  0  -0.226476  -0.339224  0  1.371093  0
Cl  Cl39  1  0.61113530  0.94388259  0.87001193  1  0  -0.382954  0  1.124195  0  0  -0.314721  0  1.41793  0  0  -0.335658  0  1.400869  0  0  -0.210086  -0.307803  0  1.430003  0
Cl  Cl40  1  0.38887679  0.05612393  0.12998729  1  0  -0.382979  0  1.124217  0  0  -0.314736  0  1.417941  0  0  -0.33567  0  1.400873  0  0  -0.210092  -0.307818  0  1.430015  0
