# generated using pymatgen
data_Na2CoH12(C5O4)2
_symmetry_space_group_name_H-M   'P 1'
_cell_length_a   7.65938241
_cell_length_b   9.63133859
_cell_length_c   10.42169813
_cell_angle_alpha   108.89039665
_cell_angle_beta   89.99960363
_cell_angle_gamma   113.43153536
_symmetry_Int_Tables_number   1
_chemical_formula_structural   Na2CoH12(C5O4)2
_chemical_formula_sum   'Na4 Co2 H24 C20 O16'
_cell_volume   660.03745687
_cell_formula_units_Z   2
loop_
 _symmetry_equiv_pos_site_id
 _symmetry_equiv_pos_as_xyz
  1  'x, y, z'
loop_
 _atom_site_type_symbol
 _atom_site_label
 _atom_site_symmetry_multiplicity
 _atom_site_fract_x
 _atom_site_fract_y
 _atom_site_fract_z
 _atom_site_occupancy
 _atom_site_hle17_ddec_charge
 _atom_site_hle17_ddec_spin_density
 _atom_site_hle17_ddec_sum_bond_order
 _atom_site_hle17_magmom
 _atom_site_hse06_10hf_ddec_charge
 _atom_site_hse06_10hf_ddec_spin_density
 _atom_site_hse06_10hf_ddec_sum_bond_order
 _atom_site_hse06_10hf_magmom
 _atom_site_hse06_ddec_charge
 _atom_site_hse06_ddec_spin_density
 _atom_site_hse06_ddec_sum_bond_order
 _atom_site_hse06_magmom
 _atom_site_pbe_cm5_charge
 _atom_site_pbe_ddec_charge
 _atom_site_pbe_ddec_spin_density
 _atom_site_pbe_ddec_sum_bond_order
 _atom_site_pbe_magmom
Na  Na0  1  0.50000120  0.99999939  0.49999937  1  0.898353  -6.7e-05  0.416765  0.0  0.851426  0.000294  0.587451  0.0  0.861725  0.000101  0.565665  0.0  0.69235  0.843156  0.000522  0.603565  0.0
Na  Na1  1  0.49999949  0.00000190  0.00000026  1  0.897955  -4.7e-05  0.416797  0.0  0.850457  0.000321  0.588051  0.0  0.860829  0.000117  0.566213  0.0  0.692098  0.842975  0.000523  0.603186  0.0
Na  Na2  1  0.18079763  0.99996461  0.74998263  1  0.915222  -0.000374  0.347323  0.0  0.876296  -0.000539  0.491323  0.0  0.885374  -0.000569  0.473133  0.0  0.668014  0.869024  -0.000475  0.504827  0.0
Na  Na3  1  0.81919909  0.00003344  0.25001518  1  0.915226  -0.000374  0.34731  0.0  0.8763  -0.000539  0.491304  0.0  0.885378  -0.000569  0.473114  0.0  0.668019  0.869029  -0.000475  0.504807  0.0
Co  Co4  1  0.74468296  0.99998899  0.74997890  1  1.053307  2.810115  1.906173  2.531  1.013883  2.828226  2.353529  2.6  1.107816  2.873616  2.264549  2.689  0.651472  0.930389  2.784068  2.433048  2.516
Co  Co5  1  0.25532000  0.00001632  0.25002204  1  1.053294  2.810107  1.90617  2.531  1.01386  2.828226  2.353529  2.6  1.107798  2.873613  2.264542  2.689  0.651452  0.930363  2.784068  2.43305  2.516
H  H6  1  0.02355184  0.73611492  0.43408635  1  0.121497  -0.000408  0.933874  0.0  0.133496  -0.000122  0.995754  0.0  0.137313  -0.000138  0.992828  0.0  0.109412  0.130615  -9.1e-05  0.998084  0.0
H  H7  1  0.28740088  0.26390416  0.06588581  1  0.121256  -0.000393  0.933381  0.0  0.133683  -0.000115  0.995159  0.0  0.13748  -0.000133  0.992306  0.0  0.109508  0.130707  -9.1e-05  0.997683  0.0
H  H8  1  0.97644548  0.26388435  0.56591373  1  0.121489  -0.000407  0.933871  0.0  0.133489  -0.000122  0.995743  0.0  0.137305  -0.000138  0.992819  0.0  0.109401  0.130613  -9.1e-05  0.998076  0.0
H  H9  1  0.71259966  0.73609632  0.93411464  1  0.121267  -0.000386  0.933403  0.0  0.133702  -0.000115  0.995144  0.0  0.137506  -0.000133  0.992292  0.0  0.109518  0.130726  -9.1e-05  0.997667  0.0
H  H10  1  0.86602443  0.70219286  0.29051462  1  0.098683  0.000386  0.936657  0.001  0.109609  0.000343  1.004122  0.001  0.111789  0.00017  1.002884  0.0  0.101259  0.108046  0.000567  1.005192  0.001
H  H11  1  0.16379308  0.29776886  0.20945294  1  0.098628  0.000399  0.936526  0.001  0.109969  0.000367  1.004016  0.001  0.112133  0.000188  1.002793  0.0  0.101158  0.108434  0.000568  1.005051  0.001
H  H12  1  0.13397410  0.29780883  0.70948619  1  0.098694  0.000383  0.93671  0.001  0.109618  0.000344  1.004164  0.001  0.111801  0.00017  1.002926  0.0  0.101267  0.108061  0.000567  1.005237  0.001
H  H13  1  0.83620877  0.70223162  0.79054655  1  0.098605  0.000401  0.936511  0.001  0.109934  0.000367  1.004001  0.001  0.112104  0.000188  1.002779  0.0  0.101149  0.1084  0.000568  1.005037  0.001
H  H14  1  0.75557831  0.54487710  0.51025658  1  0.063457  -1.5e-05  0.931199  0.0  0.082995  -1.9e-05  0.991249  0.0  0.083891  -3.3e-05  0.991461  0.0  0.092477  0.081879  6e-06  0.991876  0.0
H  H15  1  0.21063460  0.45513791  0.98975224  1  0.063379  -2e-05  0.931137  0.0  0.082847  -2.9e-05  0.991342  0.0  0.083788  -4.1e-05  0.991519  0.0  0.092526  0.081778  6e-06  0.991898  0.0
H  H16  1  0.24442162  0.45512217  0.48974255  1  0.063439  -1.7e-05  0.931229  0.0  0.082978  -2e-05  0.991268  0.0  0.083893  -3.2e-05  0.991456  0.0  0.092462  0.081862  6e-06  0.991894  0.0
H  H17  1  0.78936594  0.54486257  0.01024916  1  0.063367  -2.2e-05  0.931118  0.0  0.08285  -2.9e-05  0.991334  0.0  0.083792  -4.1e-05  0.991506  0.0  0.092525  0.08178  6e-06  0.99189  0.0
H  H18  1  0.58852437  0.51803124  0.37722658  1  0.063243  -4.7e-05  0.938811  0.0  0.082733  -6.1e-05  0.999355  0.0  0.082992  -6.3e-05  1.000843  0.0  0.092486  0.082309  -2.6e-05  0.998759  0.0
H  H19  1  0.07042646  0.48197232  0.12279283  1  0.06356  -4e-05  0.938212  0.0  0.082712  -5e-05  0.999304  0.0  0.083032  -5.7e-05  1.000729  0.0  0.092716  0.082471  -2.6e-05  0.998273  0.0
H  H20  1  0.41147556  0.48196803  0.62277254  1  0.06322  -4.9e-05  0.938822  0.0  0.082719  -6.1e-05  0.999344  0.0  0.082978  -6.3e-05  1.000836  0.0  0.092471  0.082298  -2.6e-05  0.998745  0.0
H  H21  1  0.92957468  0.51802937  0.87720894  1  0.06352  -4.1e-05  0.938259  0.0  0.082673  -5e-05  0.999374  0.0  0.082978  -5.7e-05  1.000817  0.0  0.092721  0.082433  -2.6e-05  0.998342  0.0
H  H22  1  0.77046355  0.40509527  0.20191074  1  0.101952  -0.000141  0.927805  0.0  0.117144  3.7e-05  0.986386  0.0  0.119399  9e-06  0.98542  0.0  0.103313  0.11514  0.000101  0.987964  0.0
H  H23  1  0.36535260  0.59490148  0.29809391  1  0.102348  -0.000122  0.928205  0.0  0.116937  6.1e-05  0.986851  0.0  0.119193  2.7e-05  0.985908  0.0  0.103281  0.114948  0.000101  0.988378  0.0
H  H24  1  0.22953759  0.59490642  0.79809007  1  0.101913  -0.000142  0.927841  0.0  0.117149  3.7e-05  0.986379  0.0  0.119402  9e-06  0.985411  0.0  0.103308  0.115144  0.000101  0.987957  0.0
H  H25  1  0.63464663  0.40509900  0.70190558  1  0.102357  -0.000124  0.928208  0.0  0.11694  6.1e-05  0.986851  0.0  0.119198  2.7e-05  0.985907  0.0  0.103276  0.11495  0.000101  0.988378  0.0
H  H26  1  0.92460161  0.41828055  0.33823026  1  0.103384  0.000373  0.919888  0.001  0.12232  0.00034  0.97112  0.001  0.123525  0.000212  0.971608  0.0  0.105223  0.121508  0.000482  0.970855  0.001
H  H27  1  0.50628238  0.58168681  0.16175716  1  0.103556  0.000343  0.920035  0.001  0.121959  0.000292  0.971096  0.001  0.123217  0.000178  0.971545  0.0  0.104977  0.120961  0.000482  0.971173  0.001
H  H28  1  0.07539892  0.58171993  0.66176923  1  0.103411  0.000374  0.919867  0.001  0.122338  0.00034  0.971122  0.001  0.123542  0.000212  0.971608  0.0  0.105234  0.121527  0.000481  0.970857  0.001
H  H29  1  0.49371936  0.41831609  0.83824401  1  0.103571  0.000343  0.920086  0.001  0.121958  0.000291  0.971145  0.001  0.123218  0.000178  0.971594  0.0  0.104969  0.120961  0.000482  0.971221  0.001
C  C30  1  0.81521732  0.83566277  0.48346940  1  0.73779  -0.006469  3.819621  -0.005  0.701007  0.000546  4.113901  0.0  0.736545  0.000432  4.106103  0.001  0.221274  0.675846  0.000623  4.117408  0.0
C  C31  1  0.97953813  0.16429169  0.01650748  1  0.737027  -0.006411  3.821515  -0.005  0.701211  0.000559  4.114697  0.0  0.736741  0.000427  4.106982  0.001  0.220934  0.676083  0.000623  4.118228  0.0
C  C32  1  0.18478723  0.16433530  0.51652169  1  0.737982  -0.006467  3.819713  -0.005  0.701213  0.000547  4.113961  0.0  0.736748  0.000432  4.106164  0.001  0.221306  0.676056  0.000624  4.117474  0.0
C  C33  1  0.02046572  0.83570758  0.98349357  1  0.736922  -0.006407  3.821634  -0.005  0.701109  0.000561  4.114792  0.0  0.736645  0.000426  4.107079  0.001  0.220888  0.675976  0.000624  4.11832  0.0
C  C34  1  0.87416048  0.70636823  0.39707172  1  -0.28005  0.003365  3.654311  0.005  -0.317066  0.001914  3.903615  0.003  -0.323713  0.001143  3.910928  0.002  -0.161392  -0.31212  0.002786  3.898391  0.004
C  C35  1  0.16772207  0.29360934  0.10289671  1  -0.280086  0.003321  3.652359  0.005  -0.31871  0.001863  3.903023  0.003  -0.325382  0.001109  3.910492  0.002  -0.161852  -0.313804  0.002787  3.897941  0.004
C  C36  1  0.12583815  0.29363104  0.60292932  1  -0.280135  0.00337  3.654202  0.005  -0.317135  0.001913  3.903454  0.003  -0.323789  0.001143  3.910778  0.002  -0.161431  -0.312213  0.002787  3.898264  0.004
C  C37  1  0.83227968  0.70639355  0.89710638  1  -0.280104  0.003307  3.652358  0.005  -0.318659  0.001863  3.902919  0.003  -0.325356  0.001109  3.910415  0.002  -0.161844  -0.313746  0.002787  3.897835  0.004
C  C38  1  0.73909936  0.54172228  0.40428902  1  -0.046112  -0.000693  3.657702  -0.001  -0.08807  5.9e-05  3.914123  0.0  -0.08801  2.8e-05  3.928753  0.0  -0.153288  -0.088033  0.000141  3.904482  0.0
C  C39  1  0.19730538  0.45828798  0.09571922  1  -0.045882  -0.00072  3.655883  -0.001  -0.08789  1.8e-05  3.912551  0.0  -0.087861  -1.3e-05  3.927181  0.0  -0.15364  -0.087753  0.00014  3.902535  0.0
C  C40  1  0.26090117  0.45827820  0.59571047  1  -0.04609  -0.000677  3.657637  -0.001  -0.088028  5.9e-05  3.914015  0.0  -0.087982  2.7e-05  3.928647  0.0  -0.153241  -0.087984  0.000141  3.90438  0.0
C  C41  1  0.80269394  0.54171008  0.90427859  1  -0.045768  -0.000699  3.655848  -0.001  -0.087853  1.8e-05  3.912575  0.0  -0.087805  -1.3e-05  3.927212  0.0  -0.15364  -0.087722  0.00014  3.902563  0.0
C  C42  1  0.77962699  0.40365918  0.30667480  1  -0.257207  0.002753  3.657463  0.004  -0.29411  0.001477  3.904863  0.002  -0.300157  0.000812  3.912989  0.001  -0.158566  -0.289899  0.002183  3.899718  0.003
C  C43  1  0.37596174  0.59635472  0.19333684  1  -0.258829  0.002756  3.658992  0.004  -0.293071  0.001481  3.903997  0.002  -0.299207  0.000817  3.91222  0.001  -0.158259  -0.288866  0.002186  3.899032  0.003
C  C44  1  0.22037476  0.59634372  0.69332541  1  -0.257181  0.002753  3.657499  0.004  -0.294159  0.001477  3.904937  0.002  -0.3002  0.000812  3.913055  0.001  -0.158589  -0.289945  0.002183  3.899795  0.003
C  C45  1  0.62403367  0.40364334  0.80666288  1  -0.2589  0.002756  3.659056  0.004  -0.293113  0.001482  3.904047  0.002  -0.299253  0.000817  3.912283  0.001  -0.158266  -0.288906  0.002186  3.899083  0.003
C  C46  1  0.63395480  0.24182680  0.30672033  1  0.716379  -0.004506  3.850456  -0.004  0.678431  0.001866  4.149567  0.001  0.714765  0.001396  4.140742  0.001  0.211837  0.652673  0.002207  4.153763  0.001
C  C47  1  0.39215251  0.75819292  0.19329723  1  0.717438  -0.004481  3.849114  -0.004  0.678132  0.001853  4.149549  0.001  0.714476  0.001376  4.140805  0.001  0.212143  0.65233  0.002206  4.153812  0.001
C  C48  1  0.36604322  0.75817126  0.69328035  1  0.71636  -0.00452  3.850451  -0.004  0.67846  0.001866  4.149493  0.001  0.71479  0.001396  4.140671  0.001  0.211834  0.65269  0.002206  4.153702  0.001
C  C49  1  0.60785526  0.24180635  0.80670286  1  0.717368  -0.004481  3.849135  -0.004  0.67808  0.001852  4.149536  0.001  0.714407  0.001376  4.140825  0.001  0.212086  0.65228  0.002206  4.153798  0.001
O  O50  1  0.86301600  0.88291124  0.61513345  1  -0.709116  0.048795  2.070023  0.084  -0.668223  0.03663  2.358496  0.057  -0.70865  0.027711  2.341347  0.043  -0.372716  -0.635076  0.045135  2.36921  0.069
O  O51  1  0.98006577  0.11710743  0.88484449  1  -0.708622  0.048796  2.071455  0.084  -0.668035  0.036637  2.359599  0.057  -0.708409  0.027713  2.34236  0.043  -0.372525  -0.63511  0.045163  2.370584  0.069
O  O52  1  0.13698332  0.11708682  0.38487491  1  -0.709107  0.048784  2.070415  0.084  -0.668213  0.036623  2.358872  0.057  -0.708634  0.027707  2.341723  0.043  -0.37267  -0.635065  0.045125  2.369583  0.069
O  O53  1  0.01993476  0.88289304  0.11515500  1  -0.708573  0.048798  2.071463  0.084  -0.667989  0.036637  2.359599  0.057  -0.708362  0.027714  2.342356  0.043  -0.372512  -0.635059  0.045164  2.370568  0.069
O  O54  1  0.71976598  0.88762336  0.42900299  1  -0.728768  0.000708  1.935685  0.003  -0.688168  0.001938  2.185518  0.004  -0.710818  0.001179  2.172992  0.003  -0.423852  -0.671726  0.002762  2.193826  0.005
O  O55  1  0.83215766  0.11228365  0.07099005  1  -0.728487  0.000653  1.936988  0.003  -0.687645  0.00193  2.18566  0.004  -0.710375  0.001184  2.173192  0.003  -0.423732  -0.671495  0.002755  2.193713  0.005
O  O56  1  0.28023567  0.11238196  0.57099891  1  -0.728909  0.000708  1.935698  0.003  -0.688333  0.00194  2.18555  0.004  -0.710984  0.001181  2.173024  0.003  -0.423892  -0.671888  0.002764  2.193859  0.005
O  O57  1  0.16784157  0.88771682  0.92900944  1  -0.728432  0.000653  1.937017  0.003  -0.687593  0.00193  2.185672  0.004  -0.710323  0.001184  2.173203  0.003  -0.423713  -0.671445  0.002755  2.193723  0.005
O  O58  1  0.66860783  0.17678815  0.38459378  1  -0.7199  0.003032  1.923372  0.005  -0.682367  0.004581  2.169018  0.007  -0.704668  0.003242  2.155191  0.005  -0.409932  -0.665694  0.006092  2.178147  0.009
O  O59  1  0.49189670  0.82318711  0.11539669  1  -0.720088  0.003027  1.921957  0.005  -0.682354  0.004578  2.168429  0.007  -0.7047  0.003255  2.154674  0.005  -0.410298  -0.665751  0.006083  2.177274  0.009
O  O60  1  0.33139261  0.82321475  0.61540739  1  -0.71993  0.003035  1.923312  0.005  -0.6824  0.004581  2.168917  0.007  -0.704704  0.00324  2.155093  0.005  -0.409938  -0.665724  0.006092  2.178051  0.009
O  O61  1  0.50809932  0.17681216  0.88460052  1  -0.720024  0.003032  1.92182  0.005  -0.682297  0.004579  2.168279  0.007  -0.704623  0.003254  2.154504  0.005  -0.410236  -0.665693  0.006085  2.177123  0.009
O  O62  1  0.47300787  0.17891862  0.22439645  1  -0.698369  0.048096  2.07753  0.079  -0.66021  0.036545  2.371585  0.053  -0.701339  0.027366  2.354316  0.038  -0.363156  -0.626495  0.04498  2.382271  0.065
O  O63  1  0.29414475  0.82112122  0.27561915  1  -0.698707  0.047977  2.077378  0.079  -0.660371  0.036489  2.372389  0.052  -0.70145  0.027353  2.355143  0.038  -0.362997  -0.626368  0.044959  2.382681  0.065
O  O64  1  0.52699066  0.82108307  0.77560532  1  -0.698369  0.048097  2.077469  0.079  -0.660241  0.036546  2.371522  0.053  -0.701368  0.027367  2.354253  0.038  -0.363183  -0.626523  0.044981  2.38221  0.065
O  O65  1  0.70584814  0.17887442  0.72437984  1  -0.698673  0.047968  2.077567  0.079  -0.660317  0.036486  2.3725  0.052  -0.701384  0.02735  2.355261  0.038  -0.362982  -0.626317  0.044954  2.3828  0.065
