# generated using pymatgen
data_Cd3H14(CO)20
_symmetry_space_group_name_H-M   'P 1'
_cell_length_a   7.96962020
_cell_length_b   13.31790164
_cell_length_c   13.36903132
_cell_angle_alpha   84.89448019
_cell_angle_beta   82.86983292
_cell_angle_gamma   86.05044373
_symmetry_Int_Tables_number   1
_chemical_formula_structural   Cd3H14(CO)20
_chemical_formula_sum   'Cd6 H28 C40 O40'
_cell_volume   1400.00797053
_cell_formula_units_Z   2
loop_
 _symmetry_equiv_pos_site_id
 _symmetry_equiv_pos_as_xyz
  1  'x, y, z'
loop_
 _atom_site_type_symbol
 _atom_site_label
 _atom_site_symmetry_multiplicity
 _atom_site_fract_x
 _atom_site_fract_y
 _atom_site_fract_z
 _atom_site_occupancy
 _atom_site_hle17_bader_spin_density
 _atom_site_hle17_ddec_charge
 _atom_site_hle17_ddec_spin_density
 _atom_site_hle17_ddec_sum_bond_order
 _atom_site_hle17_magmom
 _atom_site_hse06_10hf_bader_spin_density
 _atom_site_hse06_10hf_ddec_charge
 _atom_site_hse06_10hf_ddec_spin_density
 _atom_site_hse06_10hf_ddec_sum_bond_order
 _atom_site_hse06_10hf_magmom
 _atom_site_hse06_bader_spin_density
 _atom_site_hse06_ddec_charge
 _atom_site_hse06_ddec_spin_density
 _atom_site_hse06_ddec_sum_bond_order
 _atom_site_hse06_magmom
 _atom_site_pbe_bader_spin_density
 _atom_site_pbe_cm5_charge
 _atom_site_pbe_ddec_charge
 _atom_site_pbe_ddec_spin_density
 _atom_site_pbe_ddec_sum_bond_order
 _atom_site_pbe_magmom
Cd  Cd0  1  0.15786624  0.01346387  0.10358974  1  0  1.310068  0  1.515157  0  0  1.139829  0  1.946649  0  0  1.194453  0  1.887787  0  0  0.809322  1.100257  0  1.98766  0
Cd  Cd1  1  0.84213958  0.98653517  0.89640759  1  0  1.31011  0  1.515176  0  0  1.139858  0  1.946677  0  0  1.19448  0  1.887815  0  0  0.809304  1.100286  0  1.987682  0
Cd  Cd2  1  0.39641807  0.71759793  0.54721319  1  0  1.261948  0  1.462294  0  0  1.07366  0  1.898013  0  0  1.141365  0  1.832822  0  0  0.79142  1.024799  0  1.943072  0
Cd  Cd3  1  0.60357801  0.28239586  0.45278744  1  0  1.26194  0  1.462376  0  0  1.073607  0  1.898083  0  0  1.141307  0  1.832894  0  0  0.791397  1.024748  0  1.943147  0
Cd  Cd4  1  0.18737629  0.50339036  0.25504093  1  0  1.278746  0  1.46022  0  0  1.103908  0  1.883096  0  0  1.164237  0  1.823101  0  0  0.809464  1.060488  0  1.924631  0
Cd  Cd5  1  0.81261194  0.49660805  0.74495535  1  0  1.278859  0  1.460146  0  0  1.104068  0  1.882953  0  0  1.164368  0  1.823006  0  0  0.809527  1.060652  0  1.92449  0
H  H6  1  0.56368091  0.10175607  0.12052294  1  0  0.416881  0  0.871821  0  0  0.381602  0  0.952753  0  0  0.39516  0  0.933535  0  0  0.310991  0.37213  0  0.964159  0
H  H7  1  0.43632309  0.89824822  0.87947932  1  0  0.416672  0  0.872043  0  0  0.381406  0  0.953007  0  0  0.394982  0  0.933765  0  0  0.310918  0.371918  0  0.964376  0
H  H8  1  0.43202190  0.28833508  0.10549043  1  0  0.41131  0  0.878974  0  0  0.381611  0  0.951246  0  0  0.393539  0  0.936976  0  0  0.314966  0.37319  0  0.960015  0
H  H9  1  0.56798949  0.71167297  0.89450656  1  0  0.411424  0  0.87895  0  0  0.381677  0  0.951278  0  0  0.393638  0  0.936864  0  0  0.315009  0.373254  0  0.96005  0
H  H10  1  0.22919459  0.13198230  0.26181891  1  0  0.451695  0  0.845473  0  0  0.419143  0  0.909145  0  0  0.43143  0  0.891533  0  0  0.284571  0.410454  0  0.921564  0
H  H11  1  0.77081412  0.86801063  0.73818469  1  0  0.451722  0  0.845451  0  0  0.419137  0  0.909175  0  0  0.431424  0  0.891562  0  0  0.284552  0.410433  0  0.921614  0
H  H12  1  0.02273084  0.14089276  0.25083396  1  0  0.436995  0  0.865774  0  0  0.403639  0  0.932619  0  0  0.415547  0  0.915695  0  0  0.285321  0.395152  0  0.944646  0
H  H13  1  0.97727792  0.85909785  0.74917581  1  0  0.436967  0  0.865824  0  0  0.403617  0  0.932666  0  0  0.415519  0  0.915751  0  0  0.285297  0.395126  0  0.944701  0
H  H14  1  0.32712904  0.84073870  0.04788923  1  0  0.422961  0  0.860653  0  0  0.394312  0  0.927728  0  0  0.404329  0  0.913107  0  0  0.302007  0.387146  0  0.938205  0
H  H15  1  0.67287560  0.15925882  0.95210978  1  0  0.42296  0  0.860681  0  0  0.394315  0  0.927732  0  0  0.404331  0  0.913112  0  0  0.301996  0.387149  0  0.93821  0
H  H16  1  0.24420050  0.80101597  0.15956172  1  0  0.442881  0  0.861921  0  0  0.409059  0  0.927716  0  0  0.42185  0  0.910039  0  0  0.286144  0.400032  0  0.940144  0
H  H17  1  0.75580029  0.19898233  0.84043749  1  0  0.442889  0  0.861896  0  0  0.409068  0  0.927692  0  0  0.421859  0  0.910015  0  0  0.286131  0.400039  0  0.940123  0
H  H18  1  0.57085684  0.87879693  0.62876695  1  0  0.418215  0  0.872855  0  0  0.391118  0  0.932384  0  0  0.399994  0  0.919343  0  0  0.294497  0.384871  0  0.941558  0
H  H19  1  0.42915356  0.12120657  0.37123421  1  0  0.418197  0  0.872869  0  0  0.391111  0  0.932398  0  0  0.399987  0  0.919358  0  0  0.294488  0.384866  0  0.941568  0
H  H20  1  0.73516233  0.80241633  0.61637393  1  0  0.417008  0  0.8954  0  0  0.383018  0  0.964754  0  0  0.394181  0  0.948507  0  0  0.285936  0.375174  0  0.976136  0
H  H21  1  0.26484320  0.19758571  0.38362542  1  0  0.417092  0  0.895294  0  0  0.383073  0  0.964696  0  0  0.394237  0  0.948447  0  0  0.285947  0.375229  0  0.976078  0
H  H22  1  0.03884225  0.32867488  0.33614208  1  0  0.432225  0  0.870481  0  0  0.39869  0  0.93625  0  0  0.411196  0  0.918411  0  0  0.288355  0.389833  0  0.948843  0
H  H23  1  0.96114686  0.67132649  0.66385990  1  0  0.43241  0  0.870186  0  0  0.398819  0  0.936053  0  0  0.411325  0  0.918215  0  0  0.288426  0.389965  0  0.948642  0
H  H24  1  0.89286824  0.39864511  0.29146351  1  0  0.431183  0  0.869868  0  0  0.398711  0  0.934652  0  0  0.410264  0  0.918084  0  0  0.289166  0.390543  0  0.94634  0
H  H25  1  0.10711104  0.60135332  0.70853710  1  0  0.430973  0  0.870132  0  0  0.398478  0  0.93495  0  0  0.410035  0  0.918374  0  0  0.289094  0.390308  0  0.946639  0
H  H26  1  0.92650969  0.84111574  0.14803072  1  0  0.109433  0  0.960853  0  0  0.11635  0  1.025289  0  0  0.120079  0  1.023075  0  0  0.107903  0.113663  0  1.026969  0
H  H27  1  0.07349453  0.15888629  0.85197022  1  0  0.109253  0  0.960972  0  0  0.116198  0  1.025378  0  0  0.119926  0  1.023172  0  0  0.10782  0.113508  0  1.027058  0
H  H28  1  0.84038749  0.94475416  0.49949304  1  0  0.109536  0  0.935915  0  0  0.118578  0  0.99747  0  0  0.122342  0  0.995321  0  0  0.113745  0.115815  0  0.999225  0
H  H29  1  0.15961358  0.05524035  0.50050795  1  0  0.109534  0  0.935991  0  0  0.118576  0  0.997523  0  0  0.122338  0  0.995379  0  0  0.113738  0.115814  0  0.999277  0
H  H30  1  0.33683136  0.54292059  0.89738219  1  0  0.11868  0  0.929885  0  0  0.127888  0  0.987766  0  0  0.131983  0  0.985126  0  0  0.114  0.124951  0  0.989744  0
H  H31  1  0.66316651  0.45708225  0.10261759  1  0  0.118691  0  0.929726  0  0  0.127902  0  0.987618  0  0  0.131998  0  0.984974  0  0  0.11397  0.124962  0  0.9896  0
H  H32  1  0.39975054  0.19373417  0.79404079  1  0  0.121377  0  0.941307  0  0  0.1289  0  1.004132  0  0  0.13256  0  1.001963  0  0  0.111322  0.126244  0  1.00582  0
H  H33  1  0.60024714  0.80627093  0.20595883  1  0  0.121315  0  0.941348  0  0  0.128845  0  1.004159  0  0  0.132497  0  1.002012  0  0  0.111269  0.126191  0  1.005835  0
C  C34  1  0.77191237  0.02403600  0.15979958  1  0  0.712526  0  3.771243  0  0  0.654093  0  4.070282  0  0  0.691541  0  4.058847  0  0  0.24737  0.628423  0  4.077631  0
C  C35  1  0.22809216  0.97596226  0.84020163  1  0  0.712183  0  3.771124  0  0  0.653797  0  4.070144  0  0  0.691295  0  4.058646  0  0  0.247219  0.628105  0  4.077499  0
C  C36  1  0.06048468  0.70183236  0.27695107  1  0  0.663526  0  3.897644  0  0  0.609203  0  4.194663  0  0  0.644292  0  4.188103  0  0  0.210643  0.585309  0  4.198318  0
C  C37  1  0.93952267  0.29816366  0.72304565  1  0  0.663384  0  3.897894  0  0  0.60917  0  4.194796  0  0  0.64426  0  4.188227  0  0  0.210667  0.585282  0  4.198451  0
C  C38  1  0.00753604  0.76006813  0.48725523  1  0  0.679195  0  3.901995  0  0  0.620282  0  4.207989  0  0  0.655344  0  4.199021  0  0  0.22152  0.596419  0  4.213303  0
C  C39  1  0.99247375  0.23992862  0.51274277  1  0  0.678922  0  3.902169  0  0  0.620023  0  4.208068  0  0  0.655089  0  4.199104  0  0  0.2215  0.596161  0  4.21338  0
C  C40  1  0.75310720  0.09693084  0.36125427  1  0  0.638039  0  3.940757  0  0  0.583656  0  4.241422  0  0  0.616458  0  4.237517  0  0  0.204728  0.561458  0  4.243093  0
C  C41  1  0.24688621  0.90306369  0.63875021  1  0  0.637707  0  3.941399  0  0  0.583325  0  4.242133  0  0  0.61613  0  4.238223  0  0  0.204519  0.561119  0  4.243808  0
C  C42  1  0.83368706  0.95885519  0.24492781  1  0  -0.122231  0  3.818236  0  0  -0.107771  0  4.055711  0  0  -0.11558  0  4.077364  0  0  -0.02144  -0.102502  0  4.041078  0
C  C43  1  0.16631479  0.04114536  0.75507190  1  0  -0.122267  0  3.817933  0  0  -0.107746  0  4.055405  0  0  -0.115557  0  4.077038  0  0  -0.021458  -0.102478  0  4.040776  0
C  C44  1  0.91504111  0.86528940  0.22455594  1  0  -0.136753  0  3.796444  0  0  -0.164314  0  4.0476  0  0  -0.165671  0  4.067994  0  0  -0.091031  -0.163186  0  4.033741  0
C  C45  1  0.08495825  0.13471196  0.77543938  1  0  -0.136635  0  3.79668  0  0  -0.164206  0  4.047849  0  0  -0.165564  0  4.068245  0  0  -0.090982  -0.163075  0  4.033984  0
C  C46  1  0.97156476  0.80043637  0.30288848  1  0  -0.030791  0  3.691557  0  0  -0.017602  0  3.925058  0  0  -0.02162  0  3.943596  0  0  0.002469  -0.015184  0  3.912902  0
C  C47  1  0.02843816  0.19956566  0.69711403  1  0  -0.030687  0  3.691955  0  0  -0.017554  0  3.925399  0  0  -0.021568  0  3.943939  0  0  0.002515  -0.015136  0  3.913244  0
C  C48  1  0.94081296  0.82781094  0.40276585  1  0  -0.016905  0  3.653361  0  0  -0.008327  0  3.895251  0  0  -0.009981  0  3.911656  0  0  0.011336  -0.007568  0  3.884609  0
C  C49  1  0.05919060  0.17218433  0.59723342  1  0  -0.016772  0  3.653263  0  0  -0.008133  0  3.895036  0  0  -0.009798  0  3.911458  0  0  0.011363  -0.007384  0  3.884412  0
C  C50  1  0.86000982  0.92193416  0.42237198  1  0  -0.060054  0  3.649149  0  0  -0.095014  0  3.901781  0  0  -0.09508  0  3.917923  0  0  -0.065107  -0.095035  0  3.891277  0
C  C51  1  0.13999885  0.07805953  0.57763082  1  0  -0.060266  0  3.649498  0  0  -0.095203  0  3.902177  0  0  -0.095269  0  3.91833  0  0  -0.065199  -0.095225  0  3.891675  0
C  C52  1  0.80981619  0.98909569  0.34409265  1  0  -0.018263  0  3.688649  0  0  -0.006862  0  3.925144  0  0  -0.008286  0  3.942653  0  0  0.004436  -0.006171  0  3.913535  0
C  C53  1  0.19017643  0.01089513  0.65590470  1  0  -0.017986  0  3.688505  0  0  -0.006731  0  3.925192  0  0  -0.008156  0  3.942699  0  0  0.004513  -0.00604  0  3.913582  0
C  C54  1  0.37043058  0.19208040  0.99181779  1  0  0.693191  0  3.8497  0  0  0.636025  0  4.150726  0  0  0.671856  0  4.14025  0  0  0.234954  0.611554  0  4.15723  0
C  C55  1  0.62956240  0.80792020  0.00818325  1  0  0.693373  0  3.849576  0  0  0.636066  0  4.15073  0  0  0.671904  0  4.140245  0  0  0.234848  0.611593  0  4.157241  0
C  C56  1  0.31347687  0.41369056  0.05666877  1  0  0.662106  0  3.798678  0  0  0.608987  0  4.097112  0  0  0.642753  0  4.090438  0  0  0.239716  0.586007  0  4.101058  0
C  C57  1  0.68652610  0.58631226  0.94332919  1  0  0.662178  0  3.798918  0  0  0.609137  0  4.097228  0  0  0.642903  0  4.090554  0  0  0.239748  0.586167  0  4.101159  0
C  C58  1  0.43720053  0.53854813  0.69826943  1  0  0.707941  0  3.864008  0  0  0.644125  0  4.16934  0  0  0.682393  0  4.159397  0  0  0.229756  0.617864  0  4.175456  0
C  C59  1  0.56278836  0.46145627  0.30173083  1  0  0.707738  0  3.864425  0  0  0.643941  0  4.16972  0  0  0.682204  0  4.159771  0  0  0.229707  0.617685  0  4.175834  0
C  C60  1  0.44737105  0.32508716  0.63549011  1  0  0.611189  0  3.968346  0  0  0.563781  0  4.259674  0  0  0.59708  0  4.257222  0  0  0.186845  0.541288  0  4.260163  0
C  C61  1  0.55263438  0.67491563  0.36451068  1  0  0.611424  0  3.968178  0  0  0.564095  0  4.259401  0  0  0.597395  0  4.25694  0  0  0.186943  0.541611  0  4.25988  0
C  C62  1  0.36288113  0.28569282  0.92115985  1  0  -0.077654  0  3.720816  0  0  -0.066465  0  3.960312  0  0  -0.071288  0  3.980876  0  0  -0.012405  -0.063317  0  3.946515  0
C  C63  1  0.63711665  0.71431154  0.07883833  1  0  -0.077661  0  3.720936  0  0  -0.066358  0  3.960321  0  0  -0.07118  0  3.980879  0  0  -0.012382  -0.063215  0  3.946527  0
C  C64  1  0.34407808  0.38590754  0.95008214  1  0  -0.087783  0  3.743106  0  0  -0.072238  0  3.980326  0  0  -0.078826  0  4.002923  0  0  -0.012639  -0.067869  0  3.965093  0
C  C65  1  0.65592483  0.61409604  0.04991576  1  0  -0.087836  0  3.743115  0  0  -0.07235  0  3.980298  0  0  -0.078939  0  4.002897  0  0  -0.012706  -0.067973  0  3.965054  0
C  C66  1  0.35502021  0.46603974  0.87450423  1  0  -0.071972  0  3.688262  0  0  -0.107585  0  3.941492  0  0  -0.107717  0  3.960552  0  0  -0.07432  -0.10739  0  3.928652  0
C  C67  1  0.64498245  0.53396530  0.12549881  1  0  -0.071942  0  3.687978  0  0  -0.107561  0  3.941244  0  0  -0.107694  0  3.960309  0  0  -0.074233  -0.107375  0  3.928412  0
C  C68  1  0.39590247  0.44903717  0.77236971  1  0  -0.058277  0  3.695827  0  0  -0.044004  0  3.939787  0  0  -0.047547  0  3.956859  0  0  0.004078  -0.041812  0  3.928527  0
C  C69  1  0.60409282  0.55096566  0.22763249  1  0  -0.058138  0  3.695828  0  0  -0.0439  0  3.939814  0  0  -0.047445  0  3.956885  0  0  0.004105  -0.04171  0  3.928552  0
C  C70  1  0.40552027  0.34961267  0.74371016  1  0  -0.011033  0  3.672166  0  0  -0.003986  0  3.914664  0  0  -0.006377  0  3.931565  0  0  0.007188  -0.002645  0  3.903489  0
C  C71  1  0.59448016  0.65038938  0.25629102  1  0  -0.011121  0  3.672152  0  0  -0.004098  0  3.914652  0  0  -0.006482  0  3.931533  0  0  0.007107  -0.002758  0  3.903475  0
C  C72  1  0.38579598  0.26994970  0.81843070  1  0  -0.057  0  3.671695  0  0  -0.091634  0  3.927056  0  0  -0.091616  0  3.945219  0  0  -0.070489  -0.091606  0  3.91496  0
C  C73  1  0.61420960  0.73005236  0.18156640  1  0  -0.056933  0  3.671545  0  0  -0.091574  0  3.926834  0  0  -0.091562  0  3.944995  0  0  -0.07037  -0.091549  0  3.914735  0
O  O74  1  0.86895286  0.04759236  0.08022961  1  0  -0.652494  0  2.017134  0  0  -0.583752  0  2.269218  0  0  -0.61257  0  2.253663  0  0  -0.302231  -0.563526  0  2.279468  0
O  O75  1  0.13104640  0.95240741  0.91977557  1  0  -0.652137  0  2.016875  0  0  -0.583441  0  2.268989  0  0  -0.612273  0  2.253416  0  0  -0.302009  -0.56321  0  2.279232  0
O  O76  1  0.61062755  0.05058752  0.17394721  1  0  -0.498299  0  2.093607  0  0  -0.439672  0  2.30299  0  0  -0.462914  0  2.284019  0  0  -0.295435  -0.423868  0  2.314346  0
O  O77  1  0.38938138  0.94941902  0.82605231  1  0  -0.498108  0  2.093702  0  0  -0.439541  0  2.303111  0  0  -0.462837  0  2.284141  0  0  -0.295391  -0.423688  0  2.314407  0
O  O78  1  0.19114886  0.70272064  0.21072528  1  0  -0.641098  0  1.97688  0  0  -0.57585  0  2.195667  0  0  -0.605837  0  2.185473  0  0  -0.310287  -0.554682  0  2.201976  0
O  O79  1  0.80885445  0.29727842  0.78927146  1  0  -0.641023  0  1.976899  0  0  -0.575811  0  2.195626  0  0  -0.605797  0  2.185434  0  0  -0.310285  -0.554638  0  2.201934  0
O  O80  1  0.99961106  0.62075856  0.31842867  1  0  -0.596826  0  1.958337  0  0  -0.531293  0  2.190881  0  0  -0.562346  0  2.180816  0  0  -0.303452  -0.509644  0  2.197163  0
O  O81  1  0.00037943  0.37924285  0.68156798  1  0  -0.596858  0  1.958255  0  0  -0.531387  0  2.190782  0  0  -0.562434  0  2.180715  0  0  -0.303527  -0.509743  0  2.197073  0
O  O82  1  0.15734609  0.72363332  0.46849427  1  0  -0.637514  0  2.029954  0  0  -0.575897  0  2.286124  0  0  -0.606359  0  2.273769  0  0  -0.320957  -0.554149  0  2.293677  0
O  O83  1  0.84265047  0.27635598  0.53150219  1  0  -0.637369  0  2.029908  0  0  -0.575811  0  2.286111  0  0  -0.606273  0  2.273757  0  0  -0.320924  -0.554059  0  2.293659  0
O  O84  1  0.91038264  0.74675410  0.56958232  1  0  -0.62393  0  2.035355  0  0  -0.555036  0  2.249481  0  0  -0.582545  0  2.237855  0  0  -0.296516  -0.535674  0  2.256862  0
O  O85  1  0.08962652  0.25325020  0.43041511  1  0  -0.623852  0  2.035555  0  0  -0.554915  0  2.249601  0  0  -0.582425  0  2.237977  0  0  -0.296525  -0.535554  0  2.256983  0
O  O86  1  0.63488559  0.11303958  0.43286258  1  0  -0.634526  0  2.002665  0  0  -0.561816  0  2.237035  0  0  -0.592998  0  2.225845  0  0  -0.313542  -0.539862  0  2.243876  0
O  O87  1  0.36509670  0.88695279  0.56713907  1  0  -0.63443  0  2.002839  0  0  -0.561691  0  2.237186  0  0  -0.592873  0  2.225997  0  0  -0.313518  -0.539737  0  2.244028  0
O  O88  1  0.82830137  0.16498217  0.30429230  1  0  -0.610983  0  1.958914  0  0  -0.558683  0  2.178185  0  0  -0.585099  0  2.170224  0  0  -0.307074  -0.539998  0  2.182996  0
O  O89  1  0.17170419  0.83501521  0.69572163  1  0  -0.610786  0  1.959316  0  0  -0.558461  0  2.178568  0  0  -0.584871  0  2.1706  0  0  -0.306909  -0.53977  0  2.183376  0
O  O90  1  0.27787562  0.12183978  0.98101729  1  0  -0.629039  0  2.059415  0  0  -0.563327  0  2.319899  0  0  -0.593634  0  2.307731  0  0  -0.307905  -0.542003  0  2.327567  0
O  O91  1  0.72211077  0.87816543  0.01897932  1  0  -0.629294  0  2.0595  0  0  -0.563487  0  2.319992  0  0  -0.593792  0  2.307813  0  0  -0.307886  -0.542161  0  2.327664  0
O  O92  1  0.48052435  0.18759886  0.05577307  1  0  -0.650904  0  2.039346  0  0  -0.582701  0  2.251065  0  0  -0.608203  0  2.235282  0  0  -0.305908  -0.564942  0  2.260951  0
O  O93  1  0.51946956  0.81240472  0.94423141  1  0  -0.650853  0  2.039334  0  0  -0.58258  0  2.251099  0  0  -0.608114  0  2.235293  0  0  -0.305854  -0.564817  0  2.26098  0
O  O94  1  0.37151592  0.35299267  0.12992659  1  0  -0.534064  0  2.132784  0  0  -0.478115  0  2.350881  0  0  -0.501429  0  2.335925  0  0  -0.315332  -0.461891  0  2.359777  0
O  O95  1  0.62850288  0.64701683  0.87007205  1  0  -0.534262  0  2.132958  0  0  -0.478298  0  2.351078  0  0  -0.501628  0  2.336004  0  0  -0.315349  -0.462077  0  2.359972  0
O  O96  1  0.23804418  0.49542857  0.07862739  1  0  -0.568571  0  1.964541  0  0  -0.51194  0  2.197399  0  0  -0.537928  0  2.186135  0  0  -0.284574  -0.493902  0  2.204734  0
O  O97  1  0.76195008  0.50457202  0.92137282  1  0  -0.568623  0  1.964594  0  0  -0.512035  0  2.197406  0  0  -0.538023  0  2.186147  0  0  -0.284645  -0.494009  0  2.204746  0
O  O98  1  0.31463686  0.59422246  0.66764645  1  0  -0.620431  0  2.058927  0  0  -0.539867  0  2.301187  0  0  -0.572788  0  2.286572  0  0  -0.290615  -0.516851  0  2.310615  0
O  O99  1  0.68534170  0.40577150  0.33234708  1  0  -0.62056  0  2.059216  0  0  -0.539913  0  2.301376  0  0  -0.572811  0  2.286742  0  0  -0.290708  -0.516894  0  2.310802  0
O  O100  1  0.59002475  0.56128910  0.67576708  1  0  -0.638032  0  2.046284  0  0  -0.567845  0  2.312178  0  0  -0.601172  0  2.296845  0  0  -0.307496  -0.544318  0  2.32186  0
O  O101  1  0.40996727  0.43872281  0.32423462  1  0  -0.637802  0  2.046523  0  0  -0.567626  0  2.312385  0  0  -0.600966  0  2.297067  0  0  -0.307353  -0.544106  0  2.322073  0
O  O102  1  0.48776304  0.39741589  0.57024522  1  0  -0.58868  0  1.952211  0  0  -0.526452  0  2.179037  0  0  -0.55682  0  2.17141  0  0  -0.306716  -0.505014  0  2.183313  0
O  O103  1  0.51225402  0.60258380  0.42975506  1  0  -0.588736  0  1.952175  0  0  -0.526554  0  2.178993  0  0  -0.556923  0  2.171363  0  0  -0.306759  -0.505127  0  2.183274  0
O  O104  1  0.44819626  0.23346754  0.61539958  1  0  -0.625658  0  1.91704  0  0  -0.569705  0  2.143896  0  0  -0.600353  0  2.137514  0  0  -0.328606  -0.547962  0  2.147314  0
O  O105  1  0.55179277  0.76653536  0.38460004  1  0  -0.625773  0  1.916881  0  0  -0.569877  0  2.14374  0  0  -0.600521  0  2.13735  0  0  -0.328663  -0.548141  0  2.147156  0
O  O106  1  0.13913966  0.12257968  0.21576301  1  0  -0.903071  0  1.860512  0  0  -0.825571  0  2.067967  0  0  -0.853684  0  2.030638  0  0  -0.597506  -0.805587  0  2.093786  0
O  O107  1  0.86086429  0.87740872  0.78424426  1  0  -0.903058  0  1.860502  0  0  -0.825558  0  2.06798  0  0  -0.853664  0  2.030658  0  0  -0.597463  -0.805581  0  2.09386  0
O  O108  1  0.28944494  0.86454628  0.11473690  1  0  -0.868164  0  1.89926  0  0  -0.793623  0  2.114074  0  0  -0.820642  0  2.078136  0  0  -0.580007  -0.774451  0  2.139006  0
O  O109  1  0.71055467  0.13545050  0.88526401  1  0  -0.868174  0  1.89929  0  0  -0.793631  0  2.114069  0  0  -0.820652  0  2.078132  0  0  -0.579989  -0.774455  0  2.138999  0
O  O110  1  0.64785742  0.83406806  0.66675121  1  0  -0.833353  0  1.82736  0  0  -0.779571  0  1.985114  0  0  -0.799211  0  1.95346  0  0  -0.587022  -0.765559  0  2.007098  0
O  O111  1  0.35214823  0.16593247  0.33324826  1  0  -0.833384  0  1.82728  0  0  -0.77962  0  1.98506  0  0  -0.79926  0  1.953406  0  0  -0.587035  -0.765619  0  2.007039  0
O  O112  1  0.01534795  0.37788326  0.27663945  1  0  -0.854535  0  1.841528  0  0  -0.783679  0  2.038282  0  0  -0.81012  0  2.000325  0  0  -0.595518  -0.764909  0  2.064559  0
O  O113  1  0.98463618  0.62211739  0.72336216  1  0  -0.854557  0  1.841531  0  0  -0.783629  0  2.03837  0  0  -0.810063  0  2.000411  0  0  -0.595551  -0.764856  0  2.064641  0
