# generated using pymatgen
data_Zn4H8C24S4O15
_symmetry_space_group_name_H-M   'P 1'
_cell_length_a   19.65156148
_cell_length_b   19.69087872
_cell_length_c   33.32901243
_cell_angle_alpha   79.20894271
_cell_angle_beta   79.32385012
_cell_angle_gamma   64.03915390
_symmetry_Int_Tables_number   1
_chemical_formula_structural   Zn4H8C24S4O15
_chemical_formula_sum   'Zn16 H32 C96 S16 O60'
_cell_volume   11312.27404204
_cell_formula_units_Z   4
loop_
 _symmetry_equiv_pos_site_id
 _symmetry_equiv_pos_as_xyz
  1  'x, y, z'
loop_
 _atom_site_type_symbol
 _atom_site_label
 _atom_site_symmetry_multiplicity
 _atom_site_fract_x
 _atom_site_fract_y
 _atom_site_fract_z
 _atom_site_occupancy
 _atom_site_pbe_bader_charge
 _atom_site_pbe_bader_spin_density
 _atom_site_pbe_cm5_charge
 _atom_site_pbe_ddec_charge
 _atom_site_pbe_ddec_spin_density
 _atom_site_pbe_ddec_sum_bond_order
 _atom_site_pbe_magmom
Zn  Zn0  1  0.05683248  0.40054822  0.47861934  1  1.318971  0  0.669352  0.97096  0  2.349164  0
Zn  Zn1  1  0.98393971  0.48348111  0.56016513  1  1.31748  0  0.672243  0.953372  0  2.394809  0
Zn  Zn2  1  0.05855423  0.56205871  0.48291925  1  1.317621  0  0.670963  0.962265  0  2.371468  0
Zn  Zn3  1  0.90016916  0.55451040  0.47921097  1  1.320374  0  0.670879  0.962814  0  2.371021  0
Zn  Zn4  1  0.69478749  0.34968195  0.27101578  1  1.321014  0  0.670017  0.968036  0  2.361859  0
Zn  Zn5  1  0.68960228  0.19007901  0.26687724  1  1.315047  0  0.669688  0.965037  0  2.370353  0
Zn  Zn6  1  0.76897259  0.26529942  0.18959539  1  1.318288  0  0.671496  0.962688  0  2.368642  0
Zn  Zn7  1  0.84824476  0.19506382  0.27233402  1  1.316238  0  0.672069  0.957941  0  2.380827  0
Zn  Zn8  1  0.26640769  0.76688213  0.68975854  1  1.312816  0  0.670322  0.961873  0  2.373558  0
Zn  Zn9  1  0.34876050  0.69548893  0.77158465  1  1.313303  0  0.671082  0.960544  0  2.383173  0
Zn  Zn10  1  0.19314206  0.84838679  0.77216075  1  1.320748  0  0.669835  0.968673  0  2.362561  0
Zn  Zn11  1  0.19133381  0.68777879  0.76700486  1  1.318906  0  0.67233  0.963265  0  2.371067  0
Zn  Zn12  1  0.56042983  0.06011669  0.98327808  1  1.31593  0  0.670902  0.964805  0  2.372705  0
Zn  Zn13  1  0.40120103  0.05507632  0.97817608  1  1.313463  0  0.671466  0.962426  0  2.372875  0
Zn  Zn14  1  0.55511366  0.90135979  0.97827153  1  1.313098  0  0.670487  0.966225  0  2.377402  0
Zn  Zn15  1  0.48351163  0.98306586  0.06034423  1  1.31344  0  0.671427  0.96575  0  2.370348  0
H  H16  1  0.79653153  0.50195465  0.39923658  1  0.095196  0  0.109743  0.115708  0  0.991363  0
H  H17  1  0.95369193  0.24819468  0.35090513  1  0.087322  0  0.108638  0.114224  0  0.993236  0
H  H18  1  0.74780555  0.45431209  0.35099319  1  0.084399  0  0.108214  0.113905  0  0.993552  0
H  H19  1  0.00239274  0.29592582  0.39910977  1  0.083243  0  0.10925  0.115193  0  0.991931  0
H  H20  1  0.15259167  0.65265936  0.54921307  1  0.086655  0  0.110104  0.116609  0  0.990581  0
H  H21  1  0.09770735  0.59762548  0.70067084  1  0.085198  0  0.108473  0.11412  0  0.994196  0
H  H22  1  0.20087281  0.70081140  0.59751125  1  0.085163  0  0.108056  0.113549  0  0.994504  0
H  H23  1  0.04947472  0.54952439  0.65231421  1  0.098752  0  0.109687  0.115646  0  0.99093  0
H  H24  1  0.46238121  0.24069782  0.34126250  1  0.104515  0  0.1214  0.146376  0  0.968485  0
H  H25  1  0.47991340  0.70236110  0.60123780  1  0.102766  0  0.122268  0.14757  0  0.967636  0
H  H26  1  0.20216666  0.98011263  0.60154226  1  0.099115  0  0.122177  0.1472  0  0.966845  0
H  H27  1  0.94869536  0.96951743  0.34821404  1  0.114115  0  0.12279  0.148256  0  0.966628  0
H  H28  1  0.70068118  0.20064783  0.09766302  1  0.093924  0  0.110174  0.116336  0  0.990777  0
H  H29  1  0.54929217  0.04934395  0.15249324  1  0.090944  0  0.108695  0.113728  0  0.993266  0
H  H30  1  0.65247065  0.15256977  0.04935192  1  0.086011  0  0.108445  0.114216  0  0.993354  0
H  H31  1  0.59749021  0.09749105  0.20076039  1  0.086575  0  0.109638  0.115845  0  0.991344  0
H  H32  1  0.54799382  0.76939811  0.14862242  1  0.105448  0  0.122703  0.147762  0  0.966458  0
H  H33  1  0.16216767  0.14153213  0.04068893  1  0.114625  0  0.122288  0.147847  0  0.966826  0
H  H34  1  0.24751946  0.95421804  0.85085146  1  0.083296  0  0.109787  0.115788  0  0.991293  0
H  H35  1  0.50203784  0.79612157  0.89911182  1  0.086424  0  0.108587  0.113849  0  0.993323  0
H  H36  1  0.29600040  0.00214691  0.89907774  1  0.082401  0  0.108429  0.113929  0  0.993478  0
H  H37  1  0.45350455  0.74830470  0.85086448  1  0.092154  0  0.109771  0.115645  0  0.991609  0
H  H38  1  0.30092925  0.28054256  0.90180229  1  0.114467  0  0.12266  0.147667  0  0.96725  0
H  H39  1  0.78768097  0.00935769  0.90874785  1  0.103535  0  0.122462  0.147542  0  0.966701  0
H  H40  1  0.32585680  0.54275343  0.39819253  1  0.586721  0  0.341547  0.36655  0  0.868781  0
H  H41  1  0.75649438  0.53966997  0.68445480  1  0.617725  0  0.339953  0.364691  0  0.871117  0
H  H42  1  0.03986967  0.25646217  0.68421563  1  0.617872  0  0.33994  0.364612  0  0.869975  0
H  H43  1  0.74284202  0.81579803  0.38807193  1  0.599645  0  0.340916  0.365008  0  0.870417  0
H  H44  1  0.71052399  0.49332769  0.06555450  1  0.618292  0  0.341114  0.366339  0  0.868317  0
H  H45  1  0.14838995  0.07577251  0.22072924  1  0.586818  0  0.341975  0.366651  0  0.867914  0
H  H46  1  0.50713515  0.43399652  0.86204682  1  0.598245  0  0.340971  0.36582  0  0.869222  0
H  H47  1  0.92418274  0.70710753  0.85178269  1  0.586278  0  0.342108  0.367065  0  0.868187  0
C  C48  1  0.06124992  0.31652801  0.56222830  1  1.568454  0  0.212519  0.622474  0  4.220656  0
C  C49  1  0.06933115  0.57002946  0.56932906  1  1.550415  0  0.227937  0.600804  0  4.173164  0
C  C50  1  0.18396500  0.44080751  0.43875608  1  1.579767  0  0.212754  0.621673  0  4.220894  0
C  C51  1  0.93608805  0.68421569  0.43872910  1  1.624843  0  0.211747  0.620323  0  4.224267  0
C  C52  1  0.93096525  0.43008721  0.43091363  1  1.56079  0  0.229159  0.604285  0  4.166745  0
C  C53  1  0.81658773  0.56064300  0.56250626  1  1.575525  0  0.212057  0.620598  0  4.224403  0
C  C54  1  0.56588463  0.31114425  0.31125904  1  1.544779  0  0.217148  0.610168  0  4.217607  0
C  C55  1  0.68093571  0.18011157  0.18071431  1  1.554213  0  0.22895  0.60237  0  4.169434  0
C  C56  1  0.68964193  0.43290510  0.18751035  1  1.578208  0  0.213338  0.622791  0  4.216073  0
C  C57  1  0.93559357  0.18714981  0.18969238  1  1.581723  0  0.21252  0.622178  0  4.221459  0
C  C58  1  0.81892941  0.31990950  0.31958936  1  1.56077  0  0.228662  0.602984  0  4.16662  0
C  C59  1  0.81125913  0.06596161  0.31153620  1  1.538226  0  0.216989  0.607958  0  4.221801  0
C  C60  1  0.43370099  0.68935748  0.68830554  1  1.557366  0  0.216758  0.60758  0  4.222527  0
C  C61  1  0.31897217  0.81998878  0.81930523  1  1.5683  0  0.228605  0.602552  0  4.169884  0
C  C62  1  0.18881111  0.93377786  0.68860128  1  1.608124  0  0.216711  0.607297  0  4.221924  0
C  C63  1  0.06582612  0.80919385  0.81139925  1  1.580497  0  0.212859  0.621713  0  4.221921  0
C  C64  1  0.18108481  0.68025154  0.68048447  1  1.550189  0  0.228176  0.604125  0  4.165976  0
C  C65  1  0.31396250  0.56554373  0.81145036  1  1.626132  0  0.212586  0.621817  0  4.224257  0
C  C66  1  0.43821897  0.18391886  0.93863401  1  1.542618  0  0.217857  0.608491  0  4.219429  0
C  C67  1  0.43055569  0.93049259  0.93053124  1  1.540527  0  0.22982  0.606517  0  4.163459  0
C  C68  1  0.68404599  0.93903737  0.93865476  1  1.547762  0  0.217877  0.610324  0  4.217409  0
C  C69  1  0.56129210  0.81604122  0.06159107  1  1.571933  0  0.217321  0.608207  0  4.221425  0
C  C70  1  0.56955972  0.06945999  0.06945467  1  1.540965  0  0.229173  0.605773  0  4.16521  0
C  C71  1  0.31584495  0.06150084  0.06114124  1  1.525987  0  0.216777  0.608484  0  4.222525  0
C  C72  1  0.90224700  0.40166895  0.40195187  1  -0.046022  0  -0.010888  -0.028104  0  3.956979  0
C  C73  1  0.84794856  0.34852729  0.34816737  1  -0.050781  0  -0.01374  -0.032073  0  3.968768  0
C  C74  1  0.83045012  0.44651769  0.38843163  1  0.018047  0  -0.079422  -0.090231  0  3.964009  0
C  C75  1  0.91979963  0.30369034  0.36164508  1  -0.028754  0  -0.080526  -0.091933  0  3.967982  0
C  C76  1  0.80346530  0.42013404  0.36169448  1  -0.035824  0  -0.080622  -0.093453  0  3.971757  0
C  C77  1  0.94677649  0.33012550  0.38836011  1  0.01793  0  -0.079696  -0.09177  0  3.967551  0
C  C78  1  0.09831076  0.59848131  0.59806792  1  -0.046934  0  -0.010865  -0.026626  0  3.960704  0
C  C79  1  0.15209472  0.65187488  0.65181510  1  -0.025625  0  -0.014089  -0.032741  0  3.97198  0
C  C80  1  0.14096522  0.64104926  0.58241987  1  -3.1e-05  0  -0.079173  -0.091609  0  3.968568  0
C  C81  1  0.10939695  0.60930116  0.66747174  1  -0.063075  0  -0.080679  -0.092892  0  3.974069  0
C  C82  1  0.16770153  0.66764241  0.60915597  1  0.026283  0  -0.080527  -0.092199  0  3.973651  0
C  C83  1  0.08266920  0.58271429  0.64073103  1  -0.025044  0  -0.078954  -0.090622  0  3.966364  0
C  C84  1  0.30446400  0.45609926  0.40103122  1  0.560312  0  0.082954  0.274083  0  4.101226  0
C  C85  1  0.44572075  0.29747391  0.34906379  1  0.085313  0  -0.085744  -0.127694  0  3.956235  0
C  C86  1  0.25845250  0.41666367  0.41394542  1  -0.080444  0  -0.039301  -0.237106  0  3.927121  0
C  C87  1  0.49116931  0.33667555  0.33630936  1  -0.16234  0  -0.023692  -0.111138  0  3.969333  0
C  C88  1  0.37772032  0.34068021  0.37262715  1  -0.185008  0  -0.02279  0.009844  0  4.101464  0
C  C89  1  0.37269011  0.41232838  0.37737212  1  -0.161188  0  -0.039259  -0.157339  0  4.114878  0
C  C90  1  0.72662738  0.57543910  0.63037292  1  0.631084  0  0.083112  0.273209  0  4.105203  0
C  C91  1  0.52449741  0.67343049  0.62139553  1  0.031891  0  -0.085232  -0.127678  0  3.957891  0
C  C92  1  0.74257996  0.58514734  0.58763187  1  -0.153464  0  -0.038905  -0.237815  0  3.935469  0
C  C93  1  0.50874902  0.66382793  0.66372659  1  -0.075968  0  -0.02407  -0.109706  0  3.972254  0
C  C94  1  0.60372936  0.64131199  0.60912610  1  -0.170794  0  -0.02253  0.009546  0  4.104051  0
C  C95  1  0.64693185  0.60774379  0.64253796  1  -0.185132  0  -0.040579  -0.158767  0  4.119724  0
C  C96  1  0.07553543  0.22652369  0.63019347  1  0.647588  0  0.083066  0.273002  0  4.102805  0
C  C97  1  0.17332146  0.02463984  0.62161239  1  0.041041  0  -0.085228  -0.127235  0  3.954794  0
C  C98  1  0.08532773  0.24249371  0.58742396  1  -0.145411  0  -0.039145  -0.238297  0  3.931178  0
C  C99  1  0.16367293  0.00885861  0.66396341  1  -0.117076  0  -0.023796  -0.109561  0  3.968569  0
C  C100  1  0.14131783  0.10375789  0.60919730  1  -0.17868  0  -0.022319  0.010362  0  4.10188  0
C  C101  1  0.10774987  0.14692583  0.64250553  1  -0.185243  0  -0.040498  -0.158143  0  4.116194  0
C  C102  1  0.84189488  0.80062291  0.39714832  1  0.536815  0  0.083502  0.273968  0  4.105145  0
C  C103  1  0.90410065  0.94937188  0.35262534  1  0.07341  0  -0.085048  -0.127253  0  3.954857  0
C  C104  1  0.91082047  0.75836835  0.41367871  1  -0.123488  0  -0.038686  -0.237275  0  3.931565  0
C  C105  1  0.83569273  0.99109548  0.33633198  1  -0.145443  0  -0.023438  -0.110027  0  3.972237  0
C  C106  1  0.90666002  0.87994795  0.37476329  1  -0.154325  0  -0.022697  0.009703  0  4.101856  0
C  C107  1  0.83980218  0.87020860  0.37488230  1  -0.147785  0  -0.040327  -0.157777  0  4.118078  0
C  C108  1  0.65186041  0.15172770  0.15194569  1  0.020106  0  -0.009848  -0.02446  0  3.957121  0
C  C109  1  0.59812051  0.09820704  0.09815712  1  0.022552  0  -0.014023  -0.033114  0  3.969879  0
C  C110  1  0.66747348  0.16748899  0.10928926  1  -0.021086  0  -0.078934  -0.09151  0  3.967059  0
C  C111  1  0.58243726  0.08254360  0.14083061  1  -0.017208  0  -0.078993  -0.089718  0  3.969266  0
C  C112  1  0.64074803  0.14088155  0.08254453  1  -0.0672  0  -0.080039  -0.092084  0  3.970732  0
C  C113  1  0.60914335  0.10918349  0.16756040  1  -0.065997  0  -0.079937  -0.092595  0  3.968062  0
C  C114  1  0.67469763  0.52317336  0.11959501  1  0.571691  0  0.083466  0.273884  0  4.102862  0
C  C115  1  0.57683747  0.72495888  0.12849506  1  0.013906  0  -0.084888  -0.127212  0  3.953393  0
C  C116  1  0.66500524  0.50697222  0.16234609  1  -0.147064  0  -0.038731  -0.237909  0  3.929556  0
C  C117  1  0.58646016  0.74094865  0.08615633  1  -0.078836  0  -0.0236  -0.109968  0  3.969596  0
C  C118  1  0.60885225  0.64578587  0.14078589  1  -0.149867  0  -0.022217  0.011112  0  4.098915  0
C  C119  1  0.64240373  0.60281758  0.10738849  1  -0.130063  0  -0.03913  -0.157354  0  4.114362  0
C  C120  1  0.08237491  0.12335634  0.17861651  1  0.489393  0  0.084049  0.274037  0  4.104543  0
C  C121  1  0.17010433  0.12482519  0.07306348  1  0.080741  0  -0.084924  -0.127926  0  3.954262  0
C  C122  1  0.01027150  0.16237390  0.16522759  1  -0.093826  0  -0.038522  -0.237578  0  3.93269  0
C  C123  1  0.24147967  0.08608565  0.08639804  1  -0.165121  0  -0.023998  -0.111586  0  3.97211  0
C  C124  1  0.11201845  0.13852962  0.10652037  1  -0.118508  0  -0.022357  0.010274  0  4.101245  0
C  C125  1  0.14049499  0.10981647  0.14484256  1  -0.19553  0  -0.039386  -0.156432  0  4.114326  0
C  C126  1  0.34782003  0.84863397  0.84804722  1  -0.048548  0  -0.010408  -0.026652  0  3.958698  0
C  C127  1  0.40181133  0.90193884  0.90182490  1  -0.042545  0  -0.013604  -0.033057  0  3.969867  0
C  C128  1  0.30316934  0.92018494  0.86158070  1  -0.073151  0  -0.078827  -0.090745  0  3.965481  0
C  C129  1  0.44643921  0.83029375  0.88833738  1  0.001052  0  -0.080434  -0.091826  0  3.968071  0
C  C130  1  0.33001111  0.94670788  0.88830256  1  0.055144  0  -0.080084  -0.091577  0  3.968496  0
C  C131  1  0.41959405  0.80381528  0.86158947  1  -0.006999  0  -0.0788  -0.090207  0  3.963936  0
C  C132  1  0.40814410  0.44903479  0.85289729  1  0.5402  0  0.083443  0.273868  0  4.104257  0
C  C133  1  0.34561796  0.30053860  0.89743398  1  0.068489  0  -0.085434  -0.127658  0  3.956149  0
C  C134  1  0.33921283  0.49130109  0.83635544  1  -0.149863  0  -0.038744  -0.23814  0  3.933818  0
C  C135  1  0.41397350  0.25868781  0.91376265  1  -0.142241  0  -0.023101  -0.10961  0  3.971833  0
C  C136  1  0.34325137  0.36983766  0.87523149  1  -0.177349  0  -0.022035  0.010231  0  4.101294  0
C  C137  1  0.41018673  0.37943602  0.87514042  1  -0.125714  0  -0.039265  -0.156587  0  4.115964  0
C  C138  1  0.94534004  0.79390289  0.84900027  1  0.560872  0  0.08364  0.274103  0  4.102623  0
C  C139  1  0.80421486  0.95261151  0.90094031  1  0.087426  0  -0.085172  -0.126925  0  3.955302  0
C  C140  1  0.99128887  0.83338998  0.83607644  1  -0.080028  0  -0.038808  -0.236973  0  3.930483  0
C  C141  1  0.75875201  0.91345397  0.91370740  1  -0.162428  0  -0.023467  -0.111128  0  3.971196  0
C  C142  1  0.87213503  0.90935035  0.87737263  1  -0.186472  0  -0.021867  0.01072  0  4.101554  0
C  C143  1  0.87711847  0.83769097  0.87266031  1  -0.161779  0  -0.03927  -0.157256  0  4.113879  0
S  S144  1  0.29881870  0.32678124  0.39719365  1  0.279032  0  0.070579  0.115277  0  2.751496  0
S  S145  1  0.45160967  0.42648312  0.35283989  1  0.235854  0  0.065283  0.108776  0  2.770088  0
S  S146  1  0.66063645  0.63335160  0.56272565  1  0.273028  0  0.073401  0.119766  0  2.754185  0
S  S147  1  0.59005590  0.61561914  0.68905019  1  0.217241  0  0.063478  0.105916  0  2.773528  0
S  S148  1  0.13347217  0.16060721  0.56271503  1  0.274557  0  0.072782  0.118593  0  2.752308  0
S  S149  1  0.11550128  0.09009904  0.68909841  1  0.215979  0  0.063401  0.105467  0  2.771355  0
S  S150  1  0.97230192  0.80372665  0.40193966  1  0.258374  0  0.071819  0.117278  0  2.751312  0
S  S151  1  0.77384347  0.94640198  0.34775806  1  0.237065  0  0.063696  0.106088  0  2.775297  0
S  S152  1  0.61675066  0.58872289  0.18719321  1  0.273399  0  0.073823  0.11959  0  2.750757  0
S  S153  1  0.63458245  0.65987286  0.06087949  1  0.21627  0  0.064802  0.107598  0  2.770127  0
S  S154  1  0.01394570  0.18222604  0.11177671  1  0.305084  0  0.072327  0.117734  0  2.751508  0
S  S155  1  0.23867015  0.06591792  0.13970991  1  0.259583  0  0.067149  0.110801  0  2.771187  0
S  S156  1  0.27765502  0.44606423  0.84805924  1  0.280142  0  0.074297  0.120741  0  2.750291  0
S  S157  1  0.47601666  0.30317670  0.90230817  1  0.237717  0  0.065206  0.108009  0  2.773054  0
S  S158  1  0.95100758  0.92325520  0.85281312  1  0.282557  0  0.071566  0.11682  0  2.752981  0
S  S159  1  0.79820505  0.82361202  0.89722028  1  0.235861  0  0.065888  0.109402  0  2.770152  0
O  O160  1  0.00025277  0.49973231  0.49981879  1  -1.231016  0  -0.570549  -1.029099  0  2.526584  0
O  O161  1  0.07796016  0.31522668  0.52315878  1  -1.166332  0  -0.325693  -0.55737  0  2.32321  0
O  O162  1  0.03146852  0.53122732  0.58576017  1  -1.149593  0  -0.312306  -0.540272  0  2.34529  0
O  O163  1  0.15534421  0.50696265  0.45027235  1  -1.163395  0  -0.313668  -0.525186  0  2.329272  0
O  O164  1  0.02614526  0.37530663  0.58113703  1  -1.151704  0  -0.312558  -0.52298  0  2.335649  0
O  O165  1  0.15433217  0.39241729  0.44660854  1  -1.174287  0  -0.325568  -0.556381  0  2.326082  0
O  O166  1  0.08472458  0.58696405  0.53089995  1  -1.175614  0  -0.312989  -0.544275  0  2.338583  0
O  O167  1  0.00294450  0.65836006  0.44995281  1  -1.170465  0  -0.324203  -0.552348  0  2.331515  0
O  O168  1  0.88684189  0.49525573  0.44229747  1  -1.171334  0  -0.313256  -0.543635  0  2.339731  0
O  O169  1  0.89024980  0.65215940  0.44720213  1  -1.175079  0  -0.313509  -0.526276  0  2.33057  0
O  O170  1  0.99692481  0.38685698  0.44182290  1  -1.172921  0  -0.314512  -0.547118  0  2.33085  0
O  O171  1  0.87568977  0.52589277  0.58135262  1  -1.159078  0  -0.311835  -0.522256  0  2.335217  0
O  O172  1  0.81485741  0.57669829  0.52343103  1  -1.15887  0  -0.325044  -0.554329  0  2.329109  0
O  O173  1  0.74975329  0.25021046  0.25001041  1  -1.229777  0  -0.570544  -1.0284  0  2.524991  0
O  O174  1  0.59684051  0.35816039  0.30296717  1  -1.156736  0  -0.320202  -0.548343  0  2.331479  0
O  O175  1  0.66401878  0.16432351  0.21913761  1  -1.173643  0  -0.314542  -0.546274  0  2.339423  0
O  O176  1  0.72553010  0.37389564  0.16880512  1  -1.164353  0  -0.31384  -0.526433  0  2.328334  0
O  O177  1  0.59283299  0.24470424  0.30011360  1  -1.173186  0  -0.317162  -0.540013  0  2.309853  0
O  O178  1  0.67254699  0.43454260  0.22655395  1  -1.159688  0  -0.325457  -0.554892  0  2.326785  0
O  O179  1  0.72018086  0.21759894  0.16447455  1  -1.157763  0  -0.312602  -0.542994  0  2.337983  0
O  O180  1  0.87788064  0.22233594  0.16926515  1  -1.176703  0  -0.324421  -0.554016  0  2.330601  0
O  O181  1  0.86210566  0.25386660  0.30895310  1  -1.178266  0  -0.31466  -0.54478  0  2.344493  0
O  O182  1  0.93411256  0.17186390  0.22867622  1  -1.144416  0  -0.313372  -0.525655  0  2.331639  0
O  O183  1  0.75344759  0.36355462  0.30810004  1  -1.171301  0  -0.315423  -0.546946  0  2.338015  0
O  O184  1  0.74466344  0.09336049  0.30000705  1  -1.176446  0  -0.321936  -0.55032  0  2.334976  0
O  O185  1  0.85831637  0.09660481  0.30381205  1  -1.151019  0  -0.314293  -0.53445  0  2.313447  0
O  O186  1  0.24973154  0.75028402  0.75004108  1  -1.230007  0  -0.570706  -1.028911  0  2.52774  0
O  O187  1  0.37553773  0.72483552  0.66866808  1  -1.163397  0  -0.315877  -0.538279  0  2.310837  0
O  O188  1  0.36298426  0.75468389  0.80805586  1  -1.176287  0  -0.313131  -0.543181  0  2.342404  0
O  O189  1  0.17229694  0.93367164  0.72762246  1  -1.188002  0  -0.321276  -0.548385  0  2.333739  0
O  O190  1  0.43401466  0.67343575  0.72734239  1  -1.17794  0  -0.320036  -0.545866  0  2.339474  0
O  O191  1  0.22456104  0.87593414  0.66889981  1  -1.174143  0  -0.315694  -0.53753  0  2.312437  0
O  O192  1  0.25296474  0.86308567  0.80845156  1  -1.171535  0  -0.313527  -0.545444  0  2.335897  0
O  O193  1  0.09535261  0.85771850  0.80366849  1  -1.171127  0  -0.326321  -0.556449  0  2.329281  0
O  O194  1  0.16573004  0.66331560  0.71894586  1  -1.178166  0  -0.313965  -0.544973  0  2.342811  0
O  O195  1  0.09479380  0.74303359  0.79988309  1  -1.162286  0  -0.312637  -0.524742  0  2.329859  0
O  O196  1  0.21902909  0.71919558  0.66416391  1  -1.162903  0  -0.316276  -0.549131  0  2.342365  0
O  O197  1  0.35986524  0.59757541  0.80317769  1  -1.170487  0  -0.314344  -0.526727  0  2.332485  0
O  O198  1  0.24715084  0.59169872  0.80015514  1  -1.169864  0  -0.323572  -0.55245  0  2.331836  0
O  O199  1  0.50003588  0.99994529  0.99999554  1  -1.228466  0  -0.570943  -1.028358  0  2.527424  0
O  O200  1  0.50502168  0.15626399  0.94989287  1  -1.174893  0  -0.32129  -0.548444  0  2.335809  0
O  O201  1  0.38709791  0.99613108  0.94162538  1  -1.165982  0  -0.315307  -0.548455  0  2.342586  0
O  O202  1  0.65323053  0.89186762  0.94687315  1  -1.162124  0  -0.320972  -0.548299  0  2.33622  0
O  O203  1  0.39085769  0.15355920  0.94670102  1  -1.156694  0  -0.316416  -0.538077  0  2.311574  0
O  O204  1  0.65685965  0.00547193  0.94978904  1  -1.172519  0  -0.316246  -0.538651  0  2.310746  0
O  O205  1  0.49633036  0.88697921  0.94169092  1  -1.167476  0  -0.315623  -0.547244  0  2.341151  0
O  O206  1  0.57765655  0.81607405  0.02255855  1  -1.180484  0  -0.320801  -0.547434  0  2.337521  0
O  O207  1  0.53119326  0.03093289  0.08566629  1  -1.159143  0  -0.315471  -0.548152  0  2.341001  0
O  O208  1  0.52564308  0.87400410  0.08120966  1  -1.174069  0  -0.316051  -0.538209  0  2.310778  0
O  O209  1  0.58579859  0.08566899  0.03097746  1  -1.174459  0  -0.315537  -0.548234  0  2.34206  0
O  O210  1  0.31535096  0.07811621  0.02224368  1  -1.141341  0  -0.31616  -0.538132  0  2.312764  0
O  O211  1  0.37435797  0.02552574  0.08069680  1  -1.174439  0  -0.32067  -0.548544  0  2.337632  0
O  O212  1  0.28527207  0.52689350  0.41034600  1  -1.073172  0  -0.332886  -0.398217  0  2.274237  0
O  O213  1  0.78111633  0.53964295  0.65626092  1  -1.107214  0  -0.332639  -0.396809  0  2.273177  0
O  O214  1  0.03979383  0.28093823  0.65596757  1  -1.118041  0  -0.331712  -0.395729  0  2.274187  0
O  O215  1  0.78518088  0.77706932  0.40213843  1  -1.087856  0  -0.332903  -0.396701  0  2.274195  0
O  O216  1  0.71045176  0.46883386  0.09379252  1  -1.107508  0  -0.332242  -0.397437  0  2.273397  0
O  O217  1  0.09382535  0.10181820  0.21878998  1  -1.072162  0  -0.331175  -0.395339  0  2.274131  0
O  O218  1  0.46484439  0.47262507  0.84790979  1  -1.08557  0  -0.332792  -0.397806  0  2.274107  0
O  O219  1  0.96473472  0.72306111  0.83971741  1  -1.071678  0  -0.331896  -0.396977  0  2.274949  0
