# generated using pymatgen
data_CdH20C28(NO)4
_symmetry_space_group_name_H-M   'P 1'
_cell_length_a   7.51723697
_cell_length_b   13.44146586
_cell_length_c   13.44124385
_cell_angle_alpha   107.75067433
_cell_angle_beta   106.04026300
_cell_angle_gamma   106.04059201
_symmetry_Int_Tables_number   1
_chemical_formula_structural   CdH20C28(NO)4
_chemical_formula_sum   'Cd2 H40 C56 N8 O8'
_cell_volume   1142.61071896
_cell_formula_units_Z   2
loop_
 _symmetry_equiv_pos_site_id
 _symmetry_equiv_pos_as_xyz
  1  'x, y, z'
loop_
 _atom_site_type_symbol
 _atom_site_label
 _atom_site_symmetry_multiplicity
 _atom_site_fract_x
 _atom_site_fract_y
 _atom_site_fract_z
 _atom_site_occupancy
 _atom_site_hle17_bader_spin_density
 _atom_site_hle17_ddec_charge
 _atom_site_hle17_ddec_spin_density
 _atom_site_hle17_ddec_sum_bond_order
 _atom_site_hle17_magmom
 _atom_site_hse06_10hf_bader_spin_density
 _atom_site_hse06_10hf_ddec_charge
 _atom_site_hse06_10hf_ddec_spin_density
 _atom_site_hse06_10hf_ddec_sum_bond_order
 _atom_site_hse06_10hf_magmom
 _atom_site_hse06_bader_spin_density
 _atom_site_hse06_ddec_charge
 _atom_site_hse06_ddec_spin_density
 _atom_site_hse06_ddec_sum_bond_order
 _atom_site_hse06_magmom
 _atom_site_pbe_bader_spin_density
 _atom_site_pbe_cm5_charge
 _atom_site_pbe_ddec_charge
 _atom_site_pbe_ddec_spin_density
 _atom_site_pbe_ddec_sum_bond_order
 _atom_site_pbe_magmom
Cd  Cd0  1  0.25000164  0.85488159  0.14512304  1  0  1.060444  0  1.70364  0  0  0.865277  0  2.148823  0  0  0.926468  0  2.095911  0  0  0.7689  0.822168  0  2.18482  0
Cd  Cd1  1  0.74999252  0.14512211  0.85488394  1  0  1.060365  0  1.703797  0  0  0.86518  0  2.148994  0  0  0.926375  0  2.096081  0  0  0.768862  0.822072  0  2.18498  0
H  H2  1  0.36154525  0.02969874  0.55226971  1  0  0.117726  0  0.976246  0  0  0.123967  0  1.043047  0  0  0.128328  0  1.039462  0  0  0.103691  0.120769  0  1.045807  0
H  H3  1  0.13845357  0.44773685  0.97030736  1  0  0.117722  0  0.976127  0  0  0.12386  0  1.043085  0  0  0.128229  0  1.039468  0  0  0.103648  0.120665  0  1.045839  0
H  H4  1  0.63847307  0.97031618  0.44774659  1  0  0.117833  0  0.976051  0  0  0.123972  0  1.043011  0  0  0.12834  0  1.039397  0  0  0.103693  0.120775  0  1.045765  0
H  H5  1  0.86153386  0.55226510  0.02969657  1  0  0.117777  0  0.976196  0  0  0.124032  0  1.042979  0  0  0.128395  0  1.03939  0  0  0.103699  0.120834  0  1.045738  0
H  H6  1  0.61382666  0.09670673  0.31284809  1  0  0.086032  0  0.927559  0  0  0.097166  0  0.986189  0  0  0.099058  0  0.985121  0  0  0.120714  0.095708  0  0.987103  0
H  H7  1  0.88616446  0.68714698  0.90329609  1  0  0.085976  0  0.927293  0  0  0.097081  0  0.98599  0  0  0.098973  0  0.984918  0  0  0.120672  0.09562  0  0.986909  0
H  H8  1  0.38616430  0.90329441  0.68715018  1  0  0.086076  0  0.927426  0  0  0.097205  0  0.986065  0  0  0.099096  0  0.984997  0  0  0.120729  0.095747  0  0.986983  0
H  H9  1  0.11382093  0.31284988  0.09670448  1  0  0.085905  0  0.927311  0  0  0.09709  0  0.985918  0  0  0.098985  0  0.984844  0  0  0.12065  0.09563  0  0.986833  0
H  H10  1  0.78967598  0.28596291  0.31637837  1  0  0.109849  0  0.985274  0  0  0.111384  0  1.059001  0  0  0.115779  0  1.056234  0  0  0.107015  0.108136  0  1.061241  0
H  H11  1  0.71031391  0.68361511  0.71403754  1  0  0.109796  0  0.98528  0  0  0.111327  0  1.059001  0  0  0.115725  0  1.056228  0  0  0.107007  0.108063  0  1.061252  0
H  H12  1  0.21031599  0.71403571  0.68361407  1  0  0.109813  0  0.985227  0  0  0.111322  0  1.058983  0  0  0.11572  0  1.05621  0  0  0.107006  0.108053  0  1.061243  0
H  H13  1  0.28968115  0.31637763  0.28596099  1  0  0.109861  0  0.985237  0  0  0.111383  0  1.05896  0  0  0.115783  0  1.056187  0  0  0.107015  0.10813  0  1.061202  0
H  H14  1  0.36888418  0.16343902  0.97019743  1  0  0.120199  0  0.973075  0  0  0.128755  0  1.035218  0  0  0.132142  0  1.033716  0  0  0.110522  0.12627  0  1.036488  0
H  H15  1  0.13110843  0.02979373  0.83655242  1  0  0.120147  0  0.973042  0  0  0.128792  0  1.035084  0  0  0.132183  0  1.033572  0  0  0.110494  0.126304  0  1.036359  0
H  H16  1  0.63109552  0.83655356  0.02979725  1  0  0.120111  0  0.973153  0  0  0.128741  0  1.035205  0  0  0.13213  0  1.033697  0  0  0.110495  0.126253  0  1.036483  0
H  H17  1  0.86887746  0.97019976  0.16344645  1  0  0.120135  0  0.973006  0  0  0.128758  0  1.035091  0  0  0.132145  0  1.033589  0  0  0.110507  0.126273  0  1.036368  0
H  H18  1  0.65754808  0.31931102  0.13940844  1  0  0.097676  0  0.931792  0  0  0.111653  0  0.985938  0  0  0.11348  0  0.985535  0  0  0.111513  0.110262  0  0.986319  0
H  H19  1  0.84244348  0.86057993  0.68068507  1  0  0.09768  0  0.931877  0  0  0.111566  0  0.986112  0  0  0.113398  0  0.985707  0  0  0.111502  0.110171  0  0.986495  0
H  H20  1  0.34243882  0.68068417  0.86058218  1  0  0.09767  0  0.931841  0  0  0.111607  0  0.986009  0  0  0.113442  0  0.985598  0  0  0.111501  0.110211  0  0.986396  0
H  H21  1  0.15754681  0.13941192  0.31931097  1  0  0.097798  0  0.931738  0  0  0.111696  0  0.985979  0  0  0.113531  0  0.985565  0  0  0.111537  0.110303  0  0.986362  0
H  H22  1  0.76115602  0.89685461  0.29710522  1  0  0.114042  0  0.981952  0  0  0.120064  0  1.049482  0  0  0.124502  0  1.045781  0  0  0.10106  0.116831  0  1.052267  0
H  H23  1  0.73883992  0.70290286  0.10315279  1  0  0.114077  0  0.982113  0  0  0.120083  0  1.049641  0  0  0.124524  0  1.045937  0  0  0.101079  0.116853  0  1.052426  0
H  H24  1  0.23885415  0.10315431  0.70290950  1  0  0.114115  0  0.982162  0  0  0.120121  0  1.049668  0  0  0.124558  0  1.04597  0  0  0.101091  0.116893  0  1.052455  0
H  H25  1  0.26114585  0.29710076  0.89685066  1  0  0.114094  0  0.982106  0  0  0.120144  0  1.049573  0  0  0.124583  0  1.045873  0  0  0.101101  0.116916  0  1.052354  0
H  H26  1  0.51627906  0.30381767  0.40594829  1  0  0.079359  0  1.001078  0  0  0.087806  0  1.072208  0  0  0.090477  0  1.070823  0  0  0.09554  0.085932  0  1.07316  0
H  H27  1  0.98373721  0.59405407  0.69619875  1  0  0.079347  0  1.000935  0  0  0.08776  0  1.072092  0  0  0.090412  0  1.070762  0  0  0.095537  0.085891  0  1.073028  0
H  H28  1  0.48371413  0.69618687  0.59404763  1  0  0.079406  0  1.000891  0  0  0.087816  0  1.07207  0  0  0.090487  0  1.070681  0  0  0.09556  0.085946  0  1.073009  0
H  H29  1  0.01627015  0.40594049  0.30380293  1  0  0.079273  0  1.000965  0  0  0.087716  0  1.072114  0  0  0.090384  0  1.07074  0  0  0.095517  0.085845  0  1.073061  0
H  H30  1  0.75001241  0.69907053  0.30094251  1  0  0.122228  0  0.954223  0  0  0.131056  0  1.013694  0  0  0.133789  0  1.014375  0  0  0.110841  0.129072  0  1.013446  0
H  H31  1  0.25002270  0.30092854  0.69905061  1  0  0.122211  0  0.954333  0  0  0.131114  0  1.013712  0  0  0.133846  0  1.01439  0  0  0.110857  0.129133  0  1.013464  0
H  H32  1  0.99764464  0.78098283  0.50481320  1  0  0.063148  0  0.937591  0  0  0.073887  0  1.000027  0  0  0.07508  0  0.99983  0  0  0.109706  0.072958  0  1.000207  0
H  H33  1  0.50239083  0.49519692  0.21902731  1  0  0.06318  0  0.937698  0  0  0.073931  0  1.000109  0  0  0.075122  0  0.999916  0  0  0.109772  0.073004  0  1.000286  0
H  H34  1  0.00237057  0.21901940  0.49518757  1  0  0.06317  0  0.937644  0  0  0.073895  0  1.000083  0  0  0.075082  0  0.999896  0  0  0.109733  0.072974  0  1.000262  0
H  H35  1  0.49764047  0.50480465  0.78097046  1  0  0.063162  0  0.937578  0  0  0.073915  0  1.000005  0  0  0.075105  0  0.999816  0  0  0.109734  0.072992  0  1.000186  0
H  H36  1  0.75000202  0.27692770  0.72306142  1  0  0.075391  0  0.98722  0  0  0.085655  0  1.054241  0  0  0.087654  0  1.053309  0  0  0.093116  0.084168  0  1.054976  0
H  H37  1  0.24999866  0.72305920  0.27692574  1  0  0.07535  0  0.987356  0  0  0.085621  0  1.054356  0  0  0.087612  0  1.053435  0  0  0.09311  0.084135  0  1.055084  0
H  H38  1  0.51737285  0.18759718  0.51929541  1  0  0.09205  0  0.965246  0  0  0.101441  0  1.028698  0  0  0.104005  0  1.027906  0  0  0.097696  0.099617  0  1.029273  0
H  H39  1  0.98262781  0.48069320  0.81240464  1  0  0.092202  0  0.9654  0  0  0.10159  0  1.028836  0  0  0.104155  0  1.028039  0  0  0.097738  0.099762  0  1.029422  0
H  H40  1  0.48262652  0.81239815  0.48069117  1  0  0.091986  0  0.965401  0  0  0.101511  0  1.028712  0  0  0.104074  0  1.02792  0  0  0.097669  0.099676  0  1.029309  0
H  H41  1  0.01736631  0.51929616  0.18758899  1  0  0.092174  0  0.965356  0  0  0.10155  0  1.028813  0  0  0.104115  0  1.028023  0  0  0.097719  0.099724  0  1.029383  0
C  C42  1  0.20374382  0.01744260  0.53000121  1  0  -0.088332  0  3.724737  0  0  -0.110601  0  3.974623  0  0  -0.111432  0  3.993393  0  0  -0.087912  -0.109917  0  3.961937  0
C  C43  1  0.29625262  0.47000594  0.98256249  1  0  -0.088292  0  3.724258  0  0  -0.11044  0  3.97417  0  0  -0.11127  0  3.992925  0  0  -0.08793  -0.109761  0  3.961485  0
C  C44  1  0.79626923  0.98257058  0.47001748  1  0  -0.088381  0  3.72443  0  0  -0.11056  0  3.974371  0  0  -0.111391  0  3.993127  0  0  -0.087945  -0.109876  0  3.961682  0
C  C45  1  0.70373058  0.52999596  0.01743708  1  0  -0.088461  0  3.724459  0  0  -0.110713  0  3.974366  0  0  -0.111551  0  3.993123  0  0  -0.087956  -0.11003  0  3.96168  0
C  C46  1  0.06934884  0.96061552  0.41550734  1  0  -0.059165  0  3.769562  0  0  -0.036391  0  4.001691  0  0  -0.043172  0  4.02393  0  0  -0.018672  -0.031972  0  3.986646  0
C  C47  1  0.43065065  0.58450163  0.03938880  1  0  -0.059248  0  3.769683  0  0  -0.036619  0  4.001937  0  0  -0.043374  0  4.024137  0  0  -0.018643  -0.032192  0  3.986887  0
C  C48  1  0.93066442  0.03939597  0.58450714  1  0  -0.059266  0  3.769752  0  0  -0.036618  0  4.002001  0  0  -0.043375  0  4.024198  0  0  -0.018671  -0.032184  0  3.986946  0
C  C49  1  0.56933310  0.41550113  0.96061037  1  0  -0.059117  0  3.769406  0  0  -0.036463  0  4.001695  0  0  -0.043215  0  4.023895  0  0  -0.018656  -0.032038  0  3.986642  0
C  C50  1  0.14446944  0.92101595  0.32507052  1  0  0.615056  0  3.938115  0  0  0.567148  0  4.224994  0  0  0.601601  0  4.219534  0  0  0.191184  0.543874  0  4.227709  0
C  C51  1  0.35553196  0.67493636  0.07899004  1  0  0.615241  0  3.938045  0  0  0.5674  0  4.224895  0  0  0.601849  0  4.219432  0  0  0.191323  0.544122  0  4.227617  0
C  C52  1  0.85554494  0.07899724  0.67494317  1  0  0.61527  0  3.938023  0  0  0.567386  0  4.224943  0  0  0.601842  0  4.219472  0  0  0.191341  0.544095  0  4.227679  0
C  C53  1  0.64446753  0.32507330  0.92101511  1  0  0.615035  0  3.937955  0  0  0.567154  0  4.224859  0  0  0.601601  0  4.219392  0  0  0.191194  0.543876  0  4.22758  0
C  C54  1  0.33711141  0.04622015  0.05158858  1  0  0.172634  0  3.764321  0  0  0.167921  0  4.006155  0  0  0.174537  0  4.027685  0  0  0.116074  0.163506  0  3.991532  0
C  C55  1  0.16287892  0.94841248  0.95377054  1  0  0.173014  0  3.763883  0  0  0.168056  0  4.005994  0  0  0.174669  0  4.027521  0  0  0.116204  0.163657  0  3.991345  0
C  C56  1  0.66287589  0.95377757  0.94840957  1  0  0.172601  0  3.764334  0  0  0.167819  0  4.006176  0  0  0.174429  0  4.02771  0  0  0.116106  0.16341  0  3.991539  0
C  C57  1  0.83711062  0.05158442  0.04622918  1  0  0.172864  0  3.76446  0  0  0.168102  0  4.006275  0  0  0.174722  0  4.027801  0  0  0.116139  0.163694  0  3.991639  0
C  C58  1  0.56591692  0.11518026  0.23848171  1  0  0.135806  0  3.701513  0  0  0.107302  0  3.949458  0  0  0.11403  0  3.968503  0  0  0.052619  0.102916  0  3.93649  0
C  C59  1  0.93407686  0.76151832  0.88481731  1  0  0.135856  0  3.701824  0  0  0.107371  0  3.949749  0  0  0.114103  0  3.968793  0  0  0.052605  0.102984  0  3.936778  0
C  C60  1  0.43407231  0.88481833  0.76151402  1  0  0.135773  0  3.701249  0  0  0.107267  0  3.9492  0  0  0.113995  0  3.968245  0  0  0.052565  0.102879  0  3.936229  0
C  C61  1  0.06591098  0.23847603  0.11518212  1  0  0.136039  0  3.701844  0  0  0.107473  0  3.949796  0  0  0.114206  0  3.968843  0  0  0.05266  0.103085  0  3.936821  0
C  C62  1  0.66120145  0.22081456  0.24001970  1  0  -0.106157  0  3.703112  0  0  -0.120597  0  3.958836  0  0  -0.126537  0  3.978025  0  0  -0.077191  -0.11678  0  3.946078  0
C  C63  1  0.83878863  0.75996904  0.77918827  1  0  -0.106055  0  3.703001  0  0  -0.120424  0  3.958619  0  0  -0.126365  0  3.977807  0  0  -0.077137  -0.11659  0  3.945868  0
C  C64  1  0.33878999  0.77918321  0.75997463  1  0  -0.105953  0  3.703064  0  0  -0.120371  0  3.958772  0  0  -0.12631  0  3.977961  0  0  -0.077081  -0.116533  0  3.946029  0
C  C65  1  0.16120362  0.24002368  0.22080834  1  0  -0.10633  0  3.703054  0  0  -0.120675  0  3.958673  0  0  -0.12662  0  3.977864  0  0  -0.077215  -0.116844  0  3.945909  0
C  C66  1  0.42447760  0.15038469  0.04702361  1  0  -0.141606  0  3.679632  0  0  -0.162713  0  3.931977  0  0  -0.169697  0  3.952938  0  0  -0.079901  -0.158162  0  3.917962  0
C  C67  1  0.07551543  0.95296577  0.84961519  1  0  -0.141671  0  3.680203  0  0  -0.162773  0  3.932551  0  0  -0.169758  0  3.953515  0  0  -0.079953  -0.158222  0  3.918532  0
C  C68  1  0.57550602  0.84960963  0.95297145  1  0  -0.141386  0  3.679729  0  0  -0.162538  0  3.932019  0  0  -0.169521  0  3.952983  0  0  -0.079872  -0.157986  0  3.918008  0
C  C69  1  0.92447182  0.04702774  0.15038165  1  0  -0.141622  0  3.680283  0  0  -0.162778  0  3.932625  0  0  -0.169764  0  3.953589  0  0  -0.079945  -0.158226  0  3.918616  0
C  C70  1  0.58812007  0.23791795  0.14207170  1  0  0.010489  0  3.69045  0  0  -0.009766  0  3.943241  0  0  -0.006306  0  3.961627  0  0  -0.061617  -0.011792  0  3.930682  0
C  C71  1  0.91187290  0.85792404  0.76207472  1  0  0.010431  0  3.69028  0  0  -0.009786  0  3.943054  0  0  -0.006329  0  3.961431  0  0  -0.061613  -0.011813  0  3.930494  0
C  C72  1  0.41186489  0.76207638  0.85791985  1  0  0.010321  0  3.690743  0  0  -0.009892  0  3.943498  0  0  -0.00644  0  3.96188  0  0  -0.061666  -0.011914  0  3.930936  0
C  C73  1  0.08811682  0.14206696  0.23792173  1  0  0.010432  0  3.689997  0  0  -0.009813  0  3.94279  0  0  -0.006355  0  3.961166  0  0  -0.061596  -0.011844  0  3.930238  0
C  C74  1  0.86538611  0.94320970  0.38592997  1  0  -0.090491  0  3.728092  0  0  -0.113424  0  3.978823  0  0  -0.11437  0  3.998002  0  0  -0.089476  -0.11259  0  3.965731  0
C  C75  1  0.63460732  0.61408109  0.05679623  1  0  -0.09044  0  3.728403  0  0  -0.113308  0  3.979146  0  0  -0.114265  0  3.998323  0  0  -0.089482  -0.11248  0  3.966049  0
C  C76  1  0.13462498  0.05680261  0.61408816  1  0  -0.090525  0  3.72848  0  0  -0.113393  0  3.979244  0  0  -0.114348  0  3.998418  0  0  -0.089545  -0.112568  0  3.966145  0
C  C77  1  0.36537423  0.38592248  0.94320360  1  0  -0.090474  0  3.72839  0  0  -0.113407  0  3.979143  0  0  -0.114362  0  3.998314  0  0  -0.089479  -0.112579  0  3.966047  0
C  C78  1  0.75002024  0.45636654  0.54364668  1  0  -0.017426  0  3.757568  0  0  8e-06  0  3.98937  0  0  -0.002466  0  4.011205  0  0  -0.011849  0.001619  0  3.974469  0
C  C79  1  0.24998847  0.54363226  0.45634907  1  0  -0.017653  0  3.757806  0  0  -0.00022  0  3.989606  0  0  -0.002691  0  4.011434  0  0  -0.01198  0.001389  0  3.97471  0
C  C80  1  0.75001109  0.52455853  0.47544145  1  0  0.364493  0  3.748588  0  0  0.348117  0  4.004658  0  0  0.362304  0  4.018395  0  0  0.243325  0.338674  0  3.995339  0
C  C81  1  0.24999931  0.47544281  0.52455385  1  0  0.364712  0  3.748182  0  0  0.348328  0  4.004258  0  0  0.362514  0  4.017989  0  0  0.243407  0.338885  0  3.994941  0
C  C82  1  0.61796266  0.34157498  0.49486097  1  0  -0.086971  0  3.736793  0  0  -0.111844  0  3.984143  0  0  -0.113132  0  4.005068  0  0  -0.09047  -0.110687  0  3.96969  0
C  C83  1  0.88204667  0.50513384  0.65842540  1  0  -0.086978  0  3.737189  0  0  -0.111802  0  3.984574  0  0  -0.113095  0  4.00549  0  0  -0.090533  -0.110643  0  3.97012  0
C  C84  1  0.38203991  0.65842290  0.50513358  1  0  -0.086905  0  3.736777  0  0  -0.111758  0  3.984176  0  0  -0.113042  0  4.005092  0  0  -0.090465  -0.110599  0  3.969722  0
C  C85  1  0.11796288  0.49485989  0.34157413  1  0  -0.086713  0  3.736985  0  0  -0.111556  0  3.984291  0  0  -0.112847  0  4.005219  0  0  -0.090407  -0.110403  0  3.969844  0
C  C86  1  0.75002088  0.64895172  0.35106442  1  0  -0.180717  0  3.720546  0  0  -0.189222  0  3.965852  0  0  -0.200598  0  3.990132  0  0  -0.083746  -0.182036  0  3.949714  0
C  C87  1  0.25000571  0.35104895  0.64893535  1  0  -0.180748  0  3.720472  0  0  -0.189286  0  3.965745  0  0  -0.200657  0  3.990018  0  0  -0.083822  -0.182105  0  3.949617  0
C  C88  1  0.88577548  0.69344029  0.46344704  1  0  0.172965  0  3.731794  0  0  0.143973  0  3.987999  0  0  0.153002  0  4.004984  0  0  0.060378  0.138312  0  3.976252  0
C  C89  1  0.61425455  0.53656235  0.30656589  1  0  0.172911  0  3.731575  0  0  0.143928  0  3.987765  0  0  0.152958  0  4.004746  0  0  0.060305  0.138262  0  3.976025  0
C  C90  1  0.11424112  0.30656197  0.53655394  1  0  0.17294  0  3.731741  0  0  0.14394  0  3.98798  0  0  0.15297  0  4.004965  0  0  0.060361  0.138268  0  3.976246  0
C  C91  1  0.38576586  0.46343741  0.69343043  1  0  0.173051  0  3.731169  0  0  0.144026  0  3.98742  0  0  0.153056  0  4.0044  0  0  0.060415  0.138365  0  3.975683  0
C  C92  1  0.74999724  0.32702037  0.67296400  1  0  -0.048219  0  3.754036  0  0  -0.063422  0  3.995632  0  0  -0.065695  0  4.020124  0  0  -0.089509  -0.061601  0  3.978837  0
C  C93  1  0.25000573  0.67296993  0.32702455  1  0  -0.048271  0  3.75397  0  0  -0.063457  0  3.99557  0  0  -0.065731  0  4.020069  0  0  -0.089504  -0.061631  0  3.978757  0
C  C94  1  0.61886946  0.27703667  0.55865630  1  0  -0.083347  0  3.774881  0  0  -0.091481  0  4.019492  0  0  -0.094917  0  4.043125  0  0  -0.095286  -0.089123  0  4.003344  0
C  C95  1  0.88114811  0.44134322  0.72296871  1  0  -0.083709  0  3.774695  0  0  -0.091857  0  4.019309  0  0  -0.095287  0  4.042929  0  0  -0.095433  -0.0895  0  4.003166  0
C  C96  1  0.38113020  0.72295698  0.44133203  1  0  -0.08338  0  3.774912  0  0  -0.091642  0  4.019507  0  0  -0.095076  0  4.043135  0  0  -0.095323  -0.089284  0  4.003356  0
C  C97  1  0.11885327  0.55864875  0.27702458  1  0  -0.083574  0  3.774292  0  0  -0.091729  0  4.018908  0  0  -0.095163  0  4.04253  0  0  -0.095353  -0.089363  0  4.00276  0
N  N98  1  0.40969429  0.03073637  0.14702621  1  0  -0.368794  0  3.281063  0  0  -0.296043  0  3.543499  0  0  -0.316768  0  3.563377  0  0  -0.331846  -0.281872  0  3.529756  0
N  N99  1  0.09029200  0.85296468  0.96926362  1  0  -0.368825  0  3.280593  0  0  -0.296054  0  3.543124  0  0  -0.316785  0  3.563011  0  0  -0.331797  -0.281888  0  3.52938  0
N  N100  1  0.59029358  0.96926220  0.85297229  1  0  -0.368883  0  3.280989  0  0  -0.296127  0  3.543437  0  0  -0.316854  0  3.563325  0  0  -0.331855  -0.281954  0  3.529687  0
N  N101  1  0.90969364  0.14703049  0.03073647  1  0  -0.36878  0  3.28078  0  0  -0.296065  0  3.543287  0  0  -0.316791  0  3.563156  0  0  -0.331772  -0.281896  0  3.529541  0
N  N102  1  0.88750089  0.63269436  0.52594943  1  0  -0.389771  0  3.042951  0  0  -0.347492  0  3.303882  0  0  -0.362832  0  3.318588  0  0  -0.309908  -0.337201  0  3.293787  0
N  N103  1  0.61254773  0.47405983  0.36731918  1  0  -0.38965  0  3.043378  0  0  -0.347384  0  3.304295  0  0  -0.362725  0  3.318997  0  0  -0.30979  -0.337095  0  3.294211  0
N  N104  1  0.11251432  0.36730787  0.47405134  1  0  -0.389833  0  3.042834  0  0  -0.34755  0  3.303767  0  0  -0.362892  0  3.318471  0  0  -0.309931  -0.33726  0  3.293682  0
N  N105  1  0.38747243  0.52594162  0.63267836  1  0  -0.389854  0  3.042984  0  0  -0.347566  0  3.303919  0  0  -0.362909  0  3.318617  0  0  -0.309872  -0.337275  0  3.29383  0
O  O106  1  0.01398357  0.85554158  0.22320160  1  0  -0.635711  0  1.986074  0  0  -0.565937  0  2.231354  0  0  -0.595198  0  2.220221  0  0  -0.328494  -0.545416  0  2.238218  0
O  O107  1  0.48602588  0.77680887  0.14446105  1  0  -0.635847  0  1.985965  0  0  -0.566126  0  2.231261  0  0  -0.595391  0  2.220127  0  0  -0.328611  -0.545604  0  2.238131  0
O  O108  1  0.98602494  0.14446480  0.77681581  1  0  -0.635797  0  1.986044  0  0  -0.566067  0  2.231379  0  0  -0.595333  0  2.22024  0  0  -0.328614  -0.545546  0  2.238254  0
O  O109  1  0.51398162  0.22319835  0.85554232  1  0  -0.635762  0  1.986102  0  0  -0.565951  0  2.231302  0  0  -0.595211  0  2.220169  0  0  -0.328519  -0.545429  0  2.238168  0
O  O110  1  0.33282377  0.95452593  0.34920718  1  0  -0.624882  0  1.942579  0  0  -0.564903  0  2.179877  0  0  -0.592389  0  2.170299  0  0  -0.322505  -0.545606  0  2.185653  0
O  O111  1  0.16718150  0.65080338  0.04548943  1  0  -0.624811  0  1.942524  0  0  -0.564858  0  2.179857  0  0  -0.59233  0  2.170251  0  0  -0.322452  -0.545557  0  2.185635  0
O  O112  1  0.66718872  0.04549484  0.65080558  1  0  -0.624848  0  1.942448  0  0  -0.56488  0  2.179811  0  0  -0.592357  0  2.170201  0  0  -0.322443  -0.545578  0  2.185601  0
O  O113  1  0.83282007  0.34921136  0.95452207  1  0  -0.624859  0  1.942489  0  0  -0.564862  0  2.17976  0  0  -0.592372  0  2.170231  0  0  -0.32251  -0.545564  0  2.185537  0
