# generated using pymatgen
data_ZnH16C18(NO3)2
_symmetry_space_group_name_H-M   'P 1'
_cell_length_a   5.36080983
_cell_length_b   8.88640976
_cell_length_c   17.43793796
_cell_angle_alpha   96.04425104
_cell_angle_beta   89.99623247
_cell_angle_gamma   90.00178947
_symmetry_Int_Tables_number   1
_chemical_formula_structural   ZnH16C18(NO3)2
_chemical_formula_sum   'Zn2 H32 C36 N4 O12'
_cell_volume   826.09658682
_cell_formula_units_Z   2
loop_
 _symmetry_equiv_pos_site_id
 _symmetry_equiv_pos_as_xyz
  1  'x, y, z'
loop_
 _atom_site_type_symbol
 _atom_site_label
 _atom_site_symmetry_multiplicity
 _atom_site_fract_x
 _atom_site_fract_y
 _atom_site_fract_z
 _atom_site_occupancy
 _atom_site_hle17_bader_spin_density
 _atom_site_hle17_ddec_charge
 _atom_site_hle17_ddec_spin_density
 _atom_site_hle17_ddec_sum_bond_order
 _atom_site_hle17_magmom
 _atom_site_hse06_10hf_bader_spin_density
 _atom_site_hse06_10hf_ddec_charge
 _atom_site_hse06_10hf_ddec_spin_density
 _atom_site_hse06_10hf_ddec_sum_bond_order
 _atom_site_hse06_10hf_magmom
 _atom_site_hse06_bader_spin_density
 _atom_site_hse06_ddec_charge
 _atom_site_hse06_ddec_spin_density
 _atom_site_hse06_ddec_sum_bond_order
 _atom_site_hse06_magmom
 _atom_site_pbe_bader_spin_density
 _atom_site_pbe_cm5_charge
 _atom_site_pbe_ddec_charge
 _atom_site_pbe_ddec_spin_density
 _atom_site_pbe_ddec_sum_bond_order
 _atom_site_pbe_magmom
Zn  Zn0  1  0.49999946  0.49999977  0.99999890  1  0  1.229489  0  1.639707  0  0  1.060552  0  2.086174  0  0  1.112087  0  2.022011  0  0  0.691583  1.023516  0  2.131211  0
Zn  Zn1  1  0.99999443  0.00000933  0.00000482  1  0  1.229341  0  1.639774  0  0  1.060432  0  2.086324  0  0  1.11197  0  2.022159  0  0  0.691556  1.023395  0  2.13136  0
H  H2  1  0.59437953  0.67028486  0.48877870  1  0  0.079471  0  0.984544  0  0  0.090711  0  1.048652  0  0  0.093122  0  1.048507  0  0  0.09326  0.089052  0  1.048797  0
H  H3  1  0.09446082  0.82968991  0.51120635  1  0  0.0796  0  0.984618  0  0  0.090819  0  1.048729  0  0  0.09324  0  1.048567  0  0  0.093171  0.089156  0  1.04888  0
H  H4  1  0.40568711  0.32967624  0.51121174  1  0  0.079349  0  0.984595  0  0  0.090597  0  1.048712  0  0  0.093004  0  1.048576  0  0  0.093192  0.088936  0  1.04886  0
H  H5  1  0.90552187  0.17031979  0.48879630  1  0  0.079476  0  0.984771  0  0  0.090725  0  1.04885  0  0  0.093147  0  1.048686  0  0  0.093114  0.089062  0  1.048999  0
H  H6  1  0.94441733  0.88860738  0.24623057  1  0  0.125326  0  0.978213  0  0  0.131614  0  1.045937  0  0  0.134574  0  1.044783  0  0  0.103399  0.129572  0  1.046614  0
H  H7  1  0.44447397  0.61137145  0.75374929  1  0  0.12535  0  0.978042  0  0  0.131661  0  1.045734  0  0  0.13462  0  1.044584  0  0  0.103389  0.129623  0  1.046412  0
H  H8  1  0.05557843  0.11138287  0.75375835  1  0  0.125346  0  0.978121  0  0  0.131616  0  1.045884  0  0  0.134576  0  1.044729  0  0  0.103401  0.129576  0  1.046561  0
H  H9  1  0.55552365  0.38865573  0.24625901  1  0  0.125216  0  0.978033  0  0  0.131448  0  1.045868  0  0  0.134402  0  1.044724  0  0  0.103287  0.129415  0  1.046548  0
H  H10  1  0.11298189  0.54112104  0.29362709  1  0  0.109071  0  0.961216  0  0  0.116034  0  1.026194  0  0  0.118631  0  1.02652  0  0  0.100475  0.114322  0  1.025804  0
H  H11  1  0.61307485  0.95885789  0.70638091  1  0  0.108903  0  0.960756  0  0  0.115933  0  1.025678  0  0  0.11853  0  1.026  0  0  0.100434  0.114221  0  1.02529  0
H  H12  1  0.88704371  0.45884458  0.70637438  1  0  0.10904  0  0.961207  0  0  0.11608  0  1.026098  0  0  0.11868  0  1.026417  0  0  0.100474  0.114366  0  1.025707  0
H  H13  1  0.38689479  0.04114687  0.29361759  1  0  0.108743  0  0.961069  0  0  0.115866  0  1.02588  0  0  0.118466  0  1.026199  0  0  0.100374  0.114154  0  1.025495  0
H  H14  1  0.87186846  0.81472335  0.40868417  1  0  0.08844  0  0.976389  0  0  0.099123  0  1.040028  0  0  0.101244  0  1.039721  0  0  0.097005  0.097406  0  1.040715  0
H  H15  1  0.37194029  0.68525144  0.59129264  1  0  0.088366  0  0.976285  0  0  0.098916  0  1.040105  0  0  0.101058  0  1.039733  0  0  0.096897  0.097199  0  1.040793  0
H  H16  1  0.12819818  0.18522906  0.59129857  1  0  0.088665  0  0.976093  0  0  0.099173  0  1.039918  0  0  0.101295  0  1.039606  0  0  0.097025  0.097465  0  1.040606  0
H  H17  1  0.62806479  0.31477437  0.40871332  1  0  0.088377  0  0.976487  0  0  0.098953  0  1.040266  0  0  0.101094  0  1.039898  0  0  0.096898  0.097238  0  1.040952  0
H  H18  1  0.21821642  0.53753763  0.43193463  1  0  0.08464  0  0.952023  0  0  0.097595  0  1.01058  0  0  0.09992  0  1.010238  0  0  0.098564  0.095801  0  1.011192  0
H  H19  1  0.71831971  0.96243625  0.56806446  1  0  0.084553  0  0.951881  0  0  0.097586  0  1.010414  0  0  0.09991  0  1.01007  0  0  0.098579  0.095792  0  1.011029  0
H  H20  1  0.78183529  0.46242972  0.56806171  1  0  0.08465  0  0.952  0  0  0.097593  0  1.010547  0  0  0.099921  0  1.010202  0  0  0.098533  0.095786  0  1.011187  0
H  H21  1  0.28165739  0.03755542  0.43193828  1  0  0.084582  0  0.951892  0  0  0.097599  0  1.010445  0  0  0.099923  0  1.0101  0  0  0.098583  0.095805  0  1.011058  0
H  H22  1  0.00883648  0.46645182  0.92524685  1  0  0.417366  0  0.866607  0  0  0.387756  0  0.942663  0  0  0.396462  0  0.931688  0  0  0.301584  0.381454  0  0.949693  0
H  H23  1  0.50877413  0.03355082  0.07475493  1  0  0.417251  0  0.866854  0  0  0.387683  0  0.942803  0  0  0.396382  0  0.931787  0  0  0.301621  0.381382  0  0.949831  0
H  H24  1  0.99115928  0.53354836  0.07475095  1  0  0.41739  0  0.86664  0  0  0.387783  0  0.942695  0  0  0.39649  0  0.93167  0  0  0.301591  0.381481  0  0.949727  0
H  H25  1  0.49121603  0.96646043  0.92525178  1  0  0.417307  0  0.866751  0  0  0.387768  0  0.942693  0  0  0.396471  0  0.931665  0  0  0.301678  0.381467  0  0.949721  0
H  H26  1  0.30958814  0.64581336  0.15530608  1  0  0.30946  0  0.92695  0  0  0.293047  0  0.983676  0  0  0.300562  0  0.977892  0  0  0.306707  0.287744  0  0.987849  0
H  H27  1  0.80966479  0.85417335  0.84468756  1  0  0.309427  0  0.927131  0  0  0.292948  0  0.983896  0  0  0.300478  0  0.978118  0  0  0.306743  0.287633  0  0.988072  0
H  H28  1  0.69040015  0.35417647  0.84468972  1  0  0.309431  0  0.926951  0  0  0.292934  0  0.983744  0  0  0.300458  0  0.977964  0  0  0.306674  0.287625  0  0.987918  0
H  H29  1  0.19032537  0.14584449  0.15531761  1  0  0.309334  0  0.927336  0  0  0.292966  0  0.983897  0  0  0.3005  0  0.978107  0  0  0.306756  0.287649  0  0.988077  0
H  H30  1  0.87775383  0.33535804  0.96643080  1  0  0.415362  0  0.892512  0  0  0.37998  0  0.971513  0  0  0.391165  0  0.95539  0  0  0.290998  0.372152  0  0.982787  0
H  H31  1  0.37772850  0.16465974  0.03357916  1  0  0.415429  0  0.892302  0  0  0.380011  0  0.971448  0  0  0.391194  0  0.955326  0  0  0.291006  0.372183  0  0.982721  0
H  H32  1  0.12223820  0.66464702  0.03357058  1  0  0.415368  0  0.892553  0  0  0.379972  0  0.971535  0  0  0.391163  0  0.955401  0  0  0.290975  0.372141  0  0.982812  0
H  H33  1  0.62226912  0.83534990  0.96642291  1  0  0.415391  0  0.892463  0  0  0.379996  0  0.97149  0  0  0.391187  0  0.955357  0  0  0.291017  0.372165  0  0.982767  0
C  C34  1  0.69688299  0.80933860  0.09855505  1  0  0.641195  0  3.879792  0  0  0.593587  0  4.163953  0  0  0.630365  0  4.15356  0  0  0.215661  0.568335  0  4.170552  0
C  C35  1  0.19693012  0.69065546  0.90143957  1  0  0.64087  0  3.879956  0  0  0.593261  0  4.164131  0  0  0.63003  0  4.153747  0  0  0.215493  0.568011  0  4.170726  0
C  C36  1  0.30310343  0.19065717  0.90144379  1  0  0.640995  0  3.880096  0  0  0.593412  0  4.164249  0  0  0.63017  0  4.15387  0  0  0.215577  0.568157  0  4.170844  0
C  C37  1  0.80306750  0.30936001  0.09856438  1  0  0.640729  0  3.879842  0  0  0.59308  0  4.164091  0  0  0.629849  0  4.153708  0  0  0.215449  0.567828  0  4.170681  0
C  C38  1  0.63913750  0.77741440  0.17684665  1  0  0.034995  0  3.782191  0  0  0.022799  0  4.055246  0  0  0.019252  0  4.074462  0  0  0.062484  0.025219  0  4.042054  0
C  C39  1  0.13918559  0.72257620  0.82314541  1  0  0.034995  0  3.782583  0  0  0.022756  0  4.055612  0  0  0.019237  0  4.074846  0  0  0.062557  0.025148  0  4.042424  0
C  C40  1  0.36085825  0.22257572  0.82315203  1  0  0.034941  0  3.782161  0  0  0.022679  0  4.055217  0  0  0.019144  0  4.074453  0  0  0.062493  0.025086  0  4.04202  0
C  C41  1  0.86079523  0.27743813  0.17685852  1  0  0.034785  0  3.782897  0  0  0.022623  0  4.055826  0  0  0.019101  0  4.075058  0  0  0.062578  0.025021  0  4.042623  0
C  C42  1  0.55175279  0.67517708  0.42798198  1  0  -0.109953  0  3.807174  0  0  -0.123803  0  4.059379  0  0  -0.128985  0  4.083215  0  0  -0.107068  -0.120305  0  4.043176  0
C  C43  1  0.05184298  0.82478781  0.57200942  1  0  -0.110558  0  3.807298  0  0  -0.124403  0  4.059486  0  0  -0.129587  0  4.083321  0  0  -0.107123  -0.120905  0  4.043292  0
C  C44  1  0.44827654  0.32480151  0.57201409  1  0  -0.10981  0  3.80723  0  0  -0.12365  0  4.059346  0  0  -0.128828  0  4.083182  0  0  -0.107043  -0.120153  0  4.043151  0
C  C45  1  0.94813599  0.17521540  0.42799593  1  0  -0.110302  0  3.807204  0  0  -0.12415  0  4.059368  0  0  -0.129331  0  4.083197  0  0  -0.107001  -0.120649  0  4.043166  0
C  C46  1  0.77568386  0.82131140  0.24337932  1  0  -0.178878  0  3.678202  0  0  -0.217937  0  3.943988  0  0  -0.216495  0  3.961219  0  0  -0.103587  -0.218551  0  3.932041  0
C  C47  1  0.27574537  0.67867401  0.75661337  1  0  -0.17904  0  3.678322  0  0  -0.218149  0  3.944194  0  0  -0.216714  0  3.961427  0  0  -0.103749  -0.218766  0  3.932254  0
C  C48  1  0.22431936  0.17867605  0.75661527  1  0  -0.178808  0  3.677902  0  0  -0.217809  0  3.94378  0  0  -0.216354  0  3.961015  0  0  -0.103566  -0.218437  0  3.931832  0
C  C49  1  0.72424852  0.32134865  0.24339480  1  0  -0.178743  0  3.678204  0  0  -0.217848  0  3.944069  0  0  -0.216397  0  3.961311  0  0  -0.103638  -0.218483  0  3.93213  0
C  C50  1  0.65458696  0.75771608  0.30490679  1  0  0.001243  0  3.832221  0  0  0.023451  0  4.059104  0  0  0.018402  0  4.085106  0  0  -0.021293  0.026727  0  4.041288  0
C  C51  1  0.15467922  0.74226264  0.69508484  1  0  0.001406  0  3.831688  0  0  0.023686  0  4.05853  0  0  0.018642  0  4.084521  0  0  -0.021143  0.02696  0  4.040716  0
C  C52  1  0.34542558  0.24226798  0.69508771  1  0  0.001165  0  3.83206  0  0  0.023243  0  4.059207  0  0  0.018159  0  4.085253  0  0  -0.021372  0.026542  0  4.041364  0
C  C53  1  0.84531093  0.25775312  0.30492199  1  0  0.001406  0  3.831961  0  0  0.023784  0  4.058664  0  0  0.018704  0  4.084704  0  0  -0.021151  0.027077  0  4.040831  0
C  C54  1  0.43952969  0.67809435  0.27274800  1  0  0.191773  0  3.781084  0  0  0.181349  0  4.025062  0  0  0.188041  0  4.046222  0  0  0.098901  0.177097  0  4.010449  0
C  C55  1  0.93963173  0.82189240  0.72724474  1  0  0.191242  0  3.781289  0  0  0.180562  0  4.025502  0  0  0.187278  0  4.046672  0  0  0.098665  0.176301  0  4.010876  0
C  C56  1  0.56046793  0.32189238  0.72725059  1  0  0.191919  0  3.780874  0  0  0.181329  0  4.025138  0  0  0.18805  0  4.046307  0  0  0.098873  0.17706  0  4.010512  0
C  C57  1  0.06034910  0.17812628  0.27275758  1  0  0.191002  0  3.78176  0  0  0.180245  0  4.026035  0  0  0.186967  0  4.047219  0  0  0.098519  0.175972  0  4.011403  0
C  C58  1  0.27787080  0.59993130  0.31801452  1  0  -0.170423  0  3.752625  0  0  -0.185043  0  4.003935  0  0  -0.189423  0  4.023653  0  0  -0.099001  -0.181854  0  3.990231  0
C  C59  1  0.77796634  0.90005098  0.68197979  1  0  -0.170085  0  3.752059  0  0  -0.184654  0  4.003366  0  0  -0.189037  0  4.023099  0  0  -0.098934  -0.181461  0  3.989649  0
C  C60  1  0.72213801  0.40005431  0.68198404  1  0  -0.170531  0  3.752532  0  0  -0.185171  0  4.003897  0  0  -0.189555  0  4.023626  0  0  -0.098966  -0.181974  0  3.990176  0
C  C61  1  0.22201076  0.09995616  0.31801992  1  0  -0.169809  0  3.752203  0  0  -0.18442  0  4.003472  0  0  -0.188801  0  4.023204  0  0  -0.098756  -0.181231  0  3.989761  0
C  C62  1  0.70820518  0.75552035  0.38391003  1  0  -0.094577  0  3.765025  0  0  -0.112653  0  4.00515  0  0  -0.112163  0  4.026733  0  0  -0.090419  -0.112814  0  3.990811  0
C  C63  1  0.20828735  0.74445211  0.61607876  1  0  -0.094129  0  3.764604  0  0  -0.112084  0  4.004641  0  0  -0.11159  0  4.026242  0  0  -0.090202  -0.112249  0  3.990306  0
C  C64  1  0.29182975  0.24445342  0.61608304  1  0  -0.094764  0  3.764906  0  0  -0.112651  0  4.005119  0  0  -0.112149  0  4.026708  0  0  -0.090376  -0.112834  0  3.990792  0
C  C65  1  0.79170654  0.25556943  0.38392938  1  0  -0.094259  0  3.764805  0  0  -0.112284  0  4.00483  0  0  -0.11178  0  4.026437  0  0  -0.090227  -0.112454  0  3.990486  0
C  C66  1  0.33851062  0.59878996  0.39540315  1  0  -0.062066  0  3.785028  0  0  -0.077687  0  4.037518  0  0  -0.077495  0  4.058729  0  0  -0.095187  -0.077657  0  4.02306  0
C  C67  1  0.83858805  0.90118760  0.60459004  1  0  -0.061711  0  3.784338  0  0  -0.07745  0  4.036864  0  0  -0.077258  0  4.058071  0  0  -0.095135  -0.07742  0  4.022413  0
C  C68  1  0.66151684  0.40118863  0.60459293  1  0  -0.061986  0  3.784898  0  0  -0.077569  0  4.037352  0  0  -0.077379  0  4.058561  0  0  -0.095122  -0.077538  0  4.022886  0
C  C69  1  0.16140211  0.09881431  0.39541355  1  0  -0.061797  0  3.784155  0  0  -0.077553  0  4.036735  0  0  -0.07736  0  4.057939  0  0  -0.095186  -0.07752  0  4.02228  0
N  N70  1  0.43580480  0.69231704  0.19535453  1  0  -0.340519  0  3.407696  0  0  -0.284788  0  3.640926  0  0  -0.300659  0  3.656659  0  0  -0.395575  -0.274241  0  3.63012  0
N  N71  1  0.93588387  0.80766970  0.80463938  1  0  -0.340242  0  3.408287  0  0  -0.28429  0  3.641428  0  0  -0.300244  0  3.657244  0  0  -0.395509  -0.273698  0  3.630588  0
N  N72  1  0.56418908  0.30766732  0.80464284  1  0  -0.340495  0  3.407632  0  0  -0.284537  0  3.640799  0  0  -0.30046  0  3.656582  0  0  -0.395547  -0.273955  0  3.62996  0
N  N73  1  0.06409136  0.19234225  0.19536334  1  0  -0.339986  0  3.408609  0  0  -0.284078  0  3.641569  0  0  -0.300029  0  3.657386  0  0  -0.395468  -0.273464  0  3.630702  0
O  O74  1  0.61228653  0.72804364  0.03870185  1  0  -0.667458  0  2.109401  0  0  -0.590641  0  2.360176  0  0  -0.618782  0  2.345445  0  0  -0.318228  -0.570979  0  2.370023  0
O  O75  1  0.11230962  0.77195376  0.96128885  1  0  -0.66722  0  2.109281  0  0  -0.590463  0  2.360068  0  0  -0.61858  0  2.345329  0  0  -0.318092  -0.570804  0  2.369907  0
O  O76  1  0.38770923  0.27196201  0.96129438  1  0  -0.667465  0  2.109489  0  0  -0.590635  0  2.360244  0  0  -0.618698  0  2.345448  0  0  -0.318189  -0.570974  0  2.370092  0
O  O77  1  0.88769173  0.22806260  0.03871283  1  0  -0.667043  0  2.109255  0  0  -0.590333  0  2.360117  0  0  -0.618442  0  2.345374  0  0  -0.318044  -0.570672  0  2.369958  0
O  O78  1  0.84648839  0.41901675  0.93271592  1  0  -0.823919  0  1.93296  0  0  -0.763932  0  2.145288  0  0  -0.784003  0  2.114078  0  0  -0.563453  -0.749647  0  2.166129  0
O  O79  1  0.34644182  0.08099488  0.06728893  1  0  -0.823866  0  1.933241  0  0  -0.763919  0  2.14566  0  0  -0.783974  0  2.114358  0  0  -0.563486  -0.749634  0  2.166501  0
O  O80  1  0.15350549  0.58098224  0.06728128  1  0  -0.82396  0  1.93309  0  0  -0.763996  0  2.145402  0  0  -0.784065  0  2.114134  0  0  -0.563446  -0.74971  0  2.166248  0
O  O81  1  0.65355207  0.91902184  0.93271621  1  0  -0.823856  0  1.933258  0  0  -0.763934  0  2.145509  0  0  -0.783973  0  2.114169  0  0  -0.563534  -0.74965  0  2.166349  0
O  O82  1  0.83091248  0.92828240  0.09272642  1  0  -0.665326  0  2.087576  0  0  -0.590862  0  2.34932  0  0  -0.619843  0  2.335718  0  0  -0.321029  -0.570601  0  2.358159  0
O  O83  1  0.33093476  0.57170863  0.90726891  1  0  -0.665258  0  2.087583  0  0  -0.590695  0  2.349196  0  0  -0.619676  0  2.335609  0  0  -0.320993  -0.570443  0  2.358049  0
O  O84  1  0.16906275  0.07171701  0.90727481  1  0  -0.665171  0  2.087606  0  0  -0.590645  0  2.349191  0  0  -0.619631  0  2.335605  0  0  -0.320965  -0.570389  0  2.358039  0
O  O85  1  0.66905166  0.42830302  0.09273092  1  0  -0.665162  0  2.087305  0  0  -0.590596  0  2.348938  0  0  -0.619576  0  2.335352  0  0  -0.320992  -0.570355  0  2.357805  0
