# generated using pymatgen
data_DyH11C9(NO2)4
_symmetry_space_group_name_H-M   'P 1'
_cell_length_a   7.06830739
_cell_length_b   10.93937528
_cell_length_c   10.97147164
_cell_angle_alpha   110.51595055
_cell_angle_beta   101.89211437
_cell_angle_gamma   107.36316734
_symmetry_Int_Tables_number   1
_chemical_formula_structural   DyH11C9(NO2)4
_chemical_formula_sum   'Dy2 H22 C18 N8 O16'
_cell_volume   711.06512279
_cell_formula_units_Z   2
loop_
 _symmetry_equiv_pos_site_id
 _symmetry_equiv_pos_as_xyz
  1  'x, y, z'
loop_
 _atom_site_type_symbol
 _atom_site_label
 _atom_site_symmetry_multiplicity
 _atom_site_fract_x
 _atom_site_fract_y
 _atom_site_fract_z
 _atom_site_occupancy
 _atom_site_hle17_bader_spin_density
 _atom_site_hle17_ddec_charge
 _atom_site_hle17_ddec_spin_density
 _atom_site_hle17_ddec_sum_bond_order
 _atom_site_hle17_magmom
 _atom_site_hse06_10hf_bader_spin_density
 _atom_site_hse06_10hf_ddec_charge
 _atom_site_hse06_10hf_ddec_spin_density
 _atom_site_hse06_10hf_ddec_sum_bond_order
 _atom_site_hse06_10hf_magmom
 _atom_site_hse06_bader_spin_density
 _atom_site_hse06_ddec_charge
 _atom_site_hse06_ddec_spin_density
 _atom_site_hse06_ddec_sum_bond_order
 _atom_site_hse06_magmom
 _atom_site_pbe_bader_spin_density
 _atom_site_pbe_cm5_charge
 _atom_site_pbe_ddec_charge
 _atom_site_pbe_ddec_spin_density
 _atom_site_pbe_ddec_sum_bond_order
 _atom_site_pbe_magmom
Dy  Dy0  1  0.71063641  0.78258778  0.68302121  1  0  2.304716  0  1.602781  0  0  2.163094  0  2.068391  0  0  2.281708  0  1.887725  0  0  1.519104  2.1299  0  2.098161  0
Dy  Dy1  1  0.28936022  0.21740961  0.31697528  1  0  2.304707  0  1.60277  0  0  2.163084  0  2.068384  0  0  2.281704  0  1.887713  0  0  1.519043  2.129906  0  2.098146  0
H  H2  1  0.30665683  0.79828659  0.70880180  1  0  0.454299  0  0.804022  0  0  0.433955  0  0.857654  0  0  0.443771  0  0.843358  0  0  0.327652  0.427208  0  0.867617  0
H  H3  1  0.69335771  0.20172017  0.29120832  1  0  0.45442  0  0.803897  0  0  0.434091  0  0.857464  0  0  0.443907  0  0.843168  0  0  0.32775  0.427348  0  0.867422  0
H  H4  1  0.32136902  0.67673052  0.74816152  1  0  0.417344  0  0.890757  0  0  0.380534  0  0.964949  0  0  0.391181  0  0.949755  0  0  0.301726  0.373064  0  0.975746  0
H  H5  1  0.67863063  0.32327228  0.25184818  1  0  0.417385  0  0.890713  0  0  0.380564  0  0.964918  0  0  0.391212  0  0.949723  0  0  0.301737  0.373094  0  0.975716  0
H  H6  1  0.82774310  0.95305710  0.54226679  1  0  0.439362  0  0.817164  0  0  0.419828  0  0.873033  0  0  0.428515  0  0.863786  0  0  0.323278  0.413539  0  0.880297  0
H  H7  1  0.17223607  0.04693720  0.45772653  1  0  0.43942  0  0.817047  0  0  0.419875  0  0.872943  0  0  0.428564  0  0.86371  0  0  0.32332  0.413584  0  0.880212  0
H  H8  1  0.91033339  0.83352413  0.47713876  1  0  0.394641  0  0.925359  0  0  0.350365  0  1.010954  0  0  0.362196  0  0.994243  0  0  0.291355  0.342074  0  1.022793  0
H  H9  1  0.08965284  0.16647576  0.52285737  1  0  0.394735  0  0.925224  0  0  0.350441  0  1.010839  0  0  0.362275  0  0.994125  0  0  0.291368  0.342152  0  1.022677  0
H  H10  1  0.95284202  0.63983849  0.53714582  1  0  0.393367  0  0.928154  0  0  0.348313  0  1.014925  0  0  0.360353  0  0.997935  0  0  0.295154  0.339782  0  1.027094  0
H  H11  1  0.04715675  0.36016317  0.46285425  1  0  0.393334  0  0.928182  0  0  0.348287  0  1.014962  0  0  0.360327  0  0.997973  0  0  0.295145  0.33976  0  1.027127  0
H  H12  1  0.99704752  0.62854788  0.68239526  1  0  0.411682  0  0.891624  0  0  0.375127  0  0.969821  0  0  0.38588  0  0.954306  0  0  0.301007  0.367487  0  0.980953  0
H  H13  1  0.00294925  0.37145262  0.31760416  1  0  0.411678  0  0.891643  0  0  0.375124  0  0.969826  0  0  0.385876  0  0.954313  0  0  0.300993  0.367484  0  0.980958  0
H  H14  1  0.83299957  0.72013262  0.89964547  1  0  0.421724  0  0.866924  0  0  0.394696  0  0.931915  0  0  0.404319  0  0.917715  0  0  0.307018  0.387573  0  0.942673  0
H  H15  1  0.16700133  0.27987022  0.10035800  1  0  0.421731  0  0.866906  0  0  0.394704  0  0.931902  0  0  0.404327  0  0.917703  0  0  0.307017  0.387583  0  0.94266  0
H  H16  1  0.00921300  0.87828587  0.99990039  1  0  0.469496  0  0.818249  0  0  0.439853  0  0.876224  0  0  0.452367  0  0.85805  0  0  0.305988  0.431404  0  0.888452  0
H  H17  1  0.99079218  0.12172028  0.00009837  1  0  0.46948  0  0.818259  0  0  0.439868  0  0.876186  0  0  0.452366  0  0.858033  0  0  0.306002  0.431419  0  0.888413  0
H  H18  1  0.41911913  0.82015038  0.39179868  1  0  0.122292  0  0.950346  0  0  0.12666  0  1.022659  0  0  0.131241  0  1.017917  0  0  0.11429  0.123416  0  1.025882  0
H  H19  1  0.58088383  0.17985052  0.60820709  1  0  0.122265  0  0.950421  0  0  0.126637  0  1.022726  0  0  0.131217  0  1.017986  0  0  0.114272  0.123399  0  1.025951  0
H  H20  1  0.31900413  0.42706341  0.05506265  1  0  0.097777  0  0.964888  0  0  0.108124  0  1.029605  0  0  0.112296  0  1.024944  0  0  0.110003  0.105042  0  1.032965  0
H  H21  1  0.68099556  0.57292182  0.94493813  1  0  0.09778  0  0.964932  0  0  0.108158  0  1.029597  0  0  0.112329  0  1.024929  0  0  0.110039  0.105069  0  1.03297  0
H  H22  1  0.20406578  0.75686679  0.96862899  1  0  0.106265  0  0.961023  0  0  0.116177  0  1.024271  0  0  0.120243  0  1.020291  0  0  0.111694  0.113178  0  1.027127  0
H  H23  1  0.79594812  0.24312343  0.03137979  1  0  0.106279  0  0.960781  0  0  0.116211  0  1.024044  0  0  0.120281  0  1.020064  0  0  0.111673  0.113212  0  1.026904  0
C  C24  1  0.42782099  0.55747160  0.33505228  1  0  0.740984  0  3.841804  0  0  0.689422  0  4.137707  0  0  0.726593  0  4.1288  0  0  0.23933  0.664573  0  4.145606  0
C  C25  1  0.57220481  0.44253689  0.66496708  1  0  0.741053  0  3.84169  0  0  0.689398  0  4.137715  0  0  0.726569  0  4.12881  0  0  0.239299  0.664549  0  4.145612  0
C  C26  1  0.37270488  0.61639080  0.23459363  1  0  -0.07812  0  3.740564  0  0  -0.055688  0  3.984659  0  0  -0.065393  0  4.006468  0  0  -0.016433  -0.049592  0  3.969513  0
C  C27  1  0.62727466  0.38360049  0.76540962  1  0  -0.078229  0  3.741056  0  0  -0.055723  0  3.985094  0  0  -0.065434  0  4.006901  0  0  -0.016376  -0.049621  0  3.969951  0
C  C28  1  0.37511097  0.75358646  0.28130333  1  0  -0.039715  0  3.632124  0  0  -0.084387  0  3.886067  0  0  -0.079878  0  3.902137  0  0  -0.064776  -0.086851  0  3.874622  0
C  C29  1  0.62489412  0.24641658  0.71869341  1  0  -0.039681  0  3.632395  0  0  -0.084406  0  3.886236  0  0  -0.079896  0  3.902292  0  0  -0.064811  -0.086878  0  3.874798  0
C  C30  1  0.31351603  0.53170705  0.09250386  1  0  -0.065961  0  3.679256  0  0  -0.108495  0  3.933713  0  0  -0.105693  0  3.950808  0  0  -0.069957  -0.109452  0  3.92156  0
C  C31  1  0.68648652  0.46829686  0.90749107  1  0  -0.065876  0  3.679666  0  0  -0.108396  0  3.934086  0  0  -0.105605  0  3.951228  0  0  -0.069993  -0.109353  0  3.921946  0
C  C32  1  0.31312509  0.80314815  0.18478319  1  0  -0.055008  0  3.748954  0  0  -0.026235  0  3.982113  0  0  -0.035238  0  4.003802  0  0  -0.011332  -0.020203  0  3.96682  0
C  C33  1  0.68687593  0.19684735  0.81519948  1  0  -0.055171  0  3.74919  0  0  -0.026192  0  3.982096  0  0  -0.035177  0  4.003749  0  0  -0.011272  -0.020155  0  3.966806  0
C  C34  1  0.25074094  0.58029597  0.99544591  1  0  0.003054  0  3.802475  0  0  0.025927  0  4.039612  0  0  0.022106  0  4.062653  0  0  -0.003171  0.028115  0  4.024067  0
C  C35  1  0.74924764  0.41970918  0.00454597  1  0  0.003198  0  3.802107  0  0  0.025941  0  4.039479  0  0  0.022104  0  4.062541  0  0  -0.003155  0.028133  0  4.023932  0
C  C36  1  0.30518306  0.94621174  0.23478352  1  0  0.6621  0  3.889466  0  0  0.614607  0  4.176374  0  0  0.648154  0  4.175711  0  0  0.207119  0.591069  0  4.181085  0
C  C37  1  0.69481187  0.05378766  0.76521986  1  0  0.66235  0  3.889172  0  0  0.614769  0  4.176111  0  0  0.648313  0  4.175439  0  0  0.207169  0.591227  0  4.180828  0
C  C38  1  0.25169481  0.71716115  0.04263508  1  0  -0.069149  0  3.651684  0  0  -0.1072  0  3.895008  0  0  -0.104619  0  3.9117  0  0  -0.068848  -0.108448  0  3.883495  0
C  C39  1  0.74830102  0.28283203  0.95735437  1  0  -0.069162  0  3.651024  0  0  -0.107263  0  3.894351  0  0  -0.104687  0  3.911048  0  0  -0.068808  -0.108512  0  3.882837  0
C  C40  1  0.17923532  0.48532936  0.84772877  1  0  0.264134  0  3.795119  0  0  0.239756  0  4.0687  0  0  0.248011  0  4.088255  0  0  0.215412  0.234467  0  4.055142  0
C  C41  1  0.82076726  0.51466219  0.15226911  1  0  0.264295  0  3.794901  0  0  0.239941  0  4.068509  0  0  0.248199  0  4.088063  0  0  0.21549  0.23465  0  4.054953  0
N  N42  1  0.15452555  0.34787101  0.79718122  1  0  -0.285861  0  2.914329  0  0  -0.274438  0  3.197051  0  0  -0.283875  0  3.211756  0  0  -0.216104  -0.26793  0  3.186989  0
N  N43  1  0.84547697  0.65212576  0.20282669  1  0  -0.286102  0  2.914493  0  0  -0.27466  0  3.197238  0  0  -0.284098  0  3.211942  0  0  -0.216251  -0.268152  0  3.187173  0
N  N44  1  0.12774441  0.52134500  0.74283884  1  0  -0.347477  0  3.066849  0  0  -0.296423  0  3.322118  0  0  -0.309825  0  3.335481  0  0  -0.214405  -0.286773  0  3.312104  0
N  N45  1  0.87225708  0.47865060  0.25715577  1  0  -0.3476  0  3.066853  0  0  -0.296534  0  3.322117  0  0  -0.309931  0  3.335474  0  0  -0.214426  -0.286889  0  3.312108  0
N  N46  1  0.08691218  0.29977249  0.65950875  1  0  -0.09571  0  3.089008  0  0  -0.059269  0  3.36706  0  0  -0.062437  0  3.379328  0  0  -0.083808  -0.056578  0  3.358228  0
N  N47  1  0.91307963  0.70023597  0.34048923  1  0  -0.095629  0  3.089199  0  0  -0.059241  0  3.367281  0  0  -0.062403  0  3.379548  0  0  -0.08383  -0.056552  0  3.358443  0
N  N48  1  0.07098493  0.40246400  0.62653176  1  0  -0.094951  0  3.083866  0  0  -0.065188  0  3.350601  0  0  -0.068085  0  3.362971  0  0  -0.091429  -0.062713  0  3.341369  0
N  N49  1  0.92901076  0.59754365  0.37346458  1  0  -0.094883  0  3.083584  0  0  -0.065095  0  3.350306  0  0  -0.067999  0  3.362677  0  0  -0.091345  -0.062615  0  3.341071  0
O  O50  1  0.49519444  0.63937974  0.46390063  1  0  -0.774382  0  2.087979  0  0  -0.729001  0  2.367629  0  0  -0.766467  0  2.347742  0  0  -0.428059  -0.711667  0  2.377511  0
O  O51  1  0.50479669  0.36062667  0.53610567  1  0  -0.774458  0  2.087604  0  0  -0.729046  0  2.367305  0  0  -0.766519  0  2.347422  0  0  -0.428048  -0.71171  0  2.377184  0
O  O52  1  0.40925153  0.76569030  0.74621571  1  0  -0.905237  0  1.888256  0  0  -0.85688  0  2.081766  0  0  -0.884758  0  2.042645  0  0  -0.644577  -0.843995  0  2.104142  0
O  O53  1  0.59075403  0.23431284  0.25379298  1  0  -0.905415  0  1.888165  0  0  -0.857064  0  2.081673  0  0  -0.884944  0  2.042546  0  0  -0.644692  -0.844182  0  2.104047  0
O  O54  1  0.89967510  0.89690035  0.56645721  1  0  -0.897333  0  1.873284  0  0  -0.847415  0  2.068724  0  0  -0.875567  0  2.035049  0  0  -0.636029  -0.83439  0  2.088942  0
O  O55  1  0.10031291  0.10309754  0.43353387  1  0  -0.897483  0  1.873084  0  0  -0.84756  0  2.068551  0  0  -0.875712  0  2.034883  0  0  -0.636099  -0.834536  0  2.088771  0
O  O56  1  0.96204918  0.68739248  0.63766809  1  0  -0.927689  0  1.958511  0  0  -0.868085  0  2.170558  0  0  -0.898604  0  2.131332  0  0  -0.648684  -0.853323  0  2.19434  0
O  O57  1  0.03795819  0.31261486  0.36233591  1  0  -0.927621  0  1.958575  0  0  -0.868033  0  2.170564  0  0  -0.898552  0  2.13134  0  0  -0.648649  -0.853269  0  2.194336  0
O  O58  1  0.90384608  0.81337271  0.90309297  1  0  -0.919181  0  1.838187  0  0  -0.867746  0  2.025956  0  0  -0.896051  0  1.98661  0  0  -0.649038  -0.854335  0  2.049299  0
O  O59  1  0.09615428  0.18663215  0.09690933  1  0  -0.919169  0  1.838221  0  0  -0.867757  0  2.025951  0  0  -0.896045  0  1.986624  0  0  -0.649056  -0.854347  0  2.049292  0
O  O60  1  0.59970424  0.57312252  0.71572362  1  0  -0.745507  0  2.060887  0  0  -0.686852  0  2.315959  0  0  -0.722678  0  2.3016  0  0  -0.38773  -0.668556  0  2.323707  0
O  O61  1  0.40029792  0.42687417  0.28427510  1  0  -0.745511  0  2.060929  0  0  -0.686873  0  2.315961  0  0  -0.722706  0  2.301602  0  0  -0.387718  -0.668576  0  2.323702  0
O  O62  1  0.57875073  0.95731396  0.64330644  1  0  -0.68219  0  1.946961  0  0  -0.634108  0  2.178911  0  0  -0.665363  0  2.167925  0  0  -0.360851  -0.617219  0  2.185545  0
O  O63  1  0.42125910  0.04268631  0.35669810  1  0  -0.682091  0  1.947031  0  0  -0.634004  0  2.178933  0  0  -0.665268  0  2.167962  0  0  -0.360818  -0.617116  0  2.185567  0
O  O64  1  0.82047712  0.02655791  0.84520185  1  0  -0.719947  0  2.016303  0  0  -0.659181  0  2.243352  0  0  -0.694545  0  2.230996  0  0  -0.374975  -0.640029  0  2.25075  0
O  O65  1  0.17952521  0.97343360  0.15478960  1  0  -0.719851  0  2.016432  0  0  -0.659091  0  2.243447  0  0  -0.694454  0  2.231084  0  0  -0.374894  -0.639943  0  2.250846  0
