# generated using pymatgen
data_ZnH24C10(N2Cl)2
_symmetry_space_group_name_H-M   'P 1'
_cell_length_a   6.04048238
_cell_length_b   7.52282350
_cell_length_c   18.41233524
_cell_angle_alpha   96.74293823
_cell_angle_beta   89.99401630
_cell_angle_gamma   113.66260566
_symmetry_Int_Tables_number   1
_chemical_formula_structural   ZnH24C10(N2Cl)2
_chemical_formula_sum   'Zn2 H48 C20 N8 Cl4'
_cell_volume   760.02105886
_cell_formula_units_Z   2
loop_
 _symmetry_equiv_pos_site_id
 _symmetry_equiv_pos_as_xyz
  1  'x, y, z'
loop_
 _atom_site_type_symbol
 _atom_site_label
 _atom_site_symmetry_multiplicity
 _atom_site_fract_x
 _atom_site_fract_y
 _atom_site_fract_z
 _atom_site_occupancy
 _atom_site_hle17_bader_spin_density
 _atom_site_hle17_ddec_charge
 _atom_site_hle17_ddec_spin_density
 _atom_site_hle17_ddec_sum_bond_order
 _atom_site_hle17_magmom
 _atom_site_hse06_10hf_bader_spin_density
 _atom_site_hse06_10hf_ddec_charge
 _atom_site_hse06_10hf_ddec_spin_density
 _atom_site_hse06_10hf_ddec_sum_bond_order
 _atom_site_hse06_10hf_magmom
 _atom_site_hse06_bader_spin_density
 _atom_site_hse06_ddec_charge
 _atom_site_hse06_ddec_spin_density
 _atom_site_hse06_ddec_sum_bond_order
 _atom_site_hse06_magmom
 _atom_site_pbe_bader_spin_density
 _atom_site_pbe_cm5_charge
 _atom_site_pbe_ddec_charge
 _atom_site_pbe_ddec_spin_density
 _atom_site_pbe_ddec_sum_bond_order
 _atom_site_pbe_magmom
Zn  Zn0  1  0.83067731  0.00010503  0.75002417  1  0  0.877183  0  2.035821  0  0  0.709343  0  2.525734  0  0  0.747345  0  2.479703  0  0  0.545851  0.683066  0  2.557111  0
Zn  Zn1  1  0.16932897  0.99989183  0.24997992  1  0  0.877265  0  2.035811  0  0  0.709431  0  2.525745  0  0  0.747437  0  2.479734  0  0  0.545915  0.683161  0  2.557125  0
H  H2  1  0.81651109  0.24619071  0.44005950  1  0  0.044487  0  0.954293  0  0  0.059607  0  1.02626  0  0  0.060348  0  1.025759  0  0  0.081176  0.058904  0  1.026873  0
H  H3  1  0.56979805  0.75363571  0.06007641  1  0  0.045151  0  0.955219  0  0  0.060214  0  1.026838  0  0  0.060941  0  1.026345  0  0  0.081151  0.059511  0  1.027448  0
H  H4  1  0.18346673  0.75382206  0.55993338  1  0  0.044598  0  0.954254  0  0  0.059698  0  1.0262  0  0  0.060452  0  1.025703  0  0  0.08123  0.058988  0  1.026811  0
H  H5  1  0.43021061  0.24634933  0.93992008  1  0  0.044984  0  0.955231  0  0  0.060121  0  1.026846  0  0  0.060849  0  1.026356  0  0  0.081096  0.059412  0  1.027442  0
H  H6  1  0.13647382  0.33531724  0.71743468  1  0  0.298998  0  0.873329  0  0  0.294012  0  0.921534  0  0  0.29946  0  0.918091  0  0  0.303465  0.29006  0  0.924174  0
H  H7  1  0.80102215  0.66479485  0.78263808  1  0  0.299043  0  0.873333  0  0  0.293957  0  0.921684  0  0  0.299433  0  0.918173  0  0  0.30359  0.290027  0  0.924265  0
H  H8  1  0.86356011  0.66468858  0.28258069  1  0  0.298981  0  0.87364  0  0  0.293964  0  0.921883  0  0  0.29942  0  0.918432  0  0  0.303468  0.290028  0  0.924478  0
H  H9  1  0.19898411  0.33521522  0.21736879  1  0  0.298885  0  0.872893  0  0  0.293895  0  0.921188  0  0  0.299374  0  0.917677  0  0  0.303483  0.289953  0  0.923807  0
H  H10  1  0.28154643  0.23713952  0.76272571  1  0  0.295974  0  0.878546  0  0  0.291114  0  0.927369  0  0  0.296402  0  0.92421  0  0  0.298551  0.28726  0  0.929836  0
H  H11  1  0.04437651  0.76285464  0.73736995  1  0  0.295233  0  0.878294  0  0  0.289906  0  0.927891  0  0  0.295186  0  0.924767  0  0  0.297999  0.286056  0  0.930326  0
H  H12  1  0.71847594  0.76282659  0.23727535  1  0  0.295892  0  0.878297  0  0  0.291011  0  0.927204  0  0  0.2963  0  0.924045  0  0  0.298458  0.287157  0  0.929669  0
H  H13  1  0.95561183  0.23712619  0.26263776  1  0  0.295424  0  0.878353  0  0  0.290061  0  0.927967  0  0  0.295343  0  0.924842  0  0  0.298125  0.286214  0  0.930401  0
H  H14  1  0.69249306  0.51510679  0.47716014  1  0  0.045164  0  0.93889  0  0  0.060069  0  1.011787  0  0  0.060519  0  1.0118  0  0  0.088387  0.059674  0  1.011908  0
H  H15  1  0.17729726  0.48440077  0.02283980  1  0  0.045546  0  0.938982  0  0  0.060503  0  1.011654  0  0  0.060966  0  1.011691  0  0  0.088377  0.060074  0  1.011814  0
H  H16  1  0.30749890  0.48491769  0.52283382  1  0  0.045255  0  0.938855  0  0  0.060166  0  1.01173  0  0  0.060622  0  1.011739  0  0  0.088378  0.059759  0  1.011869  0
H  H17  1  0.82271491  0.51558139  0.97715874  1  0  0.045583  0  0.939028  0  0  0.060586  0  1.011584  0  0  0.061047  0  1.011618  0  0  0.0884  0.060156  0  1.011746  0
H  H18  1  0.46209053  0.20579439  0.52037723  1  0  0.036519  0  0.928392  0  0  0.053378  0  0.996792  0  0  0.053954  0  0.99676  0  0  0.086137  0.052838  0  0.996975  0
H  H19  1  0.25597078  0.79414843  0.97973628  1  0  0.036447  0  0.928798  0  0  0.053389  0  0.997213  0  0  0.053934  0  0.997209  0  0  0.086322  0.052885  0  0.997373  0
H  H20  1  0.53788830  0.79424026  0.47961230  1  0  0.036562  0  0.928446  0  0  0.053379  0  0.996867  0  0  0.053947  0  0.996853  0  0  0.086165  0.052854  0  0.997033  0
H  H21  1  0.74403907  0.20583239  0.02027034  1  0  0.036399  0  0.928719  0  0  0.053281  0  0.997164  0  0  0.053822  0  0.997163  0  0  0.086282  0.052778  0  0.997327  0
H  H22  1  0.26227301  0.01016845  0.65472092  1  0  0.052791  0  0.966963  0  0  0.069878  0  1.032248  0  0  0.070157  0  1.032735  0  0  0.089825  0.069535  0  1.032054  0
H  H23  1  0.25172639  0.98986299  0.84544319  1  0  0.052341  0  0.967708  0  0  0.069806  0  1.032426  0  0  0.070104  0  1.032924  0  0  0.089875  0.069446  0  1.032254  0
H  H24  1  0.73775618  0.98984441  0.34527739  1  0  0.052804  0  0.967046  0  0  0.069879  0  1.032359  0  0  0.070156  0  1.032847  0  0  0.08986  0.069536  0  1.03217  0
H  H25  1  0.74827262  0.01013257  0.15457062  1  0  0.052423  0  0.967614  0  0  0.069846  0  1.032378  0  0  0.070144  0  1.032876  0  0  0.089841  0.069489  0  1.032202  0
H  H26  1  0.61705575  0.10108670  0.57163845  1  0  0.051165  0  0.953099  0  0  0.066696  0  1.021744  0  0  0.066859  0  1.022247  0  0  0.09121  0.066479  0  1.02149  0
H  H27  1  0.51552749  0.89901589  0.92853578  1  0  0.051156  0  0.953447  0  0  0.067193  0  1.02163  0  0  0.067317  0  1.022165  0  0  0.091286  0.066977  0  1.021371  0
H  H28  1  0.38291739  0.89893327  0.42834715  1  0  0.051093  0  0.95315  0  0  0.066536  0  1.021833  0  0  0.066699  0  1.02233  0  0  0.091117  0.066318  0  1.021584  0
H  H29  1  0.48447810  0.10096634  0.07146765  1  0  0.05108  0  0.953528  0  0  0.067085  0  1.021681  0  0  0.067209  0  1.022218  0  0  0.091229  0.06688  0  1.021414  0
H  H30  1  0.49595075  0.44506345  0.63614424  1  0  0.06937  0  0.983028  0  0  0.084576  0  1.050688  0  0  0.085885  0  1.05028  0  0  0.078261  0.083528  0  1.051149  0
H  H31  1  0.05061076  0.55493184  0.86400995  1  0  0.069804  0  0.983859  0  0  0.084792  0  1.051345  0  0  0.086111  0  1.050971  0  0  0.078551  0.083717  0  1.051833  0
H  H32  1  0.50403707  0.55494946  0.36385733  1  0  0.069343  0  0.983086  0  0  0.084565  0  1.050742  0  0  0.08587  0  1.050344  0  0  0.078217  0.083523  0  1.051199  0
H  H33  1  0.94941080  0.44505915  0.13599280  1  0  0.069821  0  0.98377  0  0  0.084856  0  1.051239  0  0  0.086174  0  1.050867  0  0  0.078574  0.083785  0  1.051727  0
H  H34  1  0.12406510  0.13303787  0.60644519  1  0  0.057813  0  0.929633  0  0  0.078515  0  0.988111  0  0  0.078599  0  0.988698  0  0  0.102701  0.07834  0  0.987797  0
H  H35  1  0.99056385  0.86689495  0.89363963  1  0  0.058106  0  0.9286  0  0  0.077947  0  0.98814  0  0  0.078026  0  0.988763  0  0  0.102842  0.077762  0  0.987834  0
H  H36  1  0.87591548  0.86694732  0.39356055  1  0  0.057684  0  0.929658  0  0  0.078461  0  0.988071  0  0  0.078543  0  0.988657  0  0  0.102641  0.078288  0  0.987758  0
H  H37  1  0.00941316  0.13306986  0.10637169  1  0  0.058225  0  0.928663  0  0  0.078026  0  0.988221  0  0  0.078108  0  0.988844  0  0  0.102852  0.077841  0  0.98791  0
H  H38  1  0.74272690  0.62528646  0.57047972  1  0  0.056746  0  0.967194  0  0  0.073022  0  1.033653  0  0  0.073437  0  1.033368  0  0  0.089144  0.072671  0  1.033947  0
H  H39  1  0.11763491  0.37465090  0.92947528  1  0  0.057617  0  0.967246  0  0  0.073813  0  1.033382  0  0  0.074249  0  1.03311  0  0  0.089639  0.073426  0  1.033705  0
H  H40  1  0.25726102  0.37473659  0.42951579  1  0  0.056823  0  0.967397  0  0  0.073112  0  1.033798  0  0  0.073534  0  1.033504  0  0  0.089158  0.072754  0  1.0341  0
H  H41  1  0.88236549  0.62533418  0.07052339  1  0  0.057679  0  0.967183  0  0  0.073844  0  1.033353  0  0  0.074253  0  1.033107  0  0  0.089661  0.073466  0  1.033669  0
H  H42  1  0.63112330  0.31834420  0.68351930  1  0  0.059703  0  0.951196  0  0  0.073433  0  1.02339  0  0  0.074896  0  1.022314  0  0  0.07838  0.072296  0  1.02428  0
H  H43  1  0.31254315  0.68162971  0.81662793  1  0  0.059988  0  0.950781  0  0  0.0734  0  1.023108  0  0  0.07487  0  1.022051  0  0  0.078405  0.072233  0  1.024014  0
H  H44  1  0.36889203  0.68166414  0.31647120  1  0  0.059694  0  0.95134  0  0  0.073374  0  1.023585  0  0  0.074841  0  1.022507  0  0  0.078351  0.072236  0  1.024477  0
H  H45  1  0.68746003  0.31836425  0.18337712  1  0  0.059871  0  0.950859  0  0  0.073366  0  1.023159  0  0  0.074836  0  1.022108  0  0  0.078403  0.072199  0  1.024066  0
H  H46  1  0.95540982  0.16762837  0.50778982  1  0  0.04592  0  0.942846  0  0  0.064092  0  1.00936  0  0  0.064474  0  1.008644  0  0  0.094456  0.063731  0  1.009962  0
H  H47  1  0.78733776  0.83259240  0.99237079  1  0  0.046869  0  0.944108  0  0  0.06485  0  1.0101  0  0  0.065206  0  1.009442  0  0  0.09447  0.064483  0  1.010697  0
H  H48  1  0.04457440  0.83240051  0.49220434  1  0  0.045874  0  0.943132  0  0  0.064086  0  1.009593  0  0  0.064485  0  1.008872  0  0  0.094452  0.063718  0  1.010192  0
H  H49  1  0.21267346  0.16739117  0.00762455  1  0  0.046818  0  0.944018  0  0  0.064836  0  1.010031  0  0  0.065191  0  1.009372  0  0  0.094484  0.064448  0  1.010641  0
C  C50  1  0.59792429  0.23857062  0.56639772  1  0  0.008233  0  3.694886  0  0  -0.042722  0  3.951997  0  0  -0.040053  0  3.966703  0  0  -0.073292  -0.044371  0  3.941724  0
C  C51  1  0.35905496  0.76149127  0.93373263  1  0  0.008486  0  3.694944  0  0  -0.043208  0  3.9526  0  0  -0.040403  0  3.967133  0  0  -0.073757  -0.044936  0  3.942444  0
C  C52  1  0.40206358  0.76146556  0.43359569  1  0  0.008355  0  3.694891  0  0  -0.042512  0  3.951947  0  0  -0.039834  0  3.966639  0  0  -0.073269  -0.044182  0  3.941694  0
C  C53  1  0.64095299  0.23850560  0.06627201  1  0  0.008487  0  3.694735  0  0  -0.042938  0  3.952088  0  0  -0.040128  0  3.96662  0  0  -0.073624  -0.044684  0  3.941945  0
C  C54  1  0.81645055  0.55642479  0.52663341  1  0  -0.023213  0  3.693983  0  0  -0.078874  0  3.953974  0  0  -0.075711  0  3.965981  0  0  -0.0787  -0.080958  0  3.945706  0
C  C55  1  0.26010553  0.44341245  0.97333810  1  0  -0.024448  0  3.694674  0  0  -0.079917  0  3.954047  0  0  -0.07675  0  3.965957  0  0  -0.07895  -0.081878  0  3.945554  0
C  C56  1  0.18353696  0.44360407  0.47335966  1  0  -0.023559  0  3.694471  0  0  -0.079246  0  3.954502  0  0  -0.076077  0  3.96645  0  0  -0.078743  -0.081271  0  3.946119  0
C  C57  1  0.73990425  0.55656820  0.02665819  1  0  -0.024576  0  3.694789  0  0  -0.080064  0  3.954069  0  0  -0.07687  0  3.965972  0  0  -0.078991  -0.082032  0  3.945597  0
C  C58  1  0.25467698  0.15244113  0.65134480  1  0  0.082769  0  3.63559  0  0  0.024979  0  3.901755  0  0  0.028926  0  3.915006  0  0  -0.077904  0.022484  0  3.892503  0
C  C59  1  0.10198406  0.84751758  0.84877576  1  0  0.082279  0  3.636064  0  0  0.025068  0  3.901131  0  0  0.028923  0  3.914585  0  0  -0.07821  0.022607  0  3.891805  0
C  C60  1  0.74532133  0.84756295  0.34865311  1  0  0.082863  0  3.635468  0  0  0.025039  0  3.901635  0  0  0.028991  0  3.914894  0  0  -0.077863  0.022539  0  3.892385  0
C  C61  1  0.89802482  0.15247785  0.15123044  1  0  0.081939  0  3.636466  0  0  0.02481  0  3.901574  0  0  0.028679  0  3.915004  0  0  -0.078228  0.022348  0  3.892248  0
C  C62  1  0.50463100  0.30214094  0.63747072  1  0  -0.170868  0  3.70878  0  0  -0.211706  0  3.966993  0  0  -0.214047  0  3.981108  0  0  -0.176933  -0.209888  0  3.957141  0
C  C63  1  0.20218747  0.69783096  0.86267313  1  0  -0.171055  0  3.710244  0  0  -0.211449  0  3.968234  0  0  -0.213823  0  3.982455  0  0  -0.176914  -0.209628  0  3.958393  0
C  C64  1  0.49535679  0.69787192  0.36252759  1  0  -0.17089  0  3.70891  0  0  -0.211672  0  3.966986  0  0  -0.214032  0  3.981136  0  0  -0.176835  -0.209881  0  3.957179  0
C  C65  1  0.79782492  0.30216156  0.13733348  1  0  -0.170845  0  3.710138  0  0  -0.21142  0  3.968162  0  0  -0.213805  0  3.982394  0  0  -0.17695  -0.209603  0  3.958334  0
C  C66  1  0.93706102  0.29652504  0.49050114  1  0  -0.017692  0  3.712471  0  0  -0.076107  0  3.979498  0  0  -0.072734  0  3.991396  0  0  -0.075139  -0.07827  0  3.971222  0
C  C67  1  0.64024999  0.70356082  0.00961774  1  0  -0.020576  0  3.716225  0  0  -0.077825  0  3.981461  0  0  -0.074509  0  3.993574  0  0  -0.075492  -0.079936  0  3.973045  0
C  C68  1  0.06291932  0.70349939  0.50948956  1  0  -0.017987  0  3.713004  0  0  -0.076386  0  3.979969  0  0  -0.073068  0  3.991926  0  0  -0.075295  -0.078516  0  3.971659  0
C  C69  1  0.35976512  0.29642719  0.99038106  1  0  -0.020322  0  3.715894  0  0  -0.077761  0  3.981399  0  0  -0.074445  0  3.993519  0  0  -0.0755  -0.079832  0  3.972954  0
N  N70  1  0.15634756  0.20726171  0.72024576  1  0  -0.607224  0  3.115067  0  0  -0.548234  0  3.371351  0  0  -0.566811  0  3.36885  0  0  -0.617042  -0.535347  0  3.372957  0
N  N71  1  0.94900552  0.79278014  0.77984804  1  0  -0.606139  0  3.114024  0  0  -0.546435  0  3.369679  0  0  -0.565002  0  3.367321  0  0  -0.616532  -0.53354  0  3.371161  0
N  N72  1  0.84367733  0.79272931  0.27975861  1  0  -0.607081  0  3.115023  0  0  -0.548117  0  3.371373  0  0  -0.566674  0  3.368826  0  0  -0.616984  -0.535227  0  3.372994  0
N  N73  1  0.05094963  0.20719060  0.22016844  1  0  -0.606115  0  3.113835  0  0  -0.54652  0  3.369517  0  0  -0.565096  0  3.367185  0  0  -0.616539  -0.533627  0  3.370991  0
N  N74  1  0.83354101  0.38191348  0.54941797  1  0  -0.247124  0  3.20384  0  0  -0.17397  0  3.473236  0  0  -0.18806  0  3.490938  0  0  -0.356156  -0.163918  0  3.460446  0
N  N75  1  0.45155121  0.61821483  0.95067338  1  0  -0.2463  0  3.203254  0  0  -0.173896  0  3.473131  0  0  -0.187974  0  3.490825  0  0  -0.355928  -0.163828  0  3.460328  0
N  N76  1  0.16644299  0.61811828  0.45057306  1  0  -0.246994  0  3.204061  0  0  -0.173806  0  3.473313  0  0  -0.187887  0  3.491047  0  0  -0.356006  -0.163751  0  3.46049  0
N  N77  1  0.54845688  0.38177900  0.04932406  1  0  -0.246231  0  3.203185  0  0  -0.173874  0  3.473051  0  0  -0.187948  0  3.490731  0  0  -0.355965  -0.163806  0  3.46024  0
Cl  Cl78  1  0.52709707  0.81022589  0.66853057  1  0  -0.578175  0  0.939966  0  0  -0.516494  0  1.216626  0  0  -0.530243  0  1.191234  0  0  -0.299584  -0.506677  0  1.2342  0
Cl  Cl79  1  0.71660454  0.18986621  0.83148775  1  0  -0.577986  0  0.939619  0  0  -0.516597  0  1.216689  0  0  -0.530293  0  1.191223  0  0  -0.299486  -0.506814  0  1.234339  0
Cl  Cl80  1  0.47292423  0.18978112  0.33146802  1  0  -0.57817  0  0.939922  0  0  -0.516488  0  1.216609  0  0  -0.530243  0  1.19122  0  0  -0.299585  -0.506658  0  1.234169  0
Cl  Cl81  1  0.28338827  0.81013349  0.16851050  1  0  -0.578043  0  0.939621  0  0  -0.516625  0  1.21668  0  0  -0.530335  0  1.191218  0  0  -0.299497  -0.506844  0  1.23434  0
