# generated using pymatgen
data_MgH16C24(NO2)2
_symmetry_space_group_name_H-M   'P 1'
_cell_length_a   7.13584484
_cell_length_b   12.09307849
_cell_length_c   12.16934743
_cell_angle_alpha   119.80320289
_cell_angle_beta   91.35248457
_cell_angle_gamma   89.99275699
_symmetry_Int_Tables_number   1
_chemical_formula_structural   MgH16C24(NO2)2
_chemical_formula_sum   'Mg2 H32 C48 N4 O8'
_cell_volume   910.91560275
_cell_formula_units_Z   2
loop_
 _symmetry_equiv_pos_site_id
 _symmetry_equiv_pos_as_xyz
  1  'x, y, z'
loop_
 _atom_site_type_symbol
 _atom_site_label
 _atom_site_symmetry_multiplicity
 _atom_site_fract_x
 _atom_site_fract_y
 _atom_site_fract_z
 _atom_site_occupancy
 _atom_site_hle17_bader_spin_density
 _atom_site_hle17_ddec_charge
 _atom_site_hle17_ddec_spin_density
 _atom_site_hle17_ddec_sum_bond_order
 _atom_site_hle17_magmom
 _atom_site_hse06_10hf_bader_spin_density
 _atom_site_hse06_10hf_ddec_charge
 _atom_site_hse06_10hf_ddec_spin_density
 _atom_site_hse06_10hf_ddec_sum_bond_order
 _atom_site_hse06_10hf_magmom
 _atom_site_hse06_bader_spin_density
 _atom_site_hse06_ddec_charge
 _atom_site_hse06_ddec_spin_density
 _atom_site_hse06_ddec_sum_bond_order
 _atom_site_hse06_magmom
 _atom_site_pbe_bader_spin_density
 _atom_site_pbe_cm5_charge
 _atom_site_pbe_ddec_charge
 _atom_site_pbe_ddec_spin_density
 _atom_site_pbe_ddec_sum_bond_order
 _atom_site_pbe_magmom
Mg  Mg0  1  0.25001728  0.12630426  0.99994435  1  0  1.448947  0  1.220406  0  0  1.339795  0  1.468366  0  0  1.364362  0  1.433865  0  0  0.825694  1.322299  0  1.492588  0
Mg  Mg1  1  0.74998805  0.87369463  0.00005274  1  0  1.44896  0  1.220406  0  0  1.33985  0  1.468332  0  0  1.364417  0  1.433829  0  0  0.825653  1.322367  0  1.492564  0
H  H2  1  0.79154793  0.09180765  0.31294871  1  0  0.089788  0  0.992362  0  0  0.096801  0  1.062026  0  0  0.099923  0  1.059754  0  0  0.104042  0.094517  0  1.063723  0
H  H3  1  0.70809157  0.77868605  0.68691173  1  0  0.090397  0  0.992167  0  0  0.09697  0  1.062188  0  0  0.100154  0  1.059847  0  0  0.103854  0.094668  0  1.063922  0
H  H4  1  0.20844742  0.90819028  0.68706170  1  0  0.089788  0  0.992416  0  0  0.096798  0  1.062088  0  0  0.099969  0  1.05976  0  0  0.104058  0.094498  0  1.063799  0
H  H5  1  0.29191367  0.22130808  0.31308135  1  0  0.090378  0  0.992124  0  0  0.096949  0  1.062147  0  0  0.100107  0  1.059835  0  0  0.10384  0.094644  0  1.06388  0
H  H6  1  0.91747879  0.22449610  0.53239542  1  0  0.085437  0  0.971267  0  0  0.099052  0  1.0312  0  0  0.101297  0  1.031152  0  0  0.097941  0.097435  0  1.031391  0
H  H7  1  0.58250986  0.69191498  0.46736781  1  0  0.085123  0  0.971141  0  0  0.098471  0  1.03153  0  0  0.100731  0  1.031499  0  0  0.097731  0.096817  0  1.031733  0
H  H8  1  0.08251955  0.77550659  0.46761165  1  0  0.08537  0  0.971491  0  0  0.099075  0  1.031301  0  0  0.101324  0  1.031247  0  0  0.097921  0.097421  0  1.031559  0
H  H9  1  0.41749411  0.30808487  0.53262890  1  0  0.085196  0  0.97109  0  0  0.098579  0  1.031435  0  0  0.10084  0  1.031405  0  0  0.09776  0.09692  0  1.03164  0
H  H10  1  0.73651203  0.56083554  0.52457990  1  0  0.088517  0  0.978394  0  0  0.099247  0  1.043683  0  0  0.101546  0  1.043544  0  0  0.098429  0.097643  0  1.04381  0
H  H11  1  0.76372418  0.03614744  0.47548548  1  0  0.088699  0  0.978044  0  0  0.099517  0  1.04318  0  0  0.101768  0  1.043129  0  0  0.098391  0.09794  0  1.043227  0
H  H12  1  0.26348762  0.43916145  0.47541862  1  0  0.088557  0  0.978417  0  0  0.099258  0  1.043736  0  0  0.101557  0  1.043599  0  0  0.098436  0.097655  0  1.043861  0
H  H13  1  0.23627003  0.96385528  0.52451414  1  0  0.088703  0  0.978029  0  0  0.099513  0  1.043169  0  0  0.101753  0  1.043148  0  0  0.098415  0.097939  0  1.04321  0
H  H14  1  0.60718090  0.42474269  0.30656625  1  0  0.089603  0  0.95392  0  0  0.10008  0  1.017674  0  0  0.103117  0  1.015887  0  0  0.098885  0.097824  0  1.019102  0
H  H15  1  0.89279495  0.11803090  0.69354555  1  0  0.089865  0  0.953968  0  0  0.10025  0  1.017879  0  0  0.103312  0  1.016019  0  0  0.098985  0.097976  0  1.019336  0
H  H16  1  0.39281307  0.57525239  0.69343533  1  0  0.089599  0  0.953932  0  0  0.100089  0  1.017675  0  0  0.103125  0  1.015888  0  0  0.098905  0.097836  0  1.019103  0
H  H17  1  0.10720616  0.88196799  0.30645311  1  0  0.089888  0  0.954005  0  0  0.100273  0  1.017901  0  0  0.103336  0  1.016041  0  0  0.099004  0.097997  0  1.019381  0
H  H18  1  0.70420979  0.63683686  0.72947705  1  0  0.07532  0  0.992192  0  0  0.080105  0  1.067251  0  0  0.083539  0  1.06329  0  0  0.114647  0.077627  0  1.070058  0
H  H19  1  0.79610052  0.90728444  0.27038296  1  0  0.075504  0  0.991795  0  0  0.080337  0  1.066375  0  0  0.083806  0  1.062305  0  0  0.114733  0.07783  0  1.069247  0
H  H20  1  0.29579421  0.36316584  0.27052519  1  0  0.07523  0  0.992152  0  0  0.080065  0  1.067146  0  0  0.083506  0  1.063174  0  0  0.114628  0.077583  0  1.069958  0
H  H21  1  0.20389511  0.09271828  0.72961421  1  0  0.075479  0  0.991798  0  0  0.080344  0  1.066362  0  0  0.083794  0  1.062311  0  0  0.11472  0.077837  0  1.069229  0
H  H22  1  0.10753915  0.34863396  0.67488826  1  0  0.087127  0  0.985886  0  0  0.096863  0  1.051256  0  0  0.098949  0  1.050974  0  0  0.100638  0.09533  0  1.051505  0
H  H23  1  0.39254187  0.67392528  0.32515214  1  0  0.087382  0  0.985193  0  0  0.097111  0  1.050734  0  0  0.09924  0  1.050371  0  0  0.100802  0.095572  0  1.050989  0
H  H24  1  0.89246197  0.65136683  0.32511545  1  0  0.087133  0  0.985886  0  0  0.096853  0  1.051281  0  0  0.098941  0  1.050996  0  0  0.100635  0.095323  0  1.051528  0
H  H25  1  0.60745378  0.32607935  0.67484845  1  0  0.087437  0  0.985213  0  0  0.097136  0  1.050776  0  0  0.099264  0  1.050414  0  0  0.10083  0.095595  0  1.051035  0
H  H26  1  0.20555648  0.48447828  0.90029590  1  0  0.093487  0  0.970259  0  0  0.103962  0  1.031286  0  0  0.106401  0  1.032079  0  0  0.101474  0.102238  0  1.030846  0
H  H27  1  0.29422930  0.58444408  0.09978953  1  0  0.09434  0  0.969539  0  0  0.104241  0  1.03112  0  0  0.106716  0  1.031824  0  0  0.101502  0.102524  0  1.030675  0
H  H28  1  0.79444467  0.51552347  0.09970828  1  0  0.093476  0  0.970234  0  0  0.103946  0  1.03127  0  0  0.106373  0  1.032079  0  0  0.101454  0.102221  0  1.030834  0
H  H29  1  0.70576629  0.41555769  0.90020964  1  0  0.094361  0  0.969533  0  0  0.104272  0  1.031087  0  0  0.106751  0  1.031783  0  0  0.101523  0.10255  0  1.030659  0
H  H30  1  0.05489957  0.70064827  0.02863942  1  0  0.085351  0  0.956817  0  0  0.089828  0  1.027084  0  0  0.092996  0  1.024399  0  0  0.116201  0.0875  0  1.029049  0
H  H31  1  0.44500781  0.67208158  0.97140785  1  0  0.084999  0  0.956692  0  0  0.089635  0  1.026874  0  0  0.092869  0  1.024059  0  0  0.116089  0.08726  0  1.028925  0
H  H32  1  0.94510299  0.29935348  0.97136314  1  0  0.08544  0  0.95674  0  0  0.089898  0  1.027036  0  0  0.093069  0  1.024346  0  0  0.116203  0.087564  0  1.028996  0
H  H33  1  0.55499192  0.32791732  0.02858915  1  0  0.084994  0  0.956756  0  0  0.08965  0  1.026905  0  0  0.092884  0  1.024088  0  0  0.116077  0.087269  0  1.028955  0
C  C34  1  0.60051006  0.16040965  0.16759016  1  0  0.715159  0  3.864104  0  0  0.660776  0  4.161349  0  0  0.695814  0  4.14954  0  0  0.233133  0.637088  0  4.16872  0
C  C35  1  0.89920057  0.99262584  0.83238033  1  0  0.714308  0  3.865814  0  0  0.659987  0  4.162929  0  0  0.695012  0  4.151099  0  0  0.232591  0.636285  0  4.170294  0
C  C36  1  0.39948548  0.83959116  0.83241100  1  0  0.715203  0  3.863874  0  0  0.660833  0  4.161077  0  0  0.695871  0  4.149264  0  0  0.233193  0.637147  0  4.168447  0
C  C37  1  0.10081057  0.00737876  0.16761476  1  0  0.714212  0  3.866118  0  0  0.659853  0  4.163279  0  0  0.694881  0  4.151444  0  0  0.23248  0.636151  0  4.170646  0
C  C38  1  0.68950287  0.24861598  0.29631515  1  0  -0.060321  0  3.710293  0  0  -0.036245  0  3.938267  0  0  -0.04386  0  3.960904  0  0  -0.014288  -0.031416  0  3.92305  0
C  C39  1  0.81029466  0.95212140  0.70365691  1  0  -0.058779  0  3.710858  0  0  -0.034642  0  3.938433  0  0  -0.042261  0  3.961122  0  0  -0.013432  -0.029796  0  3.923176  0
C  C40  1  0.31049244  0.75137814  0.70368844  1  0  -0.06026  0  3.710257  0  0  -0.036146  0  3.938201  0  0  -0.043762  0  3.960846  0  0  -0.014258  -0.031322  0  3.922988  0
C  C41  1  0.18970919  0.04787368  0.29633745  1  0  -0.058777  0  3.710975  0  0  -0.0346  0  3.9385  0  0  -0.042219  0  3.961183  0  0  -0.013357  -0.029757  0  3.923251  0
C  C42  1  0.78063497  0.19488586  0.36122099  1  0  -0.053868  0  3.747378  0  0  -0.078377  0  3.994105  0  0  -0.078211  0  4.015314  0  0  -0.08259  -0.07826  0  3.979868  0
C  C43  1  0.71916240  0.83347811  0.63865024  1  0  -0.055611  0  3.748083  0  0  -0.079699  0  3.994592  0  0  -0.079593  0  4.015808  0  0  -0.082911  -0.079572  0  3.980361  0
C  C44  1  0.21935906  0.80511398  0.63878706  1  0  -0.053804  0  3.747563  0  0  -0.078345  0  3.994315  0  0  -0.078214  0  4.015497  0  0  -0.082601  -0.078207  0  3.980074  0
C  C45  1  0.28084007  0.16651792  0.36134456  1  0  -0.05547  0  3.748174  0  0  -0.079561  0  3.994684  0  0  -0.079435  0  4.015916  0  0  -0.082886  -0.079431  0  3.980448  0
C  C46  1  0.85027266  0.27004223  0.48403456  1  0  -0.124622  0  3.757135  0  0  -0.142051  0  4.00577  0  0  -0.146202  0  4.027492  0  0  -0.093646  -0.139337  0  3.991157  0
C  C47  1  0.64972078  0.78581991  0.51578804  1  0  -0.123218  0  3.757119  0  0  -0.14031  0  4.005306  0  0  -0.144506  0  4.026942  0  0  -0.092913  -0.137554  0  3.990747  0
C  C48  1  0.14972421  0.72995761  0.51597107  1  0  -0.124719  0  3.757541  0  0  -0.142159  0  4.006192  0  0  -0.146313  0  4.027925  0  0  -0.093647  -0.139435  0  3.99158  0
C  C49  1  0.35028037  0.21417805  0.48420440  1  0  -0.123419  0  3.757292  0  0  -0.140577  0  4.005462  0  0  -0.144775  0  4.027093  0  0  -0.093004  -0.137816  0  3.990897  0
C  C50  1  0.83195545  0.40327580  0.54709605  1  0  0.045318  0  3.800109  0  0  0.057556  0  4.033018  0  0  0.059178  0  4.056778  0  0  -0.012231  0.056708  0  4.0168  0
C  C51  1  0.66822548  0.85606235  0.45282370  1  0  0.045435  0  3.802783  0  0  0.057555  0  4.035909  0  0  0.059245  0  4.059599  0  0  -0.012257  0.05667  0  4.019723  0
C  C52  1  0.16804284  0.59672405  0.45290797  1  0  0.045556  0  3.79996  0  0  0.057663  0  4.033063  0  0  0.059284  0  4.056823  0  0  -0.012154  0.056823  0  4.016834  0
C  C53  1  0.33177291  0.14393846  0.54717340  1  0  0.045408  0  3.802764  0  0  0.057635  0  4.035757  0  0  0.059328  0  4.059445  0  0  -0.012212  0.056754  0  4.019567  0
C  C54  1  0.74568107  0.45764424  0.48021669  1  0  -0.119034  0  3.738197  0  0  -0.137229  0  3.989189  0  0  -0.141638  0  4.011977  0  0  -0.092933  -0.134267  0  3.973604  0
C  C55  1  0.75441212  0.97731418  0.51983549  1  0  -0.119125  0  3.740122  0  0  -0.137275  0  3.990899  0  0  -0.141698  0  4.013675  0  0  -0.09301  -0.134288  0  3.975308  0
C  C56  1  0.25431716  0.54235369  0.51978638  1  0  -0.119134  0  3.738397  0  0  -0.137284  0  3.989452  0  0  -0.141694  0  4.012243  0  0  -0.092969  -0.134321  0  3.973865  0
C  C57  1  0.24558344  0.02268664  0.48016320  1  0  -0.119151  0  3.740197  0  0  -0.137329  0  3.990971  0  0  -0.141756  0  4.013743  0  0  -0.093097  -0.134339  0  3.97538  0
C  C58  1  0.67472789  0.38145158  0.35705018  1  0  -0.070282  0  3.749793  0  0  -0.094027  0  4.000204  0  0  -0.094012  0  4.021594  0  0  -0.087409  -0.093749  0  3.985633  0
C  C59  1  0.82521015  0.02426480  0.64301325  1  0  -0.071273  0  3.750852  0  0  -0.095138  0  4.001439  0  0  -0.095118  0  4.022839  0  0  -0.087733  -0.094834  0  3.986845  0
C  C60  1  0.32527034  0.61854540  0.64295077  1  0  -0.070322  0  3.749891  0  0  -0.094066  0  4.000273  0  0  -0.09405  0  4.02166  0  0  -0.087431  -0.093788  0  3.985709  0
C  C61  1  0.17479096  0.97573410  0.35698542  1  0  -0.071258  0  3.751043  0  0  -0.095138  0  4.001626  0  0  -0.095116  0  4.023027  0  0  -0.087735  -0.094843  0  3.987044  0
C  C62  1  0.82104202  0.60059763  0.76092998  1  0  0.098256  0  3.656374  0  0  0.062733  0  3.906111  0  0  0.068321  0  3.921868  0  0  0.054736  0.058852  0  3.896203  0
C  C63  1  0.67922239  0.83962720  0.23899184  1  0  0.097089  0  3.65817  0  0  0.062279  0  3.907337  0  0  0.067926  0  3.923147  0  0  0.054478  0.058368  0  3.897437  0
C  C64  1  0.17895915  0.39940317  0.23906880  1  0  0.0984  0  3.65642  0  0  0.062876  0  3.906145  0  0  0.068464  0  3.921903  0  0  0.054761  0.058998  0  3.896224  0
C  C65  1  0.32077461  0.16037456  0.76100571  1  0  0.097129  0  3.658103  0  0  0.062256  0  3.90733  0  0  0.067917  0  3.923136  0  0  0.054427  0.058322  0  3.897463  0
C  C66  1  0.89929046  0.48154971  0.67981891  1  0  0.000866  0  3.775988  0  0  0.021613  0  4.004729  0  0  0.017126  0  4.029118  0  0  -0.004078  0.024322  0  3.988189  0
C  C67  1  0.60094498  0.80176048  0.32012401  1  0  0.000316  0  3.777071  0  0  0.020392  0  4.006444  0  0  0.015838  0  4.030901  0  0  -0.004391  0.023151  0  3.989845  0
C  C68  1  0.10071345  0.51845013  0.32018273  1  0  0.000703  0  3.775959  0  0  0.021451  0  4.004785  0  0  0.016962  0  4.029176  0  0  -0.004152  0.024156  0  3.988246  0
C  C69  1  0.39905199  0.19824033  0.67987388  1  0  0.000213  0  3.777067  0  0  0.020277  0  4.006414  0  0  0.015722  0  4.030866  0  0  -0.004411  0.023036  0  3.989814  0
C  C70  1  0.04005136  0.43970079  0.73268904  1  0  -0.059159  0  3.712684  0  0  -0.082826  0  3.955937  0  0  -0.08073  0  3.975054  0  0  -0.072643  -0.083766  0  3.942756  0
C  C71  1  0.46001958  0.70714174  0.26733029  1  0  -0.058063  0  3.711509  0  0  -0.081646  0  3.954553  0  0  -0.079501  0  3.973597  0  0  -0.072545  -0.082614  0  3.941406  0
C  C72  1  0.95995261  0.56030191  0.26731484  1  0  -0.059048  0  3.712658  0  0  -0.082689  0  3.955886  0  0  -0.080591  0  3.975  0  0  -0.072562  -0.083632  0  3.942712  0
C  C73  1  0.53997882  0.29286002  0.73266810  1  0  -0.057995  0  3.711436  0  0  -0.081556  0  3.954501  0  0  -0.079413  0  3.973551  0  0  -0.072526  -0.082525  0  3.941359  0
C  C74  1  0.09619356  0.51634269  0.85883113  1  0  -0.131515  0  3.775998  0  0  -0.141199  0  4.02714  0  0  -0.148345  0  4.049433  0  0  -0.091628  -0.136659  0  4.012092  0
C  C75  1  0.40368550  0.65771053  0.14122794  1  0  -0.132747  0  3.775775  0  0  -0.141847  0  4.027143  0  0  -0.148997  0  4.049464  0  0  -0.091166  -0.137302  0  4.012093  0
C  C76  1  0.90380619  0.48365905  0.14117221  1  0  -0.131514  0  3.776015  0  0  -0.141195  0  4.027154  0  0  -0.148332  0  4.049454  0  0  -0.091597  -0.136659  0  4.012112  0
C  C77  1  0.59631290  0.34229123  0.85877045  1  0  -0.132786  0  3.775779  0  0  -0.141887  0  4.027125  0  0  -0.149036  0  4.049445  0  0  -0.091249  -0.137349  0  4.012082  0
C  C78  1  0.01314459  0.63474480  0.93039861  1  0  0.124395  0  3.70523  0  0  0.091976  0  3.963481  0  0  0.098523  0  3.97955  0  0  0.047064  0.087877  0  3.952494  0
C  C79  1  0.48681750  0.70444142  0.06963065  1  0  0.125391  0  3.70367  0  0  0.092731  0  3.962008  0  0  0.099266  0  3.978124  0  0  0.047018  0.088625  0  3.951018  0
C  C80  1  0.98686078  0.36525694  0.06960400  1  0  0.124222  0  3.705336  0  0  0.091812  0  3.963583  0  0  0.098357  0  3.979651  0  0  0.047007  0.087717  0  3.952585  0
C  C81  1  0.51318225  0.29555843  0.93036764  1  0  0.12528  0  3.703768  0  0  0.092606  0  3.962095  0  0  0.09914  0  3.978214  0  0  0.047043  0.088502  0  3.951099  0
N  N82  1  0.87652321  0.67607500  0.88211856  1  0  -0.356531  0  3.217513  0  0  -0.297816  0  3.473709  0  0  -0.309509  0  3.488626  0  0  -0.332026  -0.289982  0  3.463559  0
N  N83  1  0.62357559  0.79395272  0.11784151  1  0  -0.356491  0  3.217755  0  0  -0.29798  0  3.474052  0  0  -0.309698  0  3.488974  0  0  -0.33205  -0.290129  0  3.463901  0
N  N84  1  0.12348359  0.32392769  0.11788372  1  0  -0.356537  0  3.217678  0  0  -0.297816  0  3.473868  0  0  -0.309511  0  3.488789  0  0  -0.332052  -0.289985  0  3.463711  0
N  N85  1  0.37642141  0.20604905  0.88215686  1  0  -0.35639  0  3.217668  0  0  -0.297855  0  3.473977  0  0  -0.309573  0  3.488893  0  0  -0.332002  -0.290002  0  3.463815  0
O  O86  1  0.48568069  0.20927117  0.12226470  1  0  -0.725468  0  2.038484  0  0  -0.670817  0  2.285831  0  0  -0.694253  0  2.27226  0  0  -0.346168  -0.654139  0  2.294146  0
O  O87  1  0.01414094  0.08675779  0.87774359  1  0  -0.725465  0  2.038432  0  0  -0.670444  0  2.284814  0  0  -0.693958  0  2.271432  0  0  -0.346173  -0.653885  0  2.293398  0
O  O88  1  0.51432584  0.79072198  0.87773614  1  0  -0.725503  0  2.038171  0  0  -0.670879  0  2.285519  0  0  -0.694318  0  2.271944  0  0  -0.346178  -0.654218  0  2.293876  0
O  O89  1  0.98587270  0.91323442  0.12224540  1  0  -0.725478  0  2.038339  0  0  -0.670446  0  2.284708  0  0  -0.693963  0  2.271324  0  0  -0.34612  -0.653886  0  2.2933  0
O  O90  1  0.63998068  0.04406882  0.11777548  1  0  -0.70251  0  2.05719  0  0  -0.650215  0  2.303523  0  0  -0.672516  0  2.290375  0  0  -0.350394  -0.634738  0  2.312139  0
O  O91  1  0.85959194  0.92613668  0.88217434  1  0  -0.702342  0  2.059547  0  0  -0.650131  0  2.30575  0  0  -0.672417  0  2.292589  0  0  -0.350424  -0.634686  0  2.314458  0
O  O92  1  0.36002597  0.95592720  0.88222268  1  0  -0.702505  0  2.057358  0  0  -0.650201  0  2.303704  0  0  -0.672504  0  2.290561  0  0  -0.350424  -0.6347  0  2.312274  0
O  O93  1  0.14040517  0.07387079  0.11783015  1  0  -0.702241  0  2.059909  0  0  -0.650031  0  2.306176  0  0  -0.672315  0  2.293012  0  0  -0.350369  -0.634582  0  2.314878  0
