# generated using pymatgen
data_ZnH12C16N2O5
_symmetry_space_group_name_H-M   'P 1'
_cell_length_a   7.35176013
_cell_length_b   9.74122649
_cell_length_c   10.28831620
_cell_angle_alpha   92.06516554
_cell_angle_beta   89.99887854
_cell_angle_gamma   90.00163107
_symmetry_Int_Tables_number   1
_chemical_formula_structural   ZnH12C16N2O5
_chemical_formula_sum   'Zn2 H24 C32 N4 O10'
_cell_volume   736.32085580
_cell_formula_units_Z   2
loop_
 _symmetry_equiv_pos_site_id
 _symmetry_equiv_pos_as_xyz
  1  'x, y, z'
loop_
 _atom_site_type_symbol
 _atom_site_label
 _atom_site_symmetry_multiplicity
 _atom_site_fract_x
 _atom_site_fract_y
 _atom_site_fract_z
 _atom_site_occupancy
 _atom_site_hle17_bader_spin_density
 _atom_site_hle17_ddec_charge
 _atom_site_hle17_ddec_spin_density
 _atom_site_hle17_ddec_sum_bond_order
 _atom_site_hle17_magmom
 _atom_site_hse06_10hf_bader_spin_density
 _atom_site_hse06_10hf_ddec_charge
 _atom_site_hse06_10hf_ddec_spin_density
 _atom_site_hse06_10hf_ddec_sum_bond_order
 _atom_site_hse06_10hf_magmom
 _atom_site_hse06_bader_spin_density
 _atom_site_hse06_ddec_charge
 _atom_site_hse06_ddec_spin_density
 _atom_site_hse06_ddec_sum_bond_order
 _atom_site_hse06_magmom
 _atom_site_pbe_bader_spin_density
 _atom_site_pbe_cm5_charge
 _atom_site_pbe_ddec_charge
 _atom_site_pbe_ddec_spin_density
 _atom_site_pbe_ddec_sum_bond_order
 _atom_site_pbe_magmom
Zn  Zn0  1  0.48823756  0.29965114  0.26264871  1  0  1.012867  0  1.820131  0  0  0.832467  0  2.267467  0  0  0.882488  0  2.213247  0  0  0.669079  0.797836  0  2.304686  0
Zn  Zn1  1  0.98824548  0.70034659  0.73734943  1  0  1.012875  0  1.820155  0  0  0.832517  0  2.267411  0  0  0.882538  0  2.213195  0  0  0.669114  0.797885  0  2.304628  0
H  H2  1  0.43265785  0.97285368  0.28296178  1  0  0.077667  0  0.963441  0  0  0.085808  0  1.030137  0  0  0.087339  0  1.028752  0  0  0.118142  0.084604  0  1.031153  0
H  H3  1  0.93266678  0.02714700  0.71704016  1  0  0.077653  0  0.963441  0  0  0.085793  0  1.030148  0  0  0.087321  0  1.028763  0  0  0.118147  0.084589  0  1.031165  0
H  H4  1  0.38815664  0.77215815  0.12613840  1  0  0.102985  0  0.953621  0  0  0.115129  0  1.009683  0  0  0.117558  0  1.010118  0  0  0.108049  0.113107  0  1.009883  0
H  H5  1  0.88815665  0.22784057  0.87386410  1  0  0.103058  0  0.953611  0  0  0.115196  0  1.009671  0  0  0.117626  0  1.010105  0  0  0.108075  0.113175  0  1.009873  0
H  H6  1  0.38144268  0.81546859  0.88457947  1  0  0.120429  0  0.952434  0  0  0.128653  0  1.016458  0  0  0.132014  0  1.01367  0  0  0.113062  0.126098  0  1.018592  0
H  H7  1  0.88144526  0.18453204  0.11542416  1  0  0.120411  0  0.95238  0  0  0.12869  0  1.016353  0  0  0.132063  0  1.013536  0  0  0.113054  0.126137  0  1.018487  0
H  H8  1  0.41188450  0.98436758  0.70789108  1  0  0.107608  0  0.973546  0  0  0.115435  0  1.039391  0  0  0.117729  0  1.039441  0  0  0.103857  0.113924  0  1.039323  0
H  H9  1  0.91189769  0.01562957  0.29211006  1  0  0.107627  0  0.973465  0  0  0.115443  0  1.03933  0  0  0.117734  0  1.039384  0  0  0.103874  0.113933  0  1.039261  0
H  H10  1  0.46578329  0.22236900  0.64144561  1  0  0.120211  0  0.967161  0  0  0.129155  0  1.02649  0  0  0.132593  0  1.025227  0  0  0.106081  0.126447  0  1.02762  0
H  H11  1  0.96579214  0.77763032  0.35855387  1  0  0.120185  0  0.967234  0  0  0.129137  0  1.026549  0  0  0.132575  0  1.025288  0  0  0.106073  0.126431  0  1.027677  0
H  H12  1  0.53633759  0.47443377  0.70843603  1  0  0.126094  0  0.929707  0  0  0.134273  0  0.989171  0  0  0.137765  0  0.986655  0  0  0.117116  0.131422  0  0.991558  0
H  H13  1  0.03633604  0.52556680  0.29155984  1  0  0.126039  0  0.929731  0  0  0.134213  0  0.9892  0  0  0.137703  0  0.986689  0  0  0.117118  0.131389  0  0.991554  0
H  H14  1  0.58934072  0.64687561  0.88561385  1  0  0.117408  0  0.96537  0  0  0.124886  0  1.029296  0  0  0.128426  0  1.027771  0  0  0.109429  0.122391  0  1.030299  0
H  H15  1  0.08933338  0.35313018  0.11437853  1  0  0.117418  0  0.965446  0  0  0.124903  0  1.029341  0  0  0.128443  0  1.027821  0  0  0.109441  0.122407  0  1.030348  0
H  H16  1  0.56616071  0.57511697  0.12095886  1  0  0.083384  0  0.948501  0  0  0.091898  0  1.012753  0  0  0.094759  0  1.009911  0  0  0.1156  0.089836  0  1.014846  0
H  H17  1  0.06615578  0.42488731  0.87903476  1  0  0.083318  0  0.948543  0  0  0.091871  0  1.012765  0  0  0.094732  0  1.009922  0  0  0.11559  0.089807  0  1.014857  0
H  H18  1  0.82376512  0.14090456  0.56215635  1  0  0.113253  0  0.938307  0  0  0.126411  0  0.995374  0  0  0.129605  0  0.993332  0  0  0.111474  0.124223  0  0.996918  0
H  H19  1  0.32379805  0.85909589  0.43785392  1  0  0.113361  0  0.938259  0  0  0.126463  0  0.995376  0  0  0.129645  0  0.993338  0  0  0.111465  0.124279  0  0.996913  0
H  H20  1  0.14473200  0.07834530  0.56200513  1  0  0.115587  0  0.953973  0  0  0.122823  0  1.019597  0  0  0.126697  0  1.017899  0  0  0.103291  0.12023  0  1.020796  0
H  H21  1  0.64476726  0.92165549  0.43799602  1  0  0.115584  0  0.953998  0  0  0.122833  0  1.019592  0  0  0.126709  0  1.017891  0  0  0.10328  0.120242  0  1.02079  0
H  H22  1  0.43329795  0.52997398  0.41120560  1  0  0.423728  0  0.881606  0  0  0.389666  0  0.949486  0  0  0.401069  0  0.933291  0  0  0.284023  0.381601  0  0.960954  0
H  H23  1  0.93329440  0.47002259  0.58879133  1  0  0.423763  0  0.881548  0  0  0.389691  0  0.949455  0  0  0.401099  0  0.933249  0  0  0.284063  0.381628  0  0.960924  0
H  H24  1  0.63984805  0.48891078  0.38623396  1  0  0.411739  0  0.898432  0  0  0.378583  0  0.965394  0  0  0.390247  0  0.948672  0  0  0.28458  0.370345  0  0.977216  0
H  H25  1  0.13984812  0.51108374  0.61376316  1  0  0.41172  0  0.898436  0  0  0.378535  0  0.965432  0  0  0.390203  0  0.948708  0  0  0.284563  0.370299  0  0.97725  0
C  C26  1  0.43061783  0.98614134  0.17832336  1  0  0.150753  0  3.690809  0  0  0.117086  0  3.946934  0  0  0.125385  0  3.964443  0  0  0.059793  0.111527  0  3.935658  0
C  C27  1  0.93062614  0.01386032  0.82168058  1  0  0.150711  0  3.690657  0  0  0.117046  0  3.946787  0  0  0.125348  0  3.964294  0  0  0.059708  0.111486  0  3.935512  0
C  C28  1  0.40639960  0.87468963  0.08939895  1  0  -0.125418  0  3.737361  0  0  -0.139699  0  3.995788  0  0  -0.146999  0  4.01768  0  0  -0.085755  -0.135511  0  3.98164  0
C  C29  1  0.90640563  0.12531152  0.91060532  1  0  -0.125464  0  3.737192  0  0  -0.13973  0  3.995616  0  0  -0.147034  0  4.017509  0  0  -0.085702  -0.135543  0  3.981471  0
C  C30  1  0.40344750  0.89793338  0.95744525  1  0  -0.034805  0  3.636513  0  0  -0.062218  0  3.890272  0  0  -0.058577  0  3.906041  0  0  -0.059642  -0.064204  0  3.878552  0
C  C31  1  0.90345302  0.10206771  0.04255906  1  0  -0.034801  0  3.636334  0  0  -0.062275  0  3.890082  0  0  -0.058634  0  3.905859  0  0  -0.059661  -0.064261  0  3.878362  0
C  C32  1  0.42791161  0.03311251  0.91491320  1  0  0.030142  0  3.780737  0  0  0.045109  0  4.013782  0  0  0.042616  0  4.037969  0  0  -0.000877  0.047514  0  3.996343  0
C  C33  1  0.92791733  0.96688909  0.08508787  1  0  0.030177  0  3.780749  0  0  0.045137  0  4.013765  0  0  0.042639  0  4.037958  0  0  -0.000946  0.047546  0  3.996328  0
C  C34  1  0.43251433  0.06706804  0.78060630  1  0  -0.094764  0  3.722253  0  0  -0.117071  0  3.975967  0  0  -0.120532  0  4.000337  0  0  -0.082488  -0.115015  0  3.958878  0
C  C35  1  0.93252193  0.93293571  0.21939282  1  0  -0.094765  0  3.721987  0  0  -0.117064  0  3.975676  0  0  -0.120524  0  4.00005  0  0  -0.082497  -0.11501  0  3.958588  0
C  C36  1  0.46291003  0.19898737  0.74453189  1  0  -0.106924  0  3.719822  0  0  -0.127492  0  3.968749  0  0  -0.132192  0  3.992582  0  0  -0.083599  -0.12358  0  3.951949  0
C  C37  1  0.96291712  0.80101086  0.25546759  1  0  -0.106945  0  3.71981  0  0  -0.127489  0  3.968748  0  0  -0.132188  0  3.992578  0  0  -0.083555  -0.123578  0  3.95195  0
C  C38  1  0.49037631  0.30755634  0.84037752  1  0  0.017257  0  3.801745  0  0  0.036099  0  4.030102  0  0  0.033667  0  4.054625  0  0  -0.000632  0.037406  0  4.013499  0
C  C39  1  0.99037510  0.69244657  0.15962174  1  0  0.017309  0  3.801645  0  0  0.036074  0  4.030103  0  0  0.033642  0  4.054627  0  0  -0.000621  0.03738  0  4.013505  0
C  C40  1  0.52822876  0.44482915  0.80950449  1  0  -0.017329  0  3.615723  0  0  -0.041686  0  3.860597  0  0  -0.038447  0  3.876255  0  0  -0.050141  -0.043477  0  3.849941  0
C  C41  1  0.02822291  0.55516920  0.19049336  1  0  -0.017179  0  3.615482  0  0  -0.041502  0  3.860349  0  0  -0.038262  0  3.876009  0  0  -0.050119  -0.043312  0  3.849684  0
C  C42  1  0.55654491  0.54185255  0.90908311  1  0  -0.113832  0  3.712158  0  0  -0.131244  0  3.974181  0  0  -0.138121  0  3.995002  0  0  -0.08357  -0.126367  0  3.9594  0
C  C43  1  0.05653809  0.45815153  0.09091162  1  0  -0.114065  0  3.712361  0  0  -0.131463  0  3.974378  0  0  -0.138351  0  3.995202  0  0  -0.083652  -0.126586  0  3.959606  0
C  C44  1  0.54512740  0.50287989  0.03886851  1  0  0.139522  0  3.696982  0  0  0.105472  0  3.953773  0  0  0.113328  0  3.971658  0  0  0.054055  0.100343  0  3.941461  0
C  C45  1  0.04512162  0.49712395  0.96112734  1  0  0.139751  0  3.696851  0  0  0.105669  0  3.953639  0  0  0.113529  0  3.971526  0  0  0.05412  0.100544  0  3.941322  0
C  C46  1  0.48299883  0.27751914  0.97434084  1  0  0.123121  0  3.773404  0  0  0.116576  0  4.00786  0  0  0.120738  0  4.030278  0  0  0.115115  0.113113  0  3.993777  0
C  C47  1  0.98299965  0.72248361  0.02565754  1  0  0.123209  0  3.773257  0  0  0.116653  0  4.007749  0  0  0.120815  0  4.030165  0  0  0.115199  0.113193  0  3.993667  0
C  C48  1  0.45190920  0.13852593  0.01198016  1  0  0.121687  0  3.778557  0  0  0.116094  0  4.01376  0  0  0.119842  0  4.036385  0  0  0.115848  0.113809  0  3.9984  0
C  C49  1  0.95191505  0.86147515  0.98802054  1  0  0.121612  0  3.778624  0  0  0.116089  0  4.013726  0  0  0.119841  0  4.036347  0  0  0.115845  0.113794  0  3.99838  0
C  C50  1  0.82877290  0.29476757  0.41511508  1  0  0.719367  0  3.867786  0  0  0.6655  0  4.166377  0  0  0.701228  0  4.155029  0  0  0.222914  0.641121  0  4.173348  0
C  C51  1  0.32878924  0.70522887  0.58488819  1  0  0.719266  0  3.867949  0  0  0.665592  0  4.166272  0  0  0.701317  0  4.154922  0  0  0.22298  0.641209  0  4.173244  0
C  C52  1  0.91927741  0.19174548  0.49796754  1  0  -0.139139  0  3.646723  0  0  -0.162367  0  3.909853  0  0  -0.16184  0  3.917965  0  0  -0.073732  -0.163093  0  3.904864  0
C  C53  1  0.41931756  0.80825491  0.50203652  1  0  -0.139354  0  3.647265  0  0  -0.162601  0  3.910361  0  0  -0.162058  0  3.918458  0  0  -0.073865  -0.16333  0  3.905377  0
C  C54  1  0.09544955  0.15664131  0.49757381  1  0  -0.202454  0  3.703492  0  0  -0.221249  0  3.963112  0  0  -0.228066  0  3.975524  0  0  -0.100922  -0.216772  0  3.954932  0
C  C55  1  0.59547739  0.84335742  0.50242797  1  0  -0.202431  0  3.703936  0  0  -0.22121  0  3.963478  0  0  -0.228024  0  3.975883  0  0  -0.100864  -0.216741  0  3.955302  0
C  C56  1  0.23354260  0.21712318  0.41163329  1  0  0.660989  0  3.929687  0  0  0.619888  0  4.210831  0  0  0.654137  0  4.203758  0  0  0.187289  0.596815  0  4.214718  0
C  C57  1  0.73357263  0.78287434  0.58836455  1  0  0.661191  0  3.929652  0  0  0.62009  0  4.210784  0  0  0.65434  0  4.203711  0  0  0.187481  0.59702  0  4.214671  0
N  N58  1  0.45179274  0.11421564  0.14064823  1  0  -0.33906  0  3.275849  0  0  -0.268871  0  3.538246  0  0  -0.286789  0  3.555008  0  0  -0.313372  -0.257385  0  3.527244  0
N  N59  1  0.95180164  0.88578646  0.85935348  1  0  -0.339004  0  3.275731  0  0  -0.268851  0  3.538124  0  0  -0.286775  0  3.554894  0  0  -0.313329  -0.257361  0  3.52712  0
N  N60  1  0.50873054  0.37429695  0.07047933  1  0  -0.350083  0  3.29088  0  0  -0.277368  0  3.559679  0  0  -0.296381  0  3.576661  0  0  -0.319585  -0.26472  0  3.548939  0
N  N61  1  0.00872910  0.62570714  0.92951607  1  0  -0.350248  0  3.290659  0  0  -0.277568  0  3.559535  0  0  -0.296581  0  3.576512  0  0  -0.319684  -0.264919  0  3.548793  0
O  O62  1  0.18661503  0.29385371  0.31963441  1  0  -0.632995  0  1.93945  0  0  -0.571855  0  2.173896  0  0  -0.598681  0  2.164822  0  0  -0.319069  -0.552835  0  2.179345  0
O  O63  1  0.68663016  0.70613974  0.68036201  1  0  -0.633064  0  1.939577  0  0  -0.571869  0  2.173929  0  0  -0.598722  0  2.1649  0  0  -0.319091  -0.552831  0  2.179329  0
O  O64  1  0.40123222  0.18725788  0.43146669  1  0  -0.641126  0  1.945327  0  0  -0.577204  0  2.180006  0  0  -0.604816  0  2.169886  0  0  -0.328391  -0.558335  0  2.186548  0
O  O65  1  0.90126120  0.81273905  0.56853557  1  0  -0.641148  0  1.945339  0  0  -0.577286  0  2.180092  0  0  -0.604886  0  2.16995  0  0  -0.328475  -0.558418  0  2.186626  0
O  O66  1  0.52040945  0.50004325  0.34035487  1  0  -0.83713  0  1.915746  0  0  -0.772568  0  2.120782  0  0  -0.795747  0  2.085536  0  0  -0.584139  -0.755793  0  2.14528  0
O  O67  1  0.02040514  0.49995185  0.65964201  1  0  -0.837161  0  1.915718  0  0  -0.772568  0  2.120776  0  0  -0.795745  0  2.085509  0  0  -0.584182  -0.755799  0  2.145272  0
O  O68  1  0.75478705  0.24722781  0.31105014  1  0  -0.63634  0  2.036609  0  0  -0.570201  0  2.299115  0  0  -0.598835  0  2.285249  0  0  -0.315815  -0.549811  0  2.308098  0
O  O69  1  0.25479692  0.75277016  0.68894936  1  0  -0.636311  0  2.036687  0  0  -0.570219  0  2.299093  0  0  -0.598848  0  2.285224  0  0  -0.315831  -0.549836  0  2.30808  0
O  O70  1  0.81659524  0.41828397  0.45879818  1  0  -0.624404  0  1.982366  0  0  -0.555935  0  2.186311  0  0  -0.583224  0  2.175003  0  0  -0.297078  -0.536838  0  2.194062  0
O  O71  1  0.31660810  0.58171221  0.54120233  1  0  -0.624294  0  1.982491  0  0  -0.555927  0  2.186376  0  0  -0.583211  0  2.175068  0  0  -0.297103  -0.536819  0  2.194115  0
