# generated using pymatgen
data_Ag3Mo2H12C12N6O4F7
_symmetry_space_group_name_H-M   'P 1'
_cell_length_a   7.09185085
_cell_length_b   7.78150673
_cell_length_c   19.02238799
_cell_angle_alpha   101.04483477
_cell_angle_beta   89.99986894
_cell_angle_gamma   90.00031962
_symmetry_Int_Tables_number   1
_chemical_formula_structural   Ag3Mo2H12C12N6O4F7
_chemical_formula_sum   'Ag6 Mo4 H24 C24 N12 O8 F14'
_cell_volume   1030.31187614
_cell_formula_units_Z   2
loop_
 _symmetry_equiv_pos_site_id
 _symmetry_equiv_pos_as_xyz
  1  'x, y, z'
loop_
 _atom_site_type_symbol
 _atom_site_label
 _atom_site_symmetry_multiplicity
 _atom_site_fract_x
 _atom_site_fract_y
 _atom_site_fract_z
 _atom_site_occupancy
 _atom_site_hle17_bader_spin_density
 _atom_site_hle17_ddec_charge
 _atom_site_hle17_ddec_spin_density
 _atom_site_hle17_ddec_sum_bond_order
 _atom_site_hle17_magmom
 _atom_site_hse06_10hf_bader_spin_density
 _atom_site_hse06_10hf_ddec_charge
 _atom_site_hse06_10hf_ddec_spin_density
 _atom_site_hse06_10hf_ddec_sum_bond_order
 _atom_site_hse06_10hf_magmom
 _atom_site_hse06_bader_spin_density
 _atom_site_hse06_ddec_charge
 _atom_site_hse06_ddec_spin_density
 _atom_site_hse06_ddec_sum_bond_order
 _atom_site_hse06_magmom
 _atom_site_pbe_bader_spin_density
 _atom_site_pbe_cm5_charge
 _atom_site_pbe_ddec_charge
 _atom_site_pbe_ddec_spin_density
 _atom_site_pbe_ddec_sum_bond_order
 _atom_site_pbe_magmom
Ag  Ag0  1  0.55973789  0.31450248  0.92810170  1  0  0.582221  0  1.452632  0  0  0.444934  0  1.923822  0  0  0.47225  0  1.869849  0  0  0.492056  0.427992  0  1.960777  0
Ag  Ag1  1  0.55974982  0.18549679  0.57189419  1  0  0.582201  0  1.452636  0  0  0.444901  0  1.923848  0  0  0.472209  0  1.869884  0  0  0.492066  0.427968  0  1.960784  0
Ag  Ag2  1  0.44025369  0.68549155  0.07189415  1  0  0.582212  0  1.452587  0  0  0.444878  0  1.923851  0  0  0.472195  0  1.869878  0  0  0.492047  0.427942  0  1.960794  0
Ag  Ag3  1  0.44025305  0.81449468  0.42810409  1  0  0.582221  0  1.452573  0  0  0.444931  0  1.923792  0  0  0.472247  0  1.869824  0  0  0.492066  0.427987  0  1.960751  0
Ag  Ag4  1  0.49154163  0.24999877  0.74999607  1  0  0.594057  0  1.385082  0  0  0.469054  0  1.821924  0  0  0.497522  0  1.769854  0  0  0.487422  0.451345  0  1.858194  0
Ag  Ag5  1  0.50844995  0.74999926  0.25000323  1  0  0.594083  0  1.384985  0  0  0.469009  0  1.821887  0  0  0.497484  0  1.769814  0  0  0.487385  0.451295  0  1.858161  0
Mo  Mo6  1  0.51443692  0.81191201  0.86170726  1  0  2.264648  0  4.059006  0  0  2.257545  0  4.604373  0  0  2.357034  0  4.561469  0  0  1.496585  2.190038  0  4.63297  0
Mo  Mo7  1  0.51443437  0.68809770  0.63829521  1  0  2.264718  0  4.058763  0  0  2.257628  0  4.604092  0  0  2.357117  0  4.561189  0  0  1.496609  2.190126  0  4.632685  0
Mo  Mo8  1  0.48556876  0.18809657  0.13829651  1  0  2.264463  0  4.059048  0  0  2.257421  0  4.604307  0  0  2.356912  0  4.561408  0  0  1.496516  2.189924  0  4.632898  0
Mo  Mo9  1  0.48557131  0.31190433  0.36170754  1  0  2.2645  0  4.058737  0  0  2.257452  0  4.603991  0  0  2.356942  0  4.561084  0  0  1.4965  2.189952  0  4.632576  0
H  H10  1  0.24401696  0.09377375  0.97189680  1  0  0.107369  0  0.949162  0  0  0.117725  0  1.010869  0  0  0.119667  0  1.009511  0  0  0.125959  0.116196  0  1.012134  0
H  H11  1  0.24403191  0.40623981  0.52810465  1  0  0.107417  0  0.949153  0  0  0.117854  0  1.01078  0  0  0.119796  0  1.009427  0  0  0.125974  0.116319  0  1.012058  0
H  H12  1  0.75597744  0.90623215  0.02810362  1  0  0.107458  0  0.949049  0  0  0.117847  0  1.01072  0  0  0.119787  0  1.009366  0  0  0.125998  0.116315  0  1.01199  0
H  H13  1  0.75597941  0.59375823  0.47189518  1  0  0.107487  0  0.949086  0  0  0.117844  0  1.010811  0  0  0.119786  0  1.009455  0  0  0.125998  0.116312  0  1.012083  0
H  H14  1  0.88573659  0.08232433  0.96618128  1  0  0.102843  0  0.951649  0  0  0.113748  0  1.010857  0  0  0.1161  0  1.00902  0  0  0.12306  0.111916  0  1.012467  0
H  H15  1  0.88574171  0.41769626  0.53382117  1  0  0.102891  0  0.951472  0  0  0.11377  0  1.010744  0  0  0.116157  0  1.008846  0  0  0.123075  0.111937  0  1.012352  0
H  H16  1  0.11425781  0.91768555  0.03382206  1  0  0.10287  0  0.951708  0  0  0.113819  0  1.010842  0  0  0.116156  0  1.009019  0  0  0.123092  0.111986  0  1.012451  0
H  H17  1  0.11426398  0.58230572  0.46617948  1  0  0.102915  0  0.951416  0  0  0.113698  0  1.01079  0  0  0.116082  0  1.008888  0  0  0.123069  0.111867  0  1.012399  0
H  H18  1  0.87814362  0.55275156  0.89306359  1  0  0.119541  0  0.950878  0  0  0.12574  0  1.013689  0  0  0.128756  0  1.011207  0  0  0.119791  0.123291  0  1.015848  0
H  H19  1  0.87816401  0.94725846  0.60693281  1  0  0.11958  0  0.950967  0  0  0.125806  0  1.013739  0  0  0.128819  0  1.011251  0  0  0.119808  0.123367  0  1.01589  0
H  H20  1  0.12184796  0.44725429  0.10693473  1  0  0.119569  0  0.950854  0  0  0.125761  0  1.013679  0  0  0.128779  0  1.011189  0  0  0.119786  0.123301  0  1.015846  0
H  H21  1  0.12184591  0.05273693  0.39306524  1  0  0.119635  0  0.950876  0  0  0.125838  0  1.013677  0  0  0.128855  0  1.011187  0  0  0.119833  0.123373  0  1.015856  0
H  H22  1  0.23281281  0.56455838  0.89880479  1  0  0.102956  0  0.981894  0  0  0.108303  0  1.05031  0  0  0.111138  0  1.047514  0  0  0.116997  0.106024  0  1.052689  0
H  H23  1  0.23282751  0.93544723  0.60119184  1  0  0.102965  0  0.98184  0  0  0.10837  0  1.050181  0  0  0.111218  0  1.047353  0  0  0.117007  0.106094  0  1.052558  0
H  H24  1  0.76718159  0.43544354  0.10119323  1  0  0.10295  0  0.981861  0  0  0.10831  0  1.050232  0  0  0.111145  0  1.047439  0  0  0.117  0.106036  0  1.052607  0
H  H25  1  0.76717958  0.06454551  0.39880496  1  0  0.102946  0  0.98189  0  0  0.108331  0  1.050253  0  0  0.111175  0  1.047441  0  0  0.11701  0.106054  0  1.052632  0
H  H26  1  0.81351766  0.50427302  0.72977659  1  0  0.119781  0  0.940609  0  0  0.125624  0  1.003435  0  0  0.128744  0  1.000395  0  0  0.124243  0.123101  0  1.006046  0
H  H27  1  0.81351201  0.99573014  0.77021883  1  0  0.119811  0  0.940543  0  0  0.125534  0  1.003453  0  0  0.128654  0  1.000414  0  0  0.124236  0.123014  0  1.006054  0
H  H28  1  0.18646969  0.49572240  0.27022252  1  0  0.119763  0  0.940608  0  0  0.125519  0  1.003535  0  0  0.128637  0  1.000498  0  0  0.124245  0.123002  0  1.006129  0
H  H29  1  0.18647111  0.00426132  0.22977893  1  0  0.119723  0  0.940693  0  0  0.125539  0  1.003548  0  0  0.128656  0  1.00051  0  0  0.124268  0.123025  0  1.006134  0
H  H30  1  0.16974355  0.50077825  0.72595421  1  0  0.123512  0  0.933576  0  0  0.131459  0  0.99334  0  0  0.134312  0  0.990971  0  0  0.126218  0.129202  0  0.995429  0
H  H31  1  0.16973930  0.99922186  0.77404364  1  0  0.123552  0  0.933498  0  0  0.131479  0  0.993291  0  0  0.134331  0  0.990921  0  0  0.126207  0.12922  0  0.99538  0
H  H32  1  0.83024522  0.49922241  0.27404582  1  0  0.123447  0  0.933515  0  0  0.131405  0  0.99329  0  0  0.134258  0  0.99092  0  0  0.126206  0.12915  0  0.995376  0
H  H33  1  0.83025228  0.00076824  0.22595139  1  0  0.123542  0  0.933495  0  0  0.131509  0  0.993253  0  0  0.134361  0  0.990886  0  0  0.126244  0.129253  0  0.995337  0
C  C34  1  0.16064840  0.19649572  0.95518053  1  0  0.087503  0  3.636223  0  0  0.058971  0  3.876852  0  0  0.06126  0  3.897055  0  0  0.060994  0.057119  0  3.863891  0
C  C35  1  0.16066262  0.30351347  0.54481908  1  0  0.08753  0  3.635797  0  0  0.058977  0  3.876358  0  0  0.061257  0  3.896575  0  0  0.060999  0.057124  0  3.863398  0
C  C36  1  0.83934318  0.80350491  0.04481844  1  0  0.087457  0  3.636154  0  0  0.058942  0  3.876741  0  0  0.061224  0  3.896949  0  0  0.060988  0.057091  0  3.86378  0
C  C37  1  0.83934729  0.69648066  0.45518098  1  0  0.08741  0  3.635977  0  0  0.058885  0  3.876547  0  0  0.061173  0  3.896751  0  0  0.060883  0.057031  0  3.86359  0
C  C38  1  0.96479249  0.19058967  0.95228586  1  0  0.083575  0  3.638912  0  0  0.054446  0  3.880646  0  0  0.056273  0  3.900392  0  0  0.058533  0.052813  0  3.868226  0
C  C39  1  0.96479968  0.30940909  0.54771752  1  0  0.083418  0  3.638967  0  0  0.054259  0  3.880755  0  0  0.056084  0  3.900447  0  0  0.05849  0.052629  0  3.868327  0
C  C40  1  0.03520614  0.80941363  0.04771541  1  0  0.083494  0  3.638976  0  0  0.054314  0  3.880721  0  0  0.056173  0  3.900436  0  0  0.058506  0.052681  0  3.868302  0
C  C41  1  0.03521023  0.69058901  0.45228494  1  0  0.083429  0  3.63897  0  0  0.054416  0  3.880733  0  0  0.056229  0  3.900441  0  0  0.058573  0.052784  0  3.868309  0
C  C42  1  0.96004853  0.45105987  0.91133472  1  0  0.067235  0  3.642729  0  0  0.033872  0  3.895022  0  0  0.035991  0  3.915186  0  0  0.049637  0.032334  0  3.881964  0
C  C43  1  0.96006797  0.04894147  0.58866781  1  0  0.067432  0  3.642338  0  0  0.033949  0  3.894728  0  0  0.036076  0  3.914886  0  0  0.049738  0.032395  0  3.881678  0
C  C44  1  0.03994587  0.54894471  0.08866507  1  0  0.06727  0  3.642705  0  0  0.033865  0  3.894985  0  0  0.03598  0  3.915158  0  0  0.049674  0.032339  0  3.881932  0
C  C45  1  0.03994194  0.95105790  0.41133317  1  0  0.067231  0  3.642216  0  0  0.03379  0  3.894628  0  0  0.035907  0  3.914798  0  0  0.049604  0.03226  0  3.881594  0
C  C46  1  0.15592136  0.45733300  0.91469372  1  0  0.075998  0  3.666472  0  0  0.041503  0  3.922314  0  0  0.044667  0  3.940239  0  0  0.051396  0.039199  0  3.910753  0
C  C47  1  0.15593374  0.04267220  0.58530349  1  0  0.075769  0  3.666778  0  0  0.041292  0  3.922614  0  0  0.044449  0  3.940538  0  0  0.051314  0.038994  0  3.911048  0
C  C48  1  0.84407727  0.54266505  0.08530611  1  0  0.07595  0  3.66652  0  0  0.041529  0  3.92227  0  0  0.044695  0  3.940184  0  0  0.051389  0.039224  0  3.910704  0
C  C49  1  0.84407618  0.95732059  0.41469542  1  0  0.075902  0  3.666856  0  0  0.041504  0  3.922558  0  0  0.044668  0  3.940477  0  0  0.051421  0.039204  0  3.910993  0
C  C50  1  0.89358101  0.39001463  0.73790701  1  0  0.081689  0  3.624552  0  0  0.054841  0  3.86913  0  0  0.056865  0  3.888266  0  0  0.059693  0.053241  0  3.856954  0
C  C51  1  0.89357725  0.10999799  0.76208801  1  0  0.081459  0  3.624969  0  0  0.054811  0  3.869393  0  0  0.056832  0  3.888534  0  0  0.059609  0.053211  0  3.857209  0
C  C52  1  0.10641762  0.60999122  0.26209130  1  0  0.081711  0  3.624582  0  0  0.054907  0  3.869227  0  0  0.056933  0  3.888366  0  0  0.059783  0.053308  0  3.857046  0
C  C53  1  0.10641574  0.89000783  0.23790872  1  0  0.081701  0  3.624403  0  0  0.054874  0  3.869012  0  0  0.056903  0  3.888146  0  0  0.059715  0.053275  0  3.856834  0
C  C54  1  0.08998684  0.38877236  0.73654850  1  0  0.076346  0  3.622171  0  0  0.048302  0  3.866423  0  0  0.05061  0  3.88596  0  0  0.056151  0.046536  0  3.85382  0
C  C55  1  0.08998590  0.11122860  0.76344898  1  0  0.076361  0  3.622175  0  0  0.048334  0  3.866308  0  0  0.050645  0  3.885843  0  0  0.056212  0.04657  0  3.853704  0
C  C56  1  0.90999769  0.61122701  0.26345248  1  0  0.076427  0  3.621776  0  0  0.048405  0  3.865988  0  0  0.050717  0  3.885519  0  0  0.056129  0.046643  0  3.853381  0
C  C57  1  0.91000145  0.88876674  0.23654696  1  0  0.076317  0  3.622187  0  0  0.048262  0  3.866428  0  0  0.050571  0  3.885966  0  0  0.056091  0.046499  0  3.853827  0
N  N58  1  0.25576931  0.33094849  0.93689831  1  0  -0.251248  0  3.331498  0  0  -0.166335  0  3.608028  0  0  -0.181212  0  3.623153  0  0  -0.325164  -0.156674  0  3.598425  0
N  N59  1  0.25578401  0.16904419  0.56310261  1  0  -0.251145  0  3.331576  0  0  -0.166279  0  3.608175  0  0  -0.181147  0  3.623292  0  0  -0.325185  -0.15662  0  3.598572  0
N  N60  1  0.74422650  0.66904561  0.06310070  1  0  -0.251227  0  3.331627  0  0  -0.166368  0  3.608169  0  0  -0.18124  0  3.623289  0  0  -0.32516  -0.156703  0  3.598563  0
N  N61  1  0.74422591  0.83095255  0.43689765  1  0  -0.251222  0  3.331674  0  0  -0.166343  0  3.608213  0  0  -0.181217  0  3.623334  0  0  -0.325154  -0.156684  0  3.59861  0
N  N62  1  0.86456100  0.31815844  0.93079337  1  0  -0.246849  0  3.328707  0  0  -0.162867  0  3.603307  0  0  -0.177823  0  3.621392  0  0  -0.326547  -0.153052  0  3.591456  0
N  N63  1  0.86457151  0.18184499  0.56920624  1  0  -0.2469  0  3.328707  0  0  -0.162793  0  3.603187  0  0  -0.177762  0  3.621287  0  0  -0.326564  -0.152977  0  3.591342  0
N  N64  1  0.13543481  0.68184092  0.06920708  1  0  -0.246841  0  3.328746  0  0  -0.162822  0  3.60332  0  0  -0.177783  0  3.621407  0  0  -0.326575  -0.153008  0  3.591466  0
N  N65  1  0.13543700  0.81814652  0.43079362  1  0  -0.246771  0  3.328476  0  0  -0.162805  0  3.603099  0  0  -0.177765  0  3.621191  0  0  -0.326562  -0.152989  0  3.591249  0
N  N66  1  0.79626180  0.25000085  0.74999767  1  0  -0.242592  0  3.323139  0  0  -0.15973  0  3.593843  0  0  -0.174964  0  3.610851  0  0  -0.324482  -0.149867  0  3.583094  0
N  N67  1  0.20372273  0.74999587  0.25000154  1  0  -0.242676  0  3.323021  0  0  -0.159743  0  3.593793  0  0  -0.17498  0  3.610801  0  0  -0.324612  -0.14988  0  3.583049  0
N  N68  1  0.18775915  0.25000332  0.74999812  1  0  -0.251221  0  3.326752  0  0  -0.166508  0  3.601522  0  0  -0.182596  0  3.62014  0  0  -0.326826  -0.155956  0  3.58941  0
N  N69  1  0.81223666  0.75000511  0.24999828  1  0  -0.251306  0  3.326723  0  0  -0.166532  0  3.601472  0  0  -0.182621  0  3.62009  0  0  -0.326777  -0.155979  0  3.589355  0
O  O70  1  0.56126571  0.17133829  0.05113167  1  0  -0.727948  0  1.505623  0  0  -0.739225  0  1.798096  0  0  -0.763527  0  1.783985  0  0  -0.530495  -0.723258  0  1.807767  0
O  O71  1  0.56127067  0.32866561  0.44887360  1  0  -0.72793  0  1.505249  0  0  -0.739199  0  1.797747  0  0  -0.763502  0  1.783636  0  0  -0.5305  -0.723235  0  1.807425  0
O  O72  1  0.43874420  0.82868728  0.94887180  1  0  -0.727962  0  1.505611  0  0  -0.739242  0  1.798152  0  0  -0.763543  0  1.784037  0  0  -0.53054  -0.723281  0  1.807832  0
O  O73  1  0.43874629  0.67133774  0.55112978  1  0  -0.728028  0  1.505561  0  0  -0.739303  0  1.798094  0  0  -0.763609  0  1.783982  0  0  -0.530504  -0.723337  0  1.807767  0
O  O74  1  0.48123586  0.02324434  0.84658801  1  0  -0.768943  0  1.612538  0  0  -0.780502  0  1.939342  0  0  -0.807293  0  1.922705  0  0  -0.543858  -0.763032  0  1.950812  0
O  O75  1  0.48124065  0.47676369  0.65340755  1  0  -0.768937  0  1.612601  0  0  -0.78051  0  1.939443  0  0  -0.80729  0  1.922784  0  0  -0.543852  -0.76304  0  1.950908  0
O  O76  1  0.51876277  0.97675494  0.15340876  1  0  -0.7689  0  1.612625  0  0  -0.780471  0  1.939416  0  0  -0.80726  0  1.922774  0  0  -0.54384  -0.763002  0  1.950881  0
O  O77  1  0.51877773  0.52323825  0.34659152  1  0  -0.768949  0  1.612715  0  0  -0.780476  0  1.939435  0  0  -0.807287  0  1.922847  0  0  -0.543821  -0.763005  0  1.950899  0
F  F78  1  0.61327726  0.74999921  0.75000103  1  0  -0.649426  0  0.881862  0  0  -0.624158  0  1.077435  0  0  -0.644403  0  1.05808  0  0  -0.376142  -0.609312  0  1.090405  0
F  F79  1  0.38672137  0.25000152  0.25000215  1  0  -0.649385  0  0.881888  0  0  -0.624127  0  1.077428  0  0  -0.644369  0  1.058074  0  0  -0.376117  -0.609282  0  1.090393  0
F  F80  1  0.78196937  0.84084663  0.88166627  1  0  -0.554121  0  0.799509  0  0  -0.522474  0  0.960247  0  0  -0.543776  0  0.946298  0  0  -0.351326  -0.507075  0  0.969555  0
F  F81  1  0.78197522  0.65915131  0.61833666  1  0  -0.554159  0  0.799393  0  0  -0.522551  0  0.960174  0  0  -0.543872  0  0.946247  0  0  -0.351398  -0.507149  0  0.969472  0
F  F82  1  0.21803068  0.15915531  0.11833280  1  0  -0.554086  0  0.799407  0  0  -0.522517  0  0.960198  0  0  -0.543829  0  0.946259  0  0  -0.351355  -0.507114  0  0.969489  0
F  F83  1  0.21803611  0.34085208  0.38166830  1  0  -0.554127  0  0.799518  0  0  -0.522512  0  0.960269  0  0  -0.543823  0  0.946332  0  0  -0.351333  -0.507111  0  0.969563  0
F  F84  1  0.58469286  0.55485267  0.84943919  1  0  -0.641541  0  0.891887  0  0  -0.605783  0  1.111953  0  0  -0.62702  0  1.088816  0  0  -0.37838  -0.590358  0  1.127589  0
F  F85  1  0.58471720  0.94515349  0.65056453  1  0  -0.641527  0  0.891775  0  0  -0.605797  0  1.111882  0  0  -0.627036  0  1.088746  0  0  -0.378354  -0.590373  0  1.127516  0
F  F86  1  0.41530296  0.44515730  0.15056784  1  0  -0.641523  0  0.891854  0  0  -0.605749  0  1.111897  0  0  -0.626987  0  1.088761  0  0  -0.378368  -0.590322  0  1.127528  0
F  F87  1  0.41529271  0.05484721  0.34943707  1  0  -0.641496  0  0.891815  0  0  -0.605759  0  1.111893  0  0  -0.626999  0  1.088757  0  0  -0.378353  -0.590335  0  1.127526  0
F  F88  1  0.28020594  0.71927489  0.81965541  1  0  -0.529887  0  0.845547  0  0  -0.499117  0  1.011008  0  0  -0.520763  0  0.996606  0  0  -0.335484  -0.483613  0  1.020649  0
F  F89  1  0.28021641  0.78072848  0.68034732  1  0  -0.529873  0  0.845585  0  0  -0.499083  0  1.011024  0  0  -0.520728  0  0.996616  0  0  -0.335491  -0.483607  0  1.020691  0
F  F90  1  0.71979692  0.28072199  0.18035117  1  0  -0.529849  0  0.845614  0  0  -0.499052  0  1.011005  0  0  -0.520692  0  0.996598  0  0  -0.335478  -0.483595  0  1.020689  0
F  F91  1  0.71979350  0.21926307  0.31965412  1  0  -0.529865  0  0.845595  0  0  -0.499101  0  1.011015  0  0  -0.520748  0  0.996613  0  0  -0.335504  -0.483608  0  1.020665  0
