# generated using pymatgen
data_ZnH10C26N2(O3F2)2
_symmetry_space_group_name_H-M   'P 1'
_cell_length_a   13.97900785
_cell_length_b   15.34382729
_cell_length_c   23.71810083
_cell_angle_alpha   90.17639533
_cell_angle_beta   89.94324226
_cell_angle_gamma   90.20513973
_symmetry_Int_Tables_number   1
_chemical_formula_structural   ZnH10C26N2(O3F2)2
_chemical_formula_sum   'Zn2 H20 C52 N4 O12 F8'
_cell_volume   5087.27144195
_cell_formula_units_Z   2
loop_
 _symmetry_equiv_pos_site_id
 _symmetry_equiv_pos_as_xyz
  1  'x, y, z'
loop_
 _atom_site_type_symbol
 _atom_site_label
 _atom_site_symmetry_multiplicity
 _atom_site_fract_x
 _atom_site_fract_y
 _atom_site_fract_z
 _atom_site_occupancy
 _atom_site_pbe_bader_charge
 _atom_site_pbe_bader_spin_density
 _atom_site_pbe_cm5_charge
 _atom_site_pbe_ddec_charge
 _atom_site_pbe_ddec_spin_density
 _atom_site_pbe_ddec_sum_bond_order
 _atom_site_pbe_magmom
Zn  Zn0  1  0.40121511  0.49977205  0.50005205  1  1.299906  0  0.668364  0.817298  0  2.417146  0
Zn  Zn1  1  0.59849742  0.50034613  0.50000178  1  1.279537  0  0.66889  0.818451  0  2.421393  0
H  H2  1  0.57418758  0.70870916  0.05364393  1  0.122909  0  0.120382  0.126184  0  0.97449  0
H  H3  1  0.42586962  0.29093561  0.94633939  1  0.120762  0  0.120358  0.126054  0  0.974396  0
H  H4  1  0.75165762  0.53388003  0.58508897  1  0.17534  0  0.138008  0.142338  0  0.97957  0
H  H5  1  0.24726165  0.37015513  0.47389387  1  0.179245  0  0.139003  0.143973  0  0.974644  0
H  H6  1  0.75156947  0.46661283  0.41487317  1  0.167535  0  0.138181  0.142384  0  0.979724  0
H  H7  1  0.24831128  0.62961491  0.52608405  1  0.184079  0  0.13874  0.143547  0  0.975289  0
H  H8  1  0.57408538  0.70865705  0.94696768  1  0.128406  0  0.1201  0.126106  0  0.974395  0
H  H9  1  0.42603335  0.29098056  0.05298145  1  0.124536  0  0.120341  0.125847  0  0.974275  0
H  H10  1  0.65448107  0.49737091  0.78652622  1  0.082399  0  0.110915  0.118208  0  0.978362  0
H  H11  1  0.65473959  0.49963797  0.21340336  1  0.08292  0  0.110811  0.118151  0  0.977718  0
H  H12  1  0.65800382  0.49891740  0.68082604  1  0.1044  0  0.104363  0.103505  0  1.004102  0
H  H13  1  0.65799951  0.49788711  0.31908227  1  0.106737  0  0.104203  0.103387  0  1.004545  0
H  H14  1  0.35127884  0.50100562  0.67703084  1  0.110099  0  0.107226  0.110748  0  0.995385  0
H  H15  1  0.35126346  0.50148509  0.32306350  1  0.111326  0  0.106874  0.110464  0  0.995349  0
H  H16  1  0.34697444  0.50232351  0.78299308  1  0.106516  0  0.111084  0.118481  0  0.977791  0
H  H17  1  0.34721266  0.50028356  0.21712756  1  0.056344  0  0.111116  0.118563  0  0.977758  0
H  H18  1  0.36138008  0.78063441  0.54538839  1  0.092999  0  0.113473  0.142444  0  0.988816  0
H  H19  1  0.63164322  0.22565305  0.54289644  1  0.140686  0  0.116237  0.14892  0  0.980865  0
H  H20  1  0.36152070  0.21853036  0.45475823  1  0.101329  0  0.113507  0.142497  0  0.989066  0
H  H21  1  0.63171045  0.77536058  0.45707032  1  0.096457  0  0.116261  0.14866  0  0.980909  0
C  C22  1  0.49407596  0.66990981  0.50059051  1  1.589003  0  0.218023  0.597423  0  4.157542  0
C  C23  1  0.49404335  0.33018711  0.49953310  1  1.58737  0  0.21842  0.598131  0  4.15567  0
C  C24  1  0.58843525  0.49854061  0.76218829  1  -0.081378  0  -0.08242  -0.150862  0  3.977593  0
C  C25  1  0.58863421  0.49926480  0.23778349  1  -0.085037  0  -0.082483  -0.150468  0  3.974157  0
C  C26  1  0.59028964  0.49939155  0.70354750  1  -0.040163  0  -0.07874  -0.073353  0  3.973805  0
C  C27  1  0.59030907  0.49861662  0.29643010  1  -0.022155  0  -0.078219  -0.073234  0  3.973213  0
C  C28  1  0.50466586  0.50023076  0.67291173  1  0.084356  0  -0.014038  -0.033085  0  3.960025  0
C  C29  1  0.50463315  0.49947534  0.32713327  1  0.063754  0  -0.014431  -0.033467  0  3.960643  0
C  C30  1  0.41703213  0.50071263  0.70160279  1  -0.110314  0  -0.077115  -0.071132  0  3.963951  0
C  C31  1  0.41707540  0.50057199  0.29847151  1  0.046681  0  -0.076491  -0.07017  0  3.963277  0
C  C32  1  0.41472321  0.50122633  0.76025967  1  0.109364  0  -0.081624  -0.149772  0  3.973274  0
C  C33  1  0.41493461  0.50034149  0.23981836  1  0.003776  0  -0.081271  -0.149588  0  3.971267  0
C  C34  1  0.50059559  0.49987907  0.79011113  1  0.293167  0  0.092586  0.197215  0  4.012863  0
C  C35  1  0.50085461  0.49987956  0.20989968  1  0.296246  0  0.092059  0.201577  0  4.011749  0
C  C36  1  0.42522843  0.90447849  0.52519723  1  0.444038  0  0.103641  0.270296  0  4.053933  0
C  C37  1  0.57328314  0.09873367  0.52347877  1  0.465069  0  0.104846  0.270898  0  4.05384  0
C  C38  1  0.42529999  0.09513036  0.47472165  1  0.435759  0  0.103296  0.270367  0  4.055441  0
C  C39  1  0.57337258  0.90190740  0.47636078  1  0.34441  0  0.104656  0.271402  0  4.05393  0
C  C40  1  0.42116705  0.81428448  0.52560956  1  0.01435  0  -0.099931  -0.240615  0  3.988571  0
C  C41  1  0.57341412  0.18903260  0.52359014  1  0.055977  0  -0.098127  -0.237453  0  3.976799  0
C  C42  1  0.42128908  0.18529289  0.47443365  1  0.020509  0  -0.100364  -0.241213  0  3.98926  0
C  C43  1  0.57343609  0.81160778  0.47635981  1  0.112066  0  -0.097805  -0.236534  0  3.975904  0
C  C44  1  0.49614804  0.76759920  0.50088784  1  0.022359  0  -0.009183  0.028458  0  3.986349  0
C  C45  1  0.49616198  0.23251948  0.49913456  1  0.017091  0  -0.008777  0.029617  0  3.985874  0
C  C46  1  0.50012048  0.95201481  0.50043948  1  0.10831  0  -0.022931  -0.124586  0  4.037044  0
C  C47  1  0.50010791  0.04808033  0.49944467  1  0.121675  0  -0.023043  -0.124074  0  4.037788  0
C  C48  1  0.50613819  0.50071793  0.60979020  1  1.504902  0  0.217557  0.596818  0  4.164925  0
C  C49  1  0.50602342  0.49922369  0.39025202  1  1.505226  0  0.217768  0.596655  0  4.165875  0
C  C50  1  0.89346512  0.51931605  0.54825078  1  0.47598  0  0.120151  0.231953  0  4.046669  0
C  C51  1  0.10580655  0.42648245  0.48459640  1  0.432045  0  0.119762  0.231257  0  4.05145  0
C  C52  1  0.89342954  0.48056741  0.45170614  1  0.474521  0  0.120399  0.231937  0  4.045856  0
C  C53  1  0.10645452  0.57320789  0.51532279  1  0.454121  0  0.119733  0.231238  0  4.050515  0
C  C54  1  0.79415150  0.51932211  0.54765133  1  0.596247  0  0.052515  -0.037465  0  3.899305  0
C  C55  1  0.20514915  0.42734731  0.48501067  1  0.606372  0  0.052026  -0.038565  0  3.902007  0
C  C56  1  0.79410513  0.48103414  0.45230619  1  0.602567  0  0.051789  -0.038554  0  3.900207  0
C  C57  1  0.20578587  0.57236583  0.51498802  1  0.585032  0  0.051665  -0.03821  0  3.90027  0
C  C58  1  0.94711784  0.49990717  0.49997355  1  0.155389  0  -0.003455  -0.092326  0  4.025617  0
C  C59  1  0.05245894  0.49987549  0.49996408  1  0.076467  0  -0.004089  -0.096468  0  4.030966  0
C  C60  1  0.47193629  0.42203852  0.12172392  1  1.335429  0  0.244447  0.438881  0  4.099173  0
C  C61  1  0.52673472  0.57809215  0.87829229  1  1.343678  0  0.244441  0.433859  0  4.102739  0
C  C62  1  0.52695831  0.57819934  0.12194642  1  1.330102  0  0.243953  0.437398  0  4.100553  0
C  C63  1  0.47156899  0.42193608  0.87798636  1  1.319854  0  0.244649  0.435013  0  4.099375  0
C  C64  1  0.52657347  0.57661960  0.05940884  1  0.074284  0  -0.003149  -0.058059  0  3.983874  0
C  C65  1  0.47197164  0.42347481  0.94052854  1  -0.053219  0  -0.002853  -0.060097  0  3.986568  0
C  C66  1  0.49923278  0.50009686  0.03002060  1  -0.118249  0  0.004434  0.031236  0  4.000262  0
C  C67  1  0.49915788  0.50004427  0.96993922  1  0.044114  0  0.004239  0.031353  0  4.001452  0
C  C68  1  0.47213249  0.42355483  0.05918974  1  -0.034246  0  -0.003422  -0.059388  0  3.983869  0
C  C69  1  0.52643262  0.57654953  0.94080034  1  -0.014946  0  -0.003443  -0.05881  0  3.987111  0
C  C70  1  0.55332271  0.65083454  0.02981402  1  -0.010523  0  -0.060753  -0.068127  0  3.930043  0
C  C71  1  0.44602030  0.34904164  0.97014948  1  0.12055  0  -0.060719  -0.067329  0  3.928911  0
C  C72  1  0.55325358  0.65079080  0.97061004  1  -0.081009  0  -0.060368  -0.067611  0  3.929668  0
C  C73  1  0.44609301  0.34908997  0.02935979  1  -0.054771  0  -0.060554  -0.067013  0  3.927754  0
N  N74  1  0.49937751  0.50015586  0.14901135  1  -1.183935  0  -0.230157  -0.227719  0  3.581986  0
N  N75  1  0.49909549  0.50004417  0.85098981  1  -1.1858  0  -0.230088  -0.213242  0  3.565147  0
N  N76  1  0.74680643  0.50029697  0.49996870  1  -1.242003  0  -0.300814  -0.123935  0  3.541424  0
N  N77  1  0.25286679  0.49981446  0.50002105  1  -1.232528  0  -0.300675  -0.124489  0  3.542227  0
O  O78  1  0.41474741  0.63298918  0.51252618  1  -1.170204  0  -0.317037  -0.5499  0  2.313983  0
O  O79  1  0.57170040  0.36928903  0.51179240  1  -1.164795  0  -0.316342  -0.544089  0  2.313254  0
O  O80  1  0.41474638  0.36664047  0.48768595  1  -1.172165  0  -0.317134  -0.549589  0  2.311526  0
O  O81  1  0.57172362  0.63124501  0.48832295  1  -1.164911  0  -0.3157  -0.542651  0  2.312921  0
O  O82  1  0.42769287  0.48416225  0.58460439  1  -1.163748  0  -0.317948  -0.548565  0  2.322353  0
O  O83  1  0.58558120  0.48264949  0.41429049  1  -1.169006  0  -0.319423  -0.554872  0  2.325641  0
O  O84  1  0.42761856  0.51558742  0.41549147  1  -1.163921  0  -0.318269  -0.548805  0  2.323088  0
O  O85  1  0.58575455  0.51774152  0.58570517  1  -1.167468  0  -0.319494  -0.554771  0  2.325736  0
O  O86  1  0.44976197  0.35713580  0.14902562  1  -1.096217  0  -0.274965  -0.430978  0  2.061691  0
O  O87  1  0.54934946  0.64287118  0.85100891  1  -1.097092  0  -0.274828  -0.430847  0  2.065949  0
O  O88  1  0.54962686  0.64297873  0.14944110  1  -1.097143  0  -0.27437  -0.430033  0  2.063546  0
O  O89  1  0.44920083  0.35710495  0.85045023  1  -1.094311  0  -0.275059  -0.430865  0  2.063236  0
F  F90  1  0.35371000  0.94975634  0.55079233  1  -0.629035  0  -0.106129  -0.14583  0  1.325778  0
F  F91  1  0.64688440  0.05658789  0.54896626  1  -0.626578  0  -0.105942  -0.145327  0  1.323952  0
F  F92  1  0.35387591  0.04943409  0.44908291  1  -0.629799  0  -0.105578  -0.145542  0  1.325638  0
F  F93  1  0.64696047  0.94456377  0.45078497  1  -0.631276  0  -0.105579  -0.145135  0  1.323579  0
F  F94  1  0.93952284  0.53670419  0.59705050  1  -0.614417  0  -0.083803  -0.117961  0  1.339639  0
F  F95  1  0.05953978  0.35241128  0.47009980  1  -0.616325  0  -0.08099  -0.114011  0  1.3423  0
F  F96  1  0.93944361  0.46281542  0.40293903  1  -0.613752  0  -0.08382  -0.117659  0  1.339836  0
F  F97  1  0.06070452  0.64726711  0.52984503  1  -0.614236  0  -0.081553  -0.114747  0  1.341405  0
