# generated using pymatgen
data_HgH8C10(IN2)2
_symmetry_space_group_name_H-M   'P 1'
_cell_length_a   5.45172773
_cell_length_b   8.31023963
_cell_length_c   15.96996999
_cell_angle_alpha   101.63123871
_cell_angle_beta   91.12398007
_cell_angle_gamma   91.16727423
_symmetry_Int_Tables_number   1
_chemical_formula_structural   HgH8C10(IN2)2
_chemical_formula_sum   'Hg2 H16 C20 I4 N8'
_cell_volume   708.30992755
_cell_formula_units_Z   2
loop_
 _symmetry_equiv_pos_site_id
 _symmetry_equiv_pos_as_xyz
  1  'x, y, z'
loop_
 _atom_site_type_symbol
 _atom_site_label
 _atom_site_symmetry_multiplicity
 _atom_site_fract_x
 _atom_site_fract_y
 _atom_site_fract_z
 _atom_site_occupancy
 _atom_site_hle17_bader_spin_density
 _atom_site_hle17_ddec_charge
 _atom_site_hle17_ddec_spin_density
 _atom_site_hle17_ddec_sum_bond_order
 _atom_site_hle17_magmom
 _atom_site_hse06_10hf_bader_spin_density
 _atom_site_hse06_10hf_ddec_charge
 _atom_site_hse06_10hf_ddec_spin_density
 _atom_site_hse06_10hf_ddec_sum_bond_order
 _atom_site_hse06_10hf_magmom
 _atom_site_hse06_bader_spin_density
 _atom_site_hse06_ddec_charge
 _atom_site_hse06_ddec_spin_density
 _atom_site_hse06_ddec_sum_bond_order
 _atom_site_hse06_magmom
 _atom_site_pbe_bader_spin_density
 _atom_site_pbe_cm5_charge
 _atom_site_pbe_ddec_charge
 _atom_site_pbe_ddec_spin_density
 _atom_site_pbe_ddec_sum_bond_order
 _atom_site_pbe_magmom
Hg  Hg0  1  0.92256823  0.24871409  0.75311796  1  0  0.539525  0  2.161685  0  0  0.404212  0  2.648383  0  0  0.448243  0  2.625493  0  0  0.39702  0.374796  0  2.663288  0
Hg  Hg1  1  0.07743047  0.75128580  0.24688218  1  0  0.539534  0  2.161689  0  0  0.404229  0  2.648374  0  0  0.448259  0  2.625483  0  0  0.397021  0.374811  0  2.663278  0
H  H2  1  0.27377547  0.39482313  0.28963507  1  0  0.068042  0  0.96629  0  0  0.070759  0  1.043103  0  0  0.073814  0  1.040068  0  0  0.095738  0.06852  0  1.045278  0
H  H3  1  0.72622323  0.60517676  0.71036632  1  0  0.068034  0  0.966313  0  0  0.070747  0  1.043129  0  0  0.073803  0  1.040094  0  0  0.09573  0.068509  0  1.045305  0
H  H4  1  0.71219679  0.37242848  0.95158081  1  0  0.068127  0  0.969682  0  0  0.071891  0  1.045693  0  0  0.074855  0  1.042849  0  0  0.095644  0.069772  0  1.047693  0
H  H5  1  0.28780007  0.62757141  0.04841995  1  0  0.068104  0  0.969689  0  0  0.071867  0  1.04571  0  0  0.074831  0  1.042862  0  0  0.095637  0.069748  0  1.04771  0
H  H6  1  0.51965040  0.87249626  0.38762587  1  0  0.064093  0  0.974042  0  0  0.06825  0  1.047011  0  0  0.071163  0  1.044485  0  0  0.094206  0.06614  0  1.048819  0
H  H7  1  0.48034835  0.12750486  0.61237378  1  0  0.064095  0  0.974057  0  0  0.06826  0  1.047006  0  0  0.07117  0  1.044486  0  0  0.094215  0.066146  0  1.048817  0
H  H8  1  0.85808467  0.77739626  0.47322597  1  0  0.113059  0  0.991756  0  0  0.114494  0  1.067093  0  0  0.119135  0  1.063694  0  0  0.093561  0.111147  0  1.069719  0
H  H9  1  0.14191398  0.22260239  0.52677342  1  0  0.113053  0  0.991737  0  0  0.114482  0  1.067102  0  0  0.119122  0  1.063703  0  0  0.093552  0.111134  0  1.069728  0
H  H10  1  0.59230547  0.27975002  0.37685672  1  0  0.110986  0  0.967689  0  0  0.116031  0  1.03865  0  0  0.12019  0  1.036013  0  0  0.097028  0.113038  0  1.040686  0
H  H11  1  0.40769323  0.72024987  0.62314342  1  0  0.110997  0  0.967679  0  0  0.116035  0  1.038661  0  0  0.120193  0  1.036026  0  0  0.097025  0.113042  0  1.040699  0
H  H12  1  0.16146261  0.89119069  0.85132063  1  0  0.113131  0  0.989149  0  0  0.115176  0  1.063564  0  0  0.119823  0  1.060112  0  0  0.094654  0.11183  0  1.066228  0
H  H13  1  0.83853421  0.10880797  0.14867874  1  0  0.11312  0  0.989159  0  0  0.115164  0  1.063583  0  0  0.11981  0  1.060133  0  0  0.094655  0.111818  0  1.066248  0
H  H14  1  0.61375986  0.69637590  0.94944365  1  0  0.114885  0  0.959942  0  0  0.120414  0  1.029004  0  0  0.124642  0  1.026413  0  0  0.10016  0.117326  0  1.031077  0
H  H15  1  0.38624058  0.30362153  0.05055687  1  0  0.114903  0  0.95989  0  0  0.120425  0  1.02897  0  0  0.124653  0  1.02638  0  0  0.100166  0.117337  0  1.031044  0
H  H16  1  0.50187562  0.97165621  0.76270350  1  0  0.063924  0  0.976207  0  0  0.069354  0  1.048127  0  0  0.072109  0  1.045783  0  0  0.093842  0.067333  0  1.04983  0
H  H17  1  0.49812501  0.02834613  0.23729691  1  0  0.063965  0  0.976174  0  0  0.069383  0  1.048097  0  0  0.072135  0  1.045762  0  0  0.093846  0.067363  0  1.049802  0
C  C18  1  0.40527398  0.47506938  0.33189203  1  0  0.127073  0  3.720776  0  0  0.097107  0  3.975042  0  0  0.103896  0  3.993708  0  0  0.037457  0.092805  0  3.962321  0
C  C19  1  0.59472471  0.52493051  0.66810874  1  0  0.127019  0  3.720773  0  0  0.097067  0  3.975038  0  0  0.103856  0  3.993704  0  0  0.037427  0.092766  0  3.962317  0
C  C20  1  0.58646397  0.26678073  0.93224296  1  0  0.127758  0  3.720933  0  0  0.098099  0  3.973869  0  0  0.10493  0  3.992551  0  0  0.036258  0.093697  0  3.961161  0
C  C21  1  0.41353651  0.73321793  0.06775769  1  0  0.127774  0  3.72075  0  0  0.098108  0  3.9737  0  0  0.104938  0  3.992387  0  0  0.036257  0.093706  0  3.960991  0
C  C22  1  0.54423528  0.74188549  0.38626113  1  0  0.117787  0  3.740469  0  0  0.092661  0  3.987758  0  0  0.098144  0  4.007423  0  0  0.035034  0.089163  0  3.974442  0
C  C23  1  0.45576347  0.25811563  0.61373851  1  0  0.117756  0  3.740452  0  0  0.092643  0  3.98775  0  0  0.098126  0  4.007414  0  0  0.035009  0.089148  0  3.974436  0
C  C24  1  0.73066201  0.68957132  0.43409146  1  0  -0.173722  0  3.701759  0  0  -0.189555  0  3.944302  0  0  -0.197691  0  3.966411  0  0  -0.083523  -0.184372  0  3.929688  0
C  C25  1  0.26933669  0.31042857  0.56590868  1  0  -0.173685  0  3.701786  0  0  -0.189542  0  3.944332  0  0  -0.197676  0  3.96644  0  0  -0.083526  -0.184358  0  3.929718  0
C  C26  1  0.58174053  0.41142132  0.37951661  1  0  -0.15697  0  3.675557  0  0  -0.176886  0  3.922858  0  0  -0.184889  0  3.944658  0  0  -0.077967  -0.171716  0  3.908266  0
C  C27  1  0.41825817  0.58857856  0.62048354  1  0  -0.15696  0  3.675596  0  0  -0.176883  0  3.922871  0  0  -0.184886  0  3.944673  0  0  -0.077977  -0.171712  0  3.908281  0
C  C28  1  0.74834397  0.52032760  0.43121360  1  0  0.194743  0  3.778102  0  0  0.197084  0  4.026157  0  0  0.200823  0  4.049366  0  0  0.099333  0.194828  0  4.010387  0
C  C29  1  0.25165473  0.47967228  0.56878654  1  0  0.194672  0  3.778251  0  0  0.197048  0  4.026279  0  0  0.200786  0  4.049487  0  0  0.099347  0.194793  0  4.01051  0
C  C30  1  0.25151706  0.09251052  0.95775539  1  0  0.191528  0  3.787125  0  0  0.193718  0  4.035982  0  0  0.197485  0  4.059013  0  0  0.098222  0.191444  0  4.020329  0
C  C31  1  0.74847976  0.90748814  0.04224461  1  0  0.19145  0  3.787194  0  0  0.193643  0  4.036055  0  0  0.19741  0  4.059087  0  0  0.098199  0.191369  0  4.0204  0
C  C32  1  0.28079025  0.99775094  0.87550405  1  0  -0.17117  0  3.702844  0  0  -0.186547  0  3.944505  0  0  -0.194504  0  3.966448  0  0  -0.082486  -0.181502  0  3.930017  0
C  C33  1  0.71921028  0.00224894  0.12449610  1  0  -0.171095  0  3.702827  0  0  -0.186486  0  3.944482  0  0  -0.194441  0  3.966425  0  0  -0.082473  -0.18144  0  3.929993  0
C  C34  1  0.40742737  0.22915261  0.98676733  1  0  -0.159249  0  3.675791  0  0  -0.178079  0  3.922056  0  0  -0.185934  0  3.943303  0  0  -0.077714  -0.172964  0  3.907868  0
C  C35  1  0.59257312  0.77084605  0.01323270  1  0  -0.159208  0  3.675813  0  0  -0.178032  0  3.922073  0  0  -0.185887  0  3.943319  0  0  -0.077685  -0.172918  0  3.907884  0
C  C36  1  0.46780977  0.04273746  0.82656777  1  0  0.118365  0  3.74163  0  0  0.092551  0  3.989252  0  0  0.098244  0  4.008652  0  0  0.034302  0.088898  0  3.976141  0
C  C37  1  0.53218898  0.95726365  0.17343313  1  0  0.118279  0  3.741631  0  0  0.092501  0  3.989234  0  0  0.098194  0  4.008631  0  0  0.034297  0.088846  0  3.97612  0
I  I38  1  0.95448809  0.94555278  0.65256981  1  0  -0.335857  0  1.16348  0  0  -0.291207  0  1.503702  0  0  -0.30985  0  1.48388  0  0  -0.138816  -0.278203  0  1.51715  0
I  I39  1  0.04551993  0.05445078  0.34743015  1  0  -0.335873  0  1.163461  0  0  -0.29122  0  1.503682  0  0  -0.309863  0  1.48386  0  0  -0.138821  -0.278216  0  1.517129  0
I  I40  1  0.11288371  0.53048135  0.84699315  1  0  -0.32887  0  1.141115  0  0  -0.288157  0  1.481892  0  0  -0.306227  0  1.465199  0  0  -0.157396  -0.275728  0  1.493286  0
I  I41  1  0.88711688  0.46951976  0.15300651  1  0  -0.328862  0  1.141117  0  0  -0.288144  0  1.481894  0  0  -0.306214  0  1.465202  0  0  -0.157387  -0.275716  0  1.493288  0
N  N42  1  0.38595306  0.63711890  0.33586495  1  0  -0.282962  0  3.240057  0  0  -0.210465  0  3.501865  0  0  -0.229966  0  3.524587  0  0  -0.311417  -0.197248  0  3.486135  0
N  N43  1  0.61404380  0.36288099  0.66413580  1  0  -0.282847  0  3.239921  0  0  -0.210364  0  3.50173  0  0  -0.229865  0  3.524452  0  0  -0.311347  -0.197147  0  3.486  0
N  N44  1  0.61686750  0.17451169  0.85411385  1  0  -0.283968  0  3.245522  0  0  -0.211739  0  3.508689  0  0  -0.231302  0  3.53118  0  0  -0.31225  -0.198528  0  3.493194  0
N  N45  1  0.38313120  0.82548820  0.14588755  1  0  -0.283934  0  3.245403  0  0  -0.211728  0  3.508585  0  0  -0.23129  0  3.531073  0  0  -0.312254  -0.198516  0  3.493089  0
N  N46  1  0.92274105  0.44908494  0.47883146  1  0  -0.119306  0  2.95034  0  0  -0.092429  0  3.225888  0  0  -0.091624  0  3.232655  0  0  -0.13005  -0.092891  0  3.221367  0
N  N47  1  0.07725953  0.55091617  0.52116945  1  0  -0.119292  0  2.950407  0  0  -0.092446  0  3.225958  0  0  -0.091635  0  3.232723  0  0  -0.130037  -0.092909  0  3.221438  0
N  N48  1  0.07640448  0.05659864  0.01614436  1  0  -0.121085  0  2.951259  0  0  -0.096853  0  3.229559  0  0  -0.095623  0  3.236112  0  0  -0.130904  -0.097699  0  3.225227  0
N  N49  1  0.92359422  0.94340125  0.98385516  1  0  -0.12087  0  2.951223  0  0  -0.096645  0  3.22952  0  0  -0.095415  0  3.236073  0  0  -0.13081  -0.097492  0  3.225188  0
