# generated using pymatgen
data_CaH8C12(NO3)2
_symmetry_space_group_name_H-M   'P 1'
_cell_length_a   7.04496620
_cell_length_b   8.07726658
_cell_length_c   10.86065016
_cell_angle_alpha   90.00003000
_cell_angle_beta   89.99997976
_cell_angle_gamma   107.67668977
_symmetry_Int_Tables_number   1
_chemical_formula_structural   CaH8C12(NO3)2
_chemical_formula_sum   'Ca2 H16 C24 N4 O12'
_cell_volume   588.83566927
_cell_formula_units_Z   2
loop_
 _symmetry_equiv_pos_site_id
 _symmetry_equiv_pos_as_xyz
  1  'x, y, z'
loop_
 _atom_site_type_symbol
 _atom_site_label
 _atom_site_symmetry_multiplicity
 _atom_site_fract_x
 _atom_site_fract_y
 _atom_site_fract_z
 _atom_site_occupancy
 _atom_site_hle17_bader_spin_density
 _atom_site_hle17_ddec_charge
 _atom_site_hle17_ddec_spin_density
 _atom_site_hle17_ddec_sum_bond_order
 _atom_site_hle17_magmom
 _atom_site_hse06_10hf_bader_spin_density
 _atom_site_hse06_10hf_ddec_charge
 _atom_site_hse06_10hf_ddec_spin_density
 _atom_site_hse06_10hf_ddec_sum_bond_order
 _atom_site_hse06_10hf_magmom
 _atom_site_hse06_bader_spin_density
 _atom_site_hse06_ddec_charge
 _atom_site_hse06_ddec_spin_density
 _atom_site_hse06_ddec_sum_bond_order
 _atom_site_hse06_magmom
 _atom_site_pbe_bader_spin_density
 _atom_site_pbe_cm5_charge
 _atom_site_pbe_ddec_charge
 _atom_site_pbe_ddec_spin_density
 _atom_site_pbe_ddec_sum_bond_order
 _atom_site_pbe_magmom
Ca  Ca0  1  0.00000000  0.00000000  0.00000000  1  0  1.549163  0  1.151943  0  0  1.420512  0  1.520679  0  0  1.465016  0  1.473523  0  0  0.869512  1.386923  0  1.554391  0
Ca  Ca1  1  0.99999982  0.49999900  0.49999952  1  0  1.54919  0  1.15189  0  0  1.420529  0  1.520643  0  0  1.465036  0  1.473486  0  0  0.869531  1.386941  0  1.55435  0
H  H2  1  0.56268356  0.48947995  0.66253956  1  0  0.127583  0  0.960784  0  0  0.128801  0  1.031004  0  0  0.13422  0  1.026951  0  0  0.119784  0.124875  0  1.034208  0
H  H3  1  0.43731479  0.01051915  0.16253902  1  0  0.127562  0  0.960806  0  0  0.128783  0  1.031025  0  0  0.134203  0  1.026971  0  0  0.119773  0.124859  0  1.034228  0
H  H4  1  0.43731691  0.51052213  0.33746143  1  0  0.127584  0  0.960763  0  0  0.128801  0  1.030985  0  0  0.13422  0  1.026931  0  0  0.11978  0.124876  0  1.034189  0
H  H5  1  0.56268194  0.98948034  0.83746196  1  0  0.127575  0  0.960802  0  0  0.12878  0  1.031036  0  0  0.134198  0  1.026985  0  0  0.119795  0.124856  0  1.034239  0
H  H6  1  0.89627664  0.57931718  0.00279174  1  0  0.119063  0  0.964137  0  0  0.125735  0  1.02964  0  0  0.129822  0  1.026815  0  0  0.121618  0.122667  0  1.03199  0
H  H7  1  0.10372380  0.92068119  0.50279235  1  0  0.118989  0  0.964229  0  0  0.125684  0  1.029708  0  0  0.12976  0  1.026894  0  0  0.121591  0.122616  0  1.032057  0
H  H8  1  0.10372389  0.42068100  0.99720833  1  0  0.119004  0  0.964218  0  0  0.125699  0  1.029691  0  0  0.129773  0  1.026881  0  0  0.121599  0.122632  0  1.03204  0
H  H9  1  0.89627622  0.07931960  0.49720864  1  0  0.118986  0  0.964228  0  0  0.125682  0  1.029705  0  0  0.129757  0  1.026895  0  0  0.121591  0.122614  0  1.032054  0
H  H10  1  0.30176105  0.25034364  0.77197498  1  0  0.119469  0  0.954615  0  0  0.127714  0  1.016914  0  0  0.131927  0  1.012483  0  0  0.137339  0.124498  0  1.020538  0
H  H11  1  0.69823869  0.24965553  0.27197448  1  0  0.119414  0  0.95471  0  0  0.127706  0  1.016949  0  0  0.13189  0  1.012554  0  0  0.137337  0.12449  0  1.020573  0
H  H12  1  0.69823898  0.74965715  0.22802509  1  0  0.119476  0  0.954615  0  0  0.127718  0  1.016914  0  0  0.131933  0  1.012482  0  0  0.137335  0.124503  0  1.020539  0
H  H13  1  0.30176088  0.75034396  0.72802467  1  0  0.119406  0  0.954701  0  0  0.127692  0  1.016954  0  0  0.131877  0  1.012557  0  0  0.137323  0.124476  0  1.020578  0
H  H14  1  0.64275509  0.31308048  0.08772678  1  0  0.110595  0  0.944643  0  0  0.122182  0  1.003569  0  0  0.12475  0  1.001598  0  0  0.134257  0.120181  0  1.005298  0
H  H15  1  0.35724613  0.18691857  0.58772816  1  0  0.110598  0  0.944649  0  0  0.122186  0  1.003576  0  0  0.124753  0  1.00161  0  0  0.134259  0.120184  0  1.005304  0
H  H16  1  0.35724641  0.68691640  0.91227144  1  0  0.110594  0  0.944662  0  0  0.122179  0  1.00359  0  0  0.124746  0  1.001621  0  0  0.134256  0.120178  0  1.005318  0
H  H17  1  0.64275435  0.81308352  0.41227190  1  0  0.110624  0  0.944645  0  0  0.122209  0  1.003576  0  0  0.124774  0  1.00161  0  0  0.134273  0.120207  0  1.005305  0
C  C18  1  0.58490934  0.45895053  0.75808723  1  0  -0.098602  0  3.731561  0  0  -0.121623  0  3.9926  0  0  -0.124391  0  4.009035  0  0  -0.067018  -0.120126  0  3.981978  0
C  C19  1  0.41508995  0.04104732  0.25808672  1  0  -0.098652  0  3.731633  0  0  -0.1217  0  3.992708  0  0  -0.124468  0  4.009136  0  0  -0.067075  -0.120201  0  3.982082  0
C  C20  1  0.41509023  0.54104895  0.24191375  1  0  -0.098626  0  3.731556  0  0  -0.121654  0  3.992608  0  0  -0.124422  0  4.009042  0  0  -0.067039  -0.120154  0  3.981981  0
C  C21  1  0.58490820  0.95895216  0.74191335  1  0  -0.09862  0  3.731612  0  0  -0.121657  0  3.992664  0  0  -0.124424  0  4.009092  0  0  -0.067049  -0.120162  0  3.982044  0
C  C22  1  0.91667529  0.69870991  0.76454174  1  0  0.686451  0  3.90902  0  0  0.63767  0  4.205941  0  0  0.671983  0  4.195572  0  0  0.226954  0.614182  0  4.212102  0
C  C23  1  0.08332603  0.80128732  0.26454232  1  0  0.686406  0  3.909155  0  0  0.637629  0  4.206055  0  0  0.671935  0  4.195699  0  0  0.22699  0.614141  0  4.212218  0
C  C24  1  0.08332569  0.30128958  0.23545833  1  0  0.686471  0  3.909004  0  0  0.637671  0  4.205956  0  0  0.671986  0  4.195584  0  0  0.226956  0.614184  0  4.212117  0
C  C25  1  0.91667354  0.19871216  0.73545867  1  0  0.686521  0  3.909049  0  0  0.637703  0  4.205986  0  0  0.672014  0  4.195619  0  0  0.226979  0.614215  0  4.212145  0
C  C26  1  0.75443578  0.55354783  0.82337614  1  0  -0.037729  0  3.717587  0  0  -0.024436  0  3.956876  0  0  -0.025596  0  3.973807  0  0  -9.1e-05  -0.023496  0  3.94541  0
C  C27  1  0.24556455  0.94645074  0.32337675  1  0  -0.037608  0  3.717646  0  0  -0.024295  0  3.956906  0  0  -0.025452  0  3.973834  0  0  -4.5e-05  -0.023355  0  3.945439  0
C  C28  1  0.24556424  0.44645296  0.17662392  1  0  -0.037703  0  3.717574  0  0  -0.024395  0  3.956863  0  0  -0.025557  0  3.973789  0  0  -7e-05  -0.023455  0  3.945397  0
C  C29  1  0.75443502  0.05354875  0.67662424  1  0  -0.037781  0  3.717678  0  0  -0.024422  0  3.956905  0  0  -0.025581  0  3.973832  0  0  -9.5e-05  -0.023481  0  3.945436  0
C  C30  1  0.77261263  0.50540187  0.94551983  1  0  -0.091422  0  3.735139  0  0  -0.115671  0  3.990067  0  0  -0.11771  0  4.006267  0  0  -0.064614  -0.114459  0  3.979354  0
C  C31  1  0.22738812  0.99459807  0.44552138  1  0  -0.091377  0  3.735183  0  0  -0.115647  0  3.990084  0  0  -0.117681  0  4.006302  0  0  -0.064597  -0.114435  0  3.979367  0
C  C32  1  0.22738881  0.49459891  0.05447931  1  0  -0.091378  0  3.735196  0  0  -0.115633  0  3.990092  0  0  -0.117665  0  4.006308  0  0  -0.064598  -0.114421  0  3.979377  0
C  C33  1  0.77261190  0.00540271  0.55447961  1  0  -0.091316  0  3.735173  0  0  -0.115601  0  3.990081  0  0  -0.117629  0  4.006286  0  0  -0.064585  -0.11439  0  3.979365  0
C  C34  1  0.44282963  0.32228224  0.81357930  1  0  -0.011886  0  3.591787  0  0  -0.054098  0  3.858643  0  0  -0.048776  0  3.87015  0  0  0.041519  -0.057411  0  3.851349  0
C  C35  1  0.55717009  0.17771695  0.31357972  1  0  -0.011833  0  3.591793  0  0  -0.054075  0  3.858634  0  0  -0.048732  0  3.870163  0  0  0.041551  -0.057389  0  3.851341  0
C  C36  1  0.55717039  0.67771855  0.18642077  1  0  -0.0119  0  3.591799  0  0  -0.054097  0  3.858634  0  0  -0.048774  0  3.870138  0  0  0.041529  -0.05741  0  3.85134  0
C  C37  1  0.44282993  0.82228383  0.68642034  1  0  -0.011817  0  3.591802  0  0  -0.054059  0  3.858649  0  0  -0.048714  0  3.870175  0  0  0.041553  -0.057372  0  3.851353  0
C  C38  1  0.63386022  0.36238035  0.99582344  1  0  0.009336  0  3.58302  0  0  -0.031615  0  3.843719  0  0  -0.026024  0  3.856916  0  0  0.044149  -0.034984  0  3.834929  0
C  C39  1  0.36613847  0.13762025  0.49582297  1  0  0.009331  0  3.58296  0  0  -0.031619  0  3.843665  0  0  -0.026027  0  3.856856  0  0  0.044135  -0.034987  0  3.83487  0
C  C40  1  0.36613838  0.63762043  0.00417663  1  0  0.009354  0  3.582972  0  0  -0.031593  0  3.843676  0  0  -0.026003  0  3.856868  0  0  0.044153  -0.034962  0  3.834885  0
C  C41  1  0.63386252  0.86237924  0.50417709  1  0  0.009312  0  3.582942  0  0  -0.031642  0  3.843663  0  0  -0.026051  0  3.856858  0  0  0.044126  -0.035011  0  3.83487  0
N  N42  1  0.47083677  0.27098562  0.93013584  1  0  0.292045  0  3.750411  0  0  0.345273  0  4.010752  0  0  0.346563  0  4.033525  0  0  -0.104893  0.343692  0  3.995387  0
N  N43  1  0.52916433  0.22901363  0.43013630  1  0  0.292011  0  3.75034  0  0  0.345248  0  4.010685  0  0  0.346538  0  4.03345  0  0  -0.104898  0.343666  0  3.995317  0
N  N44  1  0.52916421  0.72901386  0.06986330  1  0  0.292021  0  3.750379  0  0  0.345245  0  4.01071  0  0  0.346534  0  4.033483  0  0  -0.10489  0.343662  0  3.995345  0
N  N45  1  0.47083569  0.77098715  0.56986377  1  0  0.292019  0  3.750368  0  0  0.345248  0  4.010718  0  0  0.346538  0  4.033486  0  0  -0.104904  0.343666  0  3.995349  0
O  O46  1  0.02074787  0.81808343  0.83427618  1  0  -0.7017  0  1.934157  0  0  -0.64922  0  2.180799  0  0  -0.67519  0  2.169505  0  0  -0.37265  -0.630486  0  2.188005  0
O  O47  1  0.97925105  0.68191514  0.33427651  1  0  -0.701695  0  1.934215  0  0  -0.649219  0  2.180845  0  0  -0.675189  0  2.169559  0  0  -0.372661  -0.630486  0  2.188052  0
O  O48  1  0.97925170  0.18191606  0.16572389  1  0  -0.701717  0  1.934147  0  0  -0.649226  0  2.180803  0  0  -0.675196  0  2.169509  0  0  -0.37265  -0.630493  0  2.188011  0
O  O49  1  0.02074852  0.31808434  0.66572448  1  0  -0.70174  0  1.934168  0  0  -0.649245  0  2.180806  0  0  -0.675217  0  2.169516  0  0  -0.372666  -0.630512  0  2.188013  0
O  O50  1  0.34285168  0.13509770  0.97998183  1  0  -0.596582  0  1.775447  0  0  -0.554938  0  2.020554  0  0  -0.581307  0  2.020545  0  0  -0.279226  -0.535882  0  2.020288  0
O  O51  1  0.65714753  0.36490029  0.47998139  1  0  -0.596546  0  1.775426  0  0  -0.554915  0  2.020552  0  0  -0.581281  0  2.020538  0  0  -0.279219  -0.535858  0  2.020283  0
O  O52  1  0.65714743  0.86490048  0.02001639  1  0  -0.596547  0  1.775446  0  0  -0.554922  0  2.020536  0  0  -0.581288  0  2.020525  0  0  -0.279225  -0.535864  0  2.020268  0
O  O53  1  0.34285249  0.63510050  0.52001776  1  0  -0.596551  0  1.775444  0  0  -0.554901  0  2.020536  0  0  -0.58127  0  2.020525  0  0  -0.279201  -0.535846  0  2.020267  0
O  O54  1  0.94203999  0.68906691  0.64920518  1  0  -0.701196  0  1.95437  0  0  -0.646027  0  2.20411  0  0  -0.672771  0  2.193356  0  0  -0.371885  -0.626711  0  2.210939  0
O  O55  1  0.05795944  0.81093285  0.14920577  1  0  -0.701193  0  1.954437  0  0  -0.646031  0  2.204159  0  0  -0.672773  0  2.193415  0  0  -0.371908  -0.626716  0  2.21099  0
O  O56  1  0.05795958  0.31093258  0.35079489  1  0  -0.701215  0  1.954381  0  0  -0.646047  0  2.204134  0  0  -0.67279  0  2.193377  0  0  -0.371894  -0.626732  0  2.210964  0
O  O57  1  0.94204013  0.18906663  0.85079522  1  0  -0.701222  0  1.954405  0  0  -0.646055  0  2.20415  0  0  -0.672799  0  2.193399  0  0  -0.371902  -0.62674  0  2.21098  0
