# generated using pymatgen
data_ZnH14C22S2N4O5
_symmetry_space_group_name_H-M   'P 1'
_cell_length_a   9.14719837
_cell_length_b   9.90004249
_cell_length_c   12.02933134
_cell_angle_alpha   82.55876109
_cell_angle_beta   81.61120654
_cell_angle_gamma   72.61391659
_symmetry_Int_Tables_number   1
_chemical_formula_structural   ZnH14C22S2N4O5
_chemical_formula_sum   'Zn2 H28 C44 S4 N8 O10'
_cell_volume   1024.18885918
_cell_formula_units_Z   2
loop_
 _symmetry_equiv_pos_site_id
 _symmetry_equiv_pos_as_xyz
  1  'x, y, z'
loop_
 _atom_site_type_symbol
 _atom_site_label
 _atom_site_symmetry_multiplicity
 _atom_site_fract_x
 _atom_site_fract_y
 _atom_site_fract_z
 _atom_site_occupancy
 _atom_site_pbe_bader_spin_density
 _atom_site_pbe_cm5_charge
 _atom_site_pbe_ddec_charge
 _atom_site_pbe_ddec_spin_density
 _atom_site_pbe_ddec_sum_bond_order
 _atom_site_pbe_magmom
Zn  Zn0  1  0.49372348  0.18445918  0.40232259  1  0  0.701308  0.867676  0  2.282299  0
Zn  Zn1  1  0.50627625  0.81554075  0.59767782  1  0  0.701319  0.867708  0  2.282311  0
H  H2  1  0.59106370  0.34668742  0.61167865  1  0  0.100429  0.112755  0  1.027009  0
H  H3  1  0.40893683  0.65331356  0.38832321  1  0  0.10043  0.112753  0  1.026982  0
H  H4  1  0.48664039  0.43144161  0.96115889  1  0  0.101817  0.114436  0  1.067936  0
H  H5  1  0.51335850  0.56856468  0.03884176  1  0  0.101819  0.114486  0  1.067932  0
H  H6  1  0.57493830  0.00587611  0.87256613  1  0  0.101507  0.124329  0  1.066251  0
H  H7  1  0.42505179  0.99413020  0.12743889  1  0  0.101493  0.124325  0  1.066197  0
H  H8  1  0.32888875  0.42977677  0.57796816  1  0  0.139224  0.115544  0  1.001901  0
H  H9  1  0.67110749  0.57021998  0.42202967  1  0  0.139221  0.115548  0  1.001887  0
H  H10  1  0.15601530  0.11512692  0.48555602  1  0  0.120891  0.121556  0  1.00869  0
H  H11  1  0.84397943  0.88486771  0.51444638  1  0  0.120857  0.121464  0  1.008566  0
H  H12  1  0.93286305  0.28101011  0.63582287  1  0  0.124045  0.129637  0  1.009844  0
H  H13  1  0.06713210  0.71898665  0.36417675  1  0  0.124032  0.129633  0  1.009847  0
H  H14  1  0.80715860  0.57262581  0.66218420  1  0  0.108067  0.132585  0  1.028416  0
H  H15  1  0.19283939  0.42737624  0.33781701  1  0  0.108059  0.132586  0  1.028404  0
H  H16  1  0.74813772  0.73509481  0.82859642  1  0  0.105734  0.131417  0  1.019893  0
H  H17  1  0.25186754  0.26490510  0.17140333  1  0  0.10572  0.131389  0  1.019995  0
H  H18  1  0.23498469  0.60841942  0.99907385  1  0  0.106303  0.131559  0  1.000473  0
H  H19  1  0.76502443  0.39158579  0.00092155  1  0  0.106348  0.131599  0  1.000471  0
H  H20  1  0.18090077  0.77348415  0.16358844  1  0  0.101882  0.120664  0  1.056948  0
H  H21  1  0.81910491  0.22651789  0.83640854  1  0  0.10191  0.120712  0  1.056915  0
H  H22  1  0.64469916  0.97840014  0.20016699  1  0  0.131851  0.101577  0  1.056079  0
H  H23  1  0.35530317  0.02159128  0.79983318  1  0  0.131878  0.101615  0  1.056017  0
H  H24  1  0.08456647  0.01932400  0.23204834  1  0  0.120039  0.124419  0  1.024809  0
H  H25  1  0.91543433  0.98067592  0.76794944  1  0  0.120056  0.124443  0  1.024783  0
H  H26  1  0.86196694  0.18618489  0.38076926  1  0  0.120038  0.118287  0  0.99155  0
H  H27  1  0.13803352  0.81381610  0.61922762  1  0  0.120034  0.118284  0  0.991549  0
H  H28  1  0.51332271  0.23646321  0.09121292  1  0  0.304962  0.370787  0  0.975312  0
H  H29  1  0.48667542  0.76354202  0.90878960  1  0  0.304996  0.37088  0  0.975227  0
C  C30  1  0.60095269  0.06763678  0.64375426  1  0  0.213667  0.590219  0  4.183706  0
C  C31  1  0.39904382  0.93236634  0.35624452  1  0  0.213629  0.590089  0  4.183945  0
C  C32  1  0.58491099  0.16617204  0.73282039  1  0  -0.032773  -0.042102  0  4.034028  0
C  C33  1  0.41508415  0.83383213  0.26718176  1  0  -0.032789  -0.042052  0  4.03396  0
C  C34  1  0.57496904  0.30981290  0.70059198  1  0  -0.103923  -0.166456  0  4.002779  0
C  C35  1  0.42503164  0.69019126  0.29941118  1  0  -0.103961  -0.166606  0  4.00272  0
C  C36  1  0.53888974  0.40545530  0.78323333  1  0  -0.03088  -0.031771  0  4.039001  0
C  C37  1  0.46111094  0.59454886  0.21676900  1  0  -0.030823  -0.03158  0  4.0388  0
C  C38  1  0.51970405  0.56181893  0.75316275  1  0  0.204112  0.576989  0  4.227573  0
C  C39  1  0.48029612  0.43818312  0.24683654  1  0  0.204142  0.576997  0  4.227392  0
C  C40  1  0.51725631  0.35675621  0.89710508  1  0  -0.10493  -0.236684  0  3.958804  0
C  C41  1  0.48274326  0.64324795  0.10289738  1  0  -0.104948  -0.236751  0  3.958924  0
C  C42  1  0.53574619  0.21239600  0.93006910  1  0  0.078117  0.325798  0  4.093491  0
C  C43  1  0.46425006  0.78760818  0.06993376  1  0  0.078095  0.325698  0  4.093547  0
C  C44  1  0.56726211  0.11714117  0.84707711  1  0  -0.107305  -0.238861  0  3.950651  0
C  C45  1  0.43273268  0.88286407  0.15292414  1  0  -0.10725  -0.238736  0  3.950445  0
C  C46  1  0.25475129  0.36396413  0.57279794  1  0  0.143212  0.099669  0  3.872127  0
C  C47  1  0.74524386  0.63603262  0.42720168  1  0  0.143273  0.099735  0  3.872312  0
C  C48  1  0.15779548  0.20576355  0.52638963  1  0  0.001872  -0.021197  0  3.996875  0
C  C49  1  0.84220000  0.79423214  0.47361007  1  0  0.001964  -0.020897  0  3.996571  0
C  C50  1  0.04700316  0.28591141  0.60003544  1  0  -0.000804  -0.100122  0  3.889055  0
C  C51  1  0.95299201  0.71408534  0.39996501  1  0  -0.000879  -0.100287  0  3.889318  0
C  C52  1  0.04049350  0.48707503  0.70813023  1  0  0.076876  0.051476  0  4.050855  0
C  C53  1  0.95950434  0.51292384  0.29186968  1  0  0.076912  0.051584  0  4.050865  0
C  C54  1  0.89054618  0.57194950  0.71814761  1  0  -0.107031  -0.167656  0  4.016541  0
C  C55  1  0.10945324  0.42805149  0.28185355  1  0  -0.10701  -0.167673  0  4.016593  0
C  C56  1  0.85963909  0.65904432  0.80816477  1  0  -0.1072  -0.136919  0  3.97113  0
C  C57  1  0.14036520  0.34095878  0.19183559  1  0  -0.107197  -0.136865  0  3.971172  0
C  C58  1  0.98589897  0.63943112  0.86612455  1  0  -0.021021  -0.010395  0  4.070875  0
C  C59  1  0.01410662  0.36056773  0.13387527  1  0  -0.02104  -0.010423  0  4.07085  0
C  C60  1  0.00003794  0.71110318  0.95929829  1  0  -0.023747  -0.021034  0  4.079849  0
C  C61  1  0.99996873  0.28889566  0.04069974  1  0  -0.023706  -0.021003  0  4.079754  0
C  C62  1  0.12581932  0.68827857  0.01826750  1  0  -0.105555  -0.124344  0  3.976564  0
C  C63  1  0.87418889  0.31172240  0.98172929  1  0  -0.105601  -0.124389  0  3.976537  0
C  C64  1  0.09773955  0.77748306  0.10647875  1  0  -0.111973  -0.189631  0  4.049646  0
C  C65  1  0.90227110  0.22251365  0.89351987  1  0  -0.112021  -0.189694  0  4.049773  0
C  C66  1  0.95098929  0.86916805  0.11298047  1  0  0.080774  0.059358  0  4.051624  0
C  C67  1  0.04901538  0.13082655  0.88701992  1  0  0.080776  0.059382  0  4.051716  0
C  C68  1  0.73166180  0.01340965  0.23062113  1  0  0.143427  0.109578  0  3.879581  0
C  C69  1  0.26833988  0.98658390  0.76937972  1  0  0.143394  0.109562  0  3.879611  0
C  C70  1  0.96140086  0.03540440  0.24943367  1  0  -0.002623  -0.108202  0  3.914553  0
C  C71  1  0.03860061  0.96459340  0.75056592  1  0  -0.002654  -0.108246  0  3.914583  0
C  C72  1  0.84990117  0.11769341  0.32143278  1  0  0.003275  -0.018653  0  3.987873  0
C  C73  1  0.15009887  0.88230546  0.67856604  1  0  0.003268  -0.018685  0  3.987914  0
S  S74  1  0.14395994  0.51033629  0.80986009  1  0  0.107112  0.111609  0  2.889925  0
S  S75  1  0.85604184  0.48966045  0.19013792  1  0  0.107072  0.111564  0  2.889918  0
S  S76  1  0.84596991  0.84762416  0.01151599  1  0  0.109346  0.117374  0  2.88598  0
S  S77  1  0.15403432  0.15236832  0.98848467  1  0  0.109341  0.117344  0  2.885936  0
N  N78  1  0.28641479  0.25493461  0.51053606  1  0  -0.342754  -0.285383  0  3.54158  0
N  N79  1  0.71358069  0.74506108  0.48946364  1  0  -0.342791  -0.285435  0  3.541717  0
N  N80  1  0.11012056  0.38605085  0.62971742  1  0  -0.225779  0.024974  0  3.845182  0
N  N81  1  0.88987427  0.61394696  0.37028213  1  0  -0.225764  0.024885  0  3.845524  0
N  N82  1  0.88455222  0.96953204  0.19164228  1  0  -0.225493  0.024443  0  3.853897  0
N  N83  1  0.11545055  0.03046150  0.80835762  1  0  -0.225487  0.024479  0  3.853715  0
N  N84  1  0.70783528  0.10280458  0.30871623  1  0  -0.344647  -0.274525  0  3.551814  0
N  N85  1  0.29216431  0.89719216  0.69128370  1  0  -0.344628  -0.274482  0  3.551832  0
O  O86  1  0.61774640  0.11585808  0.54114304  1  0  -0.328365  -0.579705  0  2.382621  0
O  O87  1  0.38224964  0.88415035  0.45885856  1  0  -0.328382  -0.579688  0  2.382592  0
O  O88  1  0.59392221  0.94157178  0.67781474  1  0  -0.316998  -0.545912  0  2.327554  0
O  O89  1  0.40607611  0.05842921  0.32218738  1  0  -0.316978  -0.54584  0  2.327718  0
O  O90  1  0.52409590  0.60547040  0.64747043  1  0  -0.331285  -0.570564  0  2.307345  0
O  O91  1  0.47590318  0.39453165  0.35252982  1  0  -0.331258  -0.570527  0  2.307271  0
O  O92  1  0.50237094  0.63813467  0.83272441  1  0  -0.319735  -0.56587  0  2.264626  0
O  O93  1  0.49762968  0.36186950  0.16727377  1  0  -0.319777  -0.565923  0  2.264619  0
O  O94  1  0.52337130  0.16091529  0.03991944  1  0  -0.355069  -0.472812  0  2.373185  0
O  O95  1  0.47662462  0.83908994  0.96008334  1  0  -0.35509  -0.472883  0  2.373129  0
