# generated using pymatgen
data_H22PbC27(NO)4
_symmetry_space_group_name_H-M   'P 1'
_cell_length_a   9.21639253
_cell_length_b   10.26602905
_cell_length_c   12.93438222
_cell_angle_alpha   100.09847633
_cell_angle_beta   90.64431603
_cell_angle_gamma   98.88323204
_symmetry_Int_Tables_number   1
_chemical_formula_structural   H22PbC27(NO)4
_chemical_formula_sum   'H44 Pb2 C54 N8 O8'
_cell_volume   1189.46099886
_cell_formula_units_Z   2
loop_
 _symmetry_equiv_pos_site_id
 _symmetry_equiv_pos_as_xyz
  1  'x, y, z'
loop_
 _atom_site_type_symbol
 _atom_site_label
 _atom_site_symmetry_multiplicity
 _atom_site_fract_x
 _atom_site_fract_y
 _atom_site_fract_z
 _atom_site_occupancy
 _atom_site_hle17_bader_spin_density
 _atom_site_hle17_ddec_charge
 _atom_site_hle17_ddec_spin_density
 _atom_site_hle17_ddec_sum_bond_order
 _atom_site_hle17_magmom
 _atom_site_hse06_10hf_bader_spin_density
 _atom_site_hse06_10hf_ddec_charge
 _atom_site_hse06_10hf_ddec_spin_density
 _atom_site_hse06_10hf_ddec_sum_bond_order
 _atom_site_hse06_10hf_magmom
 _atom_site_hse06_bader_spin_density
 _atom_site_hse06_ddec_charge
 _atom_site_hse06_ddec_spin_density
 _atom_site_hse06_ddec_sum_bond_order
 _atom_site_hse06_magmom
 _atom_site_pbe_bader_spin_density
 _atom_site_pbe_cm5_charge
 _atom_site_pbe_ddec_charge
 _atom_site_pbe_ddec_spin_density
 _atom_site_pbe_ddec_sum_bond_order
 _atom_site_pbe_magmom
H  H0  1  0.05924955  0.86637849  0.17818206  1  0  0.067437  0  0.951291  0  0  0.082592  0  1.007969  0  0  0.082941  0  1.010745  0  0  0.095416  0.082681  0  1.00588  0
H  H1  1  0.94075075  0.13362302  0.82181717  1  0  0.067397  0  0.951284  0  0  0.082591  0  1.007957  0  0  0.082938  0  1.010743  0  0  0.095423  0.082681  0  1.005865  0
H  H2  1  0.96786448  0.76920655  0.33399370  1  0  0.074541  0  0.934143  0  0  0.091004  0  0.995931  0  0  0.092304  0  0.996032  0  0  0.088258  0.089982  0  0.996013  0
H  H3  1  0.03213473  0.23079496  0.66600628  1  0  0.074572  0  0.93411  0  0  0.091005  0  0.995929  0  0  0.092313  0  0.996021  0  0  0.088263  0.089985  0  0.996009  0
H  H4  1  0.84205671  0.64712658  0.25091375  1  0  0.063684  0  0.928411  0  0  0.083558  0  0.987614  0  0  0.084294  0  0.987849  0  0  0.084922  0.083067  0  0.987391  0
H  H5  1  0.15794176  0.35287694  0.74908727  1  0  0.063731  0  0.928263  0  0  0.083578  0  0.987487  0  0  0.084317  0  0.987723  0  0  0.084914  0.083089  0  0.987265  0
H  H6  1  0.72365596  0.84891395  0.33249073  1  0  0.06806  0  0.96283  0  0  0.079451  0  1.036686  0  0  0.081388  0  1.035528  0  0  0.086171  0.077976  0  1.037723  0
H  H7  1  0.27634452  0.15108857  0.66750940  1  0  0.068045  0  0.962786  0  0  0.079431  0  1.036681  0  0  0.081371  0  1.035526  0  0  0.08617  0.077956  0  1.037722  0
H  H8  1  0.85872575  0.95253058  0.27852244  1  0  0.061882  0  0.972494  0  0  0.076717  0  1.045344  0  0  0.077358  0  1.045979  0  0  0.084522  0.076075  0  1.045196  0
H  H9  1  0.14127364  0.04747193  0.72147769  1  0  0.0618  0  0.972578  0  0  0.076671  0  1.045401  0  0  0.077315  0  1.046035  0  0  0.0845  0.076034  0  1.045249  0
H  H10  1  0.63747933  0.91467473  0.16772897  1  0  0.072039  0  0.918629  0  0  0.087851  0  0.971403  0  0  0.088992  0  0.972046  0  0  0.101981  0.087165  0  0.970888  0
H  H11  1  0.36251880  0.08532678  0.83227179  1  0  0.072035  0  0.918674  0  0  0.087833  0  0.971414  0  0  0.088975  0  0.972056  0  0  0.102015  0.087151  0  0.970896  0
H  H12  1  0.72778357  0.80602410  0.99453675  1  0  0.050983  0  0.968916  0  0  0.064171  0  1.042998  0  0  0.064996  0  1.043114  0  0  0.084702  0.063687  0  1.042907  0
H  H13  1  0.27221456  0.19397741  0.00546401  1  0  0.051006  0  0.968916  0  0  0.064196  0  1.042986  0  0  0.065021  0  1.043103  0  0  0.084704  0.063709  0  1.042898  0
H  H14  1  0.85714705  0.93365230  0.07001989  1  0  0.06427  0  0.925237  0  0  0.086435  0  0.979202  0  0  0.087142  0  0.979724  0  0  0.08733  0.085806  0  0.978865  0
H  H15  1  0.14285233  0.06635023  0.92998179  1  0  0.064316  0  0.925235  0  0  0.086464  0  0.979204  0  0  0.08717  0  0.979731  0  0  0.087339  0.085837  0  0.978862  0
H  H16  1  0.98238693  0.74283180  0.99828579  1  0  0.06007  0  0.961651  0  0  0.076684  0  1.028351  0  0  0.078103  0  1.027512  0  0  0.085242  0.075895  0  1.028468  0
H  H17  1  0.01761120  0.25716970  0.00171419  1  0  0.060045  0  0.961656  0  0  0.076665  0  1.028361  0  0  0.078083  0  1.027522  0  0  0.085246  0.075878  0  1.028478  0
H  H18  1  0.85204602  0.63026245  0.05158632  1  0  0.056907  0  0.956236  0  0  0.075621  0  1.021759  0  0  0.075808  0  1.023219  0  0  0.087769  0.075685  0  1.020553  0
H  H19  1  0.14795194  0.36973806  0.94841430  1  0  0.056882  0  0.956255  0  0  0.075613  0  1.021769  0  0  0.075798  0  1.023229  0  0  0.087769  0.075675  0  1.020566  0
H  H20  1  0.16925833  0.53991631  0.38214329  1  0  0.095588  0  0.953174  0  0  0.103814  0  1.016581  0  0  0.107631  0  1.012282  0  0  0.117991  0.100973  0  1.019568  0
H  H21  1  0.83074506  0.46008421  0.61785506  1  0  0.095533  0  0.953259  0  0  0.103771  0  1.016658  0  0  0.10759  0  1.012359  0  0  0.117988  0.100931  0  1.019642  0
H  H22  1  0.15093111  0.47937194  0.56320833  1  0  0.105517  0  0.934565  0  0  0.121192  0  0.983614  0  0  0.12415  0  0.983291  0  0  0.11108  0.118852  0  0.984398  0
H  H23  1  0.84906993  0.52062757  0.43678986  1  0  0.10553  0  0.934561  0  0  0.121154  0  0.983658  0  0  0.124112  0  0.983334  0  0  0.111071  0.118822  0  0.984439  0
H  H24  1  0.33041186  0.34342432  0.61951432  1  0  0.108189  0  0.956447  0  0  0.117993  0  1.02013  0  0  0.120867  0  1.018042  0  0  0.112077  0.115765  0  1.021927  0
H  H25  1  0.66959136  0.65657520  0.38048621  1  0  0.10814  0  0.956505  0  0  0.117946  0  1.020184  0  0  0.120817  0  1.0181  0  0  0.112058  0.115721  0  1.021979  0
H  H26  1  0.64676094  0.37380910  0.05871916  1  0  0.092447  0  0.969328  0  0  0.096727  0  1.040475  0  0  0.099962  0  1.036986  0  0  0.117427  0.094413  0  1.042869  0
H  H27  1  0.35324696  0.62619245  0.94128168  1  0  0.092435  0  0.96932  0  0  0.096722  0  1.040488  0  0  0.099957  0  1.037001  0  0  0.117417  0.094417  0  1.042853  0
H  H28  1  0.82345702  0.22322320  0.08473617  1  0  0.10789  0  0.965326  0  0  0.116441  0  1.026777  0  0  0.120441  0  1.024255  0  0  0.10529  0.113512  0  1.028493  0
H  H29  1  0.17655014  0.77678035  0.91526493  1  0  0.107913  0  0.965368  0  0  0.116481  0  1.026783  0  0  0.120477  0  1.024265  0  0  0.10529  0.113553  0  1.0285  0
H  H30  1  0.82560038  0.13621146  0.25715901  1  0  0.096317  0  0.967376  0  0  0.107571  0  1.030509  0  0  0.110199  0  1.028682  0  0  0.106641  0.105644  0  1.03182  0
H  H31  1  0.17440409  0.86378907  0.74284089  1  0  0.096374  0  0.967405  0  0  0.107623  0  1.030533  0  0  0.110253  0  1.028704  0  0  0.10664  0.105691  0  1.031841  0
H  H32  1  0.88319597  0.95818858  0.51368436  1  0  0.100634  0  0.955976  0  0  0.111672  0  1.017241  0  0  0.114695  0  1.015699  0  0  0.106168  0.109396  0  1.018558  0
H  H33  1  0.11680199  0.04181193  0.48631626  1  0  0.100631  0  0.956076  0  0  0.111687  0  1.0173  0  0  0.11471  0  1.015759  0  0  0.10617  0.109413  0  1.018613  0
H  H34  1  0.97587114  0.81573329  0.62736630  1  0  0.08746  0  0.958479  0  0  0.097059  0  1.020482  0  0  0.099888  0  1.019302  0  0  0.099375  0.095048  0  1.021578  0
H  H35  1  0.02412515  0.18427022  0.37263470  1  0  0.087454  0  0.958449  0  0  0.097049  0  1.02046  0  0  0.099879  0  1.019278  0  0  0.099356  0.095025  0  1.021572  0
H  H36  1  0.87033855  0.80484624  0.80393333  1  0  0.073783  0  0.962653  0  0  0.087209  0  1.024562  0  0  0.08903  0  1.024724  0  0  0.097274  0.086467  0  1.023286  0
H  H37  1  0.12966175  0.19515528  0.19606745  1  0  0.073814  0  0.962734  0  0  0.087225  0  1.024652  0  0  0.089046  0  1.024813  0  0  0.097298  0.086483  0  1.023375  0
H  H38  1  0.67147912  0.93728888  0.86322182  1  0  0.087214  0  0.943641  0  0  0.102879  0  0.995355  0  0  0.105436  0  0.994643  0  0  0.101979  0.101085  0  0.995989  0
H  H39  1  0.32851758  0.06271061  0.13677555  1  0  0.087267  0  0.94357  0  0  0.102895  0  0.995327  0  0  0.105473  0  0.994591  0  0  0.101979  0.101101  0  0.995963  0
H  H40  1  0.58231857  0.08065193  0.75031864  1  0  0.094086  0  0.967232  0  0  0.103875  0  1.031465  0  0  0.106823  0  1.030075  0  0  0.104003  0.10174  0  1.03281  0
H  H41  1  0.41767888  0.91934556  0.24968002  1  0  0.094088  0  0.967207  0  0  0.103914  0  1.031403  0  0  0.106863  0  1.030011  0  0  0.104017  0.101779  0  1.032753  0
H  H42  1  0.52504972  0.21506272  0.65114848  1  0  0.31907  0  0.928212  0  0  0.296308  0  0.99576  0  0  0.305912  0  0.98749  0  0  0.308815  0.289421  0  1.001799  0
H  H43  1  0.47494773  0.78493476  0.34884863  1  0  0.319104  0  0.928105  0  0  0.296332  0  0.995659  0  0  0.305938  0  0.987385  0  0  0.308795  0.289441  0  1.00169  0
Pb  Pb44  1  0.33549174  0.48834810  0.14837630  1  0  1.182864  0  1.535152  0  0  0.982164  0  1.94408  0  0  1.041427  0  1.905186  0  0  0.600302  0.93705  0  1.974609  0
Pb  Pb45  1  0.66450587  0.51165040  0.85162327  1  0  1.182894  0  1.535137  0  0  0.982183  0  1.944077  0  0  1.041461  0  1.90517  0  0  0.600299  0.937071  0  1.974591  0
C  C46  1  0.12374217  0.67681775  0.16228392  1  0  0.653208  0  3.865307  0  0  0.606465  0  4.159223  0  0  0.639935  0  4.154158  0  0  0.202161  0.583809  0  4.161329  0
C  C47  1  0.87625687  0.32318278  0.83771903  1  0  0.653251  0  3.865465  0  0  0.606545  0  4.159375  0  0  0.640017  0  4.154307  0  0  0.202193  0.583893  0  4.161473  0
C  C48  1  0.00148285  0.76210222  0.16772223  1  0  -0.115068  0  3.64461  0  0  -0.108533  0  3.871873  0  0  -0.114466  0  3.88705  0  0  -0.094407  -0.104696  0  3.861619  0
C  C49  1  0.99851945  0.23789830  0.83227688  1  0  -0.114991  0  3.644489  0  0  -0.108578  0  3.87192  0  0  -0.114516  0  3.8871  0  0  -0.094432  -0.104741  0  3.861664  0
C  C50  1  0.90150474  0.75069574  0.26028703  1  0  -0.114608  0  3.682551  0  0  -0.159217  0  3.941734  0  0  -0.159389  0  3.954731  0  0  -0.17018  -0.159023  0  3.932848  0
C  C51  1  0.09849339  0.24930578  0.73971372  1  0  -0.114636  0  3.682397  0  0  -0.159174  0  3.941614  0  0  -0.159345  0  3.954607  0  0  -0.170107  -0.158985  0  3.932732  0
C  C52  1  0.79444042  0.85116277  0.26502703  1  0  -0.125399  0  3.677039  0  0  -0.174646  0  3.943553  0  0  -0.174743  0  3.955903  0  0  -0.17205  -0.174392  0  3.935239  0
C  C53  1  0.20555805  0.14884076  0.73497554  1  0  -0.125335  0  3.677128  0  0  -0.17468  0  3.943651  0  0  -0.174783  0  3.956001  0  0  -0.172074  -0.174424  0  3.935329  0
C  C54  1  0.70081470  0.83079464  0.16257289  1  0  -0.114531  0  3.635129  0  0  -0.111326  0  3.873364  0  0  -0.117176  0  3.887544  0  0  -0.088887  -0.107466  0  3.863632  0
C  C55  1  0.29918234  0.16920687  0.83742708  1  0  -0.114492  0  3.635291  0  0  -0.111138  0  3.873276  0  0  -0.116983  0  3.887462  0  0  -0.088933  -0.107283  0  3.86355  0
C  C56  1  0.58383412  0.70593656  0.15092845  1  0  0.668523  0  3.792749  0  0  0.614898  0  4.087536  0  0  0.649134  0  4.081948  0  0  0.222472  0.591388  0  4.090912  0
C  C57  1  0.41616276  0.29406398  0.84907680  1  0  0.66837  0  3.793025  0  0  0.614772  0  4.087703  0  0  0.649005  0  4.082115  0  0  0.222427  0.591253  0  4.091093  0
C  C58  1  0.79782418  0.83109713  0.06694170  1  0  -0.115012  0  3.696835  0  0  -0.158656  0  3.954333  0  0  -0.158819  0  3.968442  0  0  -0.16534  -0.158447  0  3.944495  0
C  C59  1  0.20217395  0.16890438  0.93305905  1  0  -0.115192  0  3.696959  0  0  -0.15884  0  3.954402  0  0  -0.159012  0  3.968522  0  0  -0.165371  -0.158627  0  3.944568  0
C  C60  1  0.90948847  0.73461423  0.06423300  1  0  -0.126442  0  3.696265  0  0  -0.172197  0  3.951741  0  0  -0.173365  0  3.966984  0  0  -0.1673  -0.171062  0  3.941006  0
C  C61  1  0.09051074  0.26538728  0.93576699  1  0  -0.126318  0  3.696236  0  0  -0.172082  0  3.951737  0  0  -0.173244  0  3.966978  0  0  -0.167268  -0.170948  0  3.941004  0
C  C62  1  0.24359210  0.47930333  0.41004538  1  0  0.124781  0  3.706869  0  0  0.089487  0  3.967306  0  0  0.097907  0  3.983241  0  0  0.050068  0.084166  0  3.955652  0
C  C63  1  0.75640518  0.52069316  0.58995315  1  0  0.124804  0  3.707077  0  0  0.089497  0  3.967486  0  0  0.097913  0  3.98343  0  0  0.050068  0.084178  0  3.95583  0
C  C64  1  0.23399597  0.44491925  0.51041484  1  0  -0.118946  0  3.747529  0  0  -0.133705  0  4.007666  0  0  -0.140072  0  4.028089  0  0  -0.084573  -0.129515  0  3.994031  0
C  C65  1  0.76601274  0.55507430  0.48958571  1  0  -0.118867  0  3.747231  0  0  -0.133582  0  4.007359  0  0  -0.139948  0  4.02778  0  0  -0.084531  -0.129403  0  3.993737  0
C  C66  1  0.33243342  0.36895766  0.54126052  1  0  -0.030794  0  3.666587  0  0  -0.060744  0  3.924334  0  0  -0.05733  0  3.94088  0  0  -0.064217  -0.062659  0  3.912699  0
C  C67  1  0.66756196  0.63104683  0.45873752  1  0  -0.030781  0  3.666478  0  0  -0.060752  0  3.924221  0  0  -0.057337  0  3.940764  0  0  -0.06425  -0.062671  0  3.912594  0
C  C68  1  0.43812765  0.32562641  0.47083752  1  0  -0.029036  0  3.787043  0  0  -0.01471  0  4.022743  0  0  -0.017976  0  4.046393  0  0  0.002099  -0.012389  0  4.006101  0
C  C69  1  0.56187271  0.67436909  0.52916089  1  0  -0.02906  0  3.78766  0  0  -0.014745  0  4.023252  0  0  -0.018009  0  4.046901  0  0  0.002105  -0.01242  0  4.006612  0
C  C70  1  0.44181751  0.36604520  0.37056520  1  0  0.127693  0  3.757031  0  0  0.120065  0  3.998109  0  0  0.124804  0  4.020791  0  0  0.11918  0.117079  0  3.982211  0
C  C71  1  0.55818194  0.63395127  0.62942948  1  0  0.12776  0  3.757009  0  0  0.120204  0  3.99796  0  0  0.124952  0  4.020618  0  0  0.119239  0.117207  0  3.982076  0
C  C72  1  0.55069762  0.32623618  0.29537722  1  0  0.125155  0  3.767113  0  0  0.114479  0  4.014783  0  0  0.118424  0  4.037593  0  0  0.116046  0.111716  0  3.999114  0
C  C73  1  0.44930268  0.67376533  0.70462123  1  0  0.125123  0  3.767051  0  0  0.114406  0  4.014743  0  0  0.118348  0  4.037559  0  0  0.11602  0.111642  0  3.999074  0
C  C74  1  0.64961570  0.33540150  0.13180634  1  0  0.137559  0  3.700099  0  0  0.104959  0  3.953758  0  0  0.113221  0  3.969401  0  0  0.052586  0.099295  0  3.943255  0
C  C75  1  0.35038585  0.66460099  0.86819071  1  0  0.137733  0  3.700224  0  0  0.105118  0  3.953864  0  0  0.113378  0  3.96951  0  0  0.052665  0.099458  0  3.943366  0
C  C76  1  0.74972068  0.24977165  0.14738798  1  0  -0.115765  0  3.740946  0  0  -0.1252  0  3.988179  0  0  -0.131269  0  4.007683  0  0  -0.084525  -0.12138  0  3.975087  0
C  C77  1  0.25028437  0.75022592  0.85261771  1  0  -0.115827  0  3.740877  0  0  -0.12527  0  3.988126  0  0  -0.131333  0  4.007624  0  0  -0.084545  -0.121466  0  3.975045  0
C  C78  1  0.75012103  0.20267116  0.24110956  1  0  -0.04604  0  3.701719  0  0  -0.070571  0  3.947042  0  0  -0.068548  0  3.965348  0  0  -0.067834  -0.072001  0  3.93465  0
C  C79  1  0.24988070  0.79733236  0.75888995  1  0  -0.046189  0  3.701521  0  0  -0.070705  0  3.946846  0  0  -0.068683  0  3.96515  0  0  -0.067845  -0.072125  0  3.934441  0
C  C80  1  0.65022200  0.24073158  0.31813080  1  0  -0.024981  0  3.793654  0  0  -0.013798  0  4.028759  0  0  -0.016305  0  4.052267  0  0  -0.000614  -0.0118  0  4.013473  0
C  C81  1  0.34978231  0.75926794  0.68186742  1  0  -0.024826  0  3.793519  0  0  -0.013681  0  4.028701  0  0  -0.016189  0  4.05221  0  0  -0.000608  -0.011679  0  4.013402  0
C  C82  1  0.64258161  0.19883059  0.41780948  1  0  0.093369  0  3.86896  0  0  0.088487  0  4.128584  0  0  0.08956  0  4.152696  0  0  0.083224  0.086937  0  4.114086  0
C  C83  1  0.35741943  0.80116891  0.58218794  1  0  0.09336  0  3.869053  0  0  0.088434  0  4.128687  0  0  0.089509  0  4.152802  0  0  0.083286  0.086885  0  4.114186  0
C  C84  1  0.54198891  0.24307456  0.49130070  1  0  0.110497  0  3.792902  0  0  0.089154  0  4.051179  0  0  0.092  0  4.075102  0  0  0.093046  0.086944  0  4.034895  0
C  C85  1  0.45801163  0.75692199  0.50870404  1  0  0.110445  0  3.792729  0  0  0.089178  0  4.050842  0  0  0.092022  0  4.074763  0  0  0.093039  0.086968  0  4.034561  0
C  C86  1  0.67587137  0.11074831  0.55376514  1  0  0.340214  0  3.744642  0  0  0.309083  0  4.017316  0  0  0.323366  0  4.031387  0  0  0.220439  0.300052  0  4.006741  0
C  C87  1  0.32412448  0.88924622  0.44623929  1  0  0.340239  0  3.745066  0  0  0.309222  0  4.017638  0  0  0.323507  0  4.031708  0  0  0.220395  0.300176  0  4.007086  0
C  C88  1  0.72768478  0.02947808  0.62397712  1  0  -0.002105  0  3.788526  0  0  0.016858  0  4.02394  0  0  0.015015  0  4.046131  0  0  -0.001683  0.018087  0  4.008384  0
C  C89  1  0.27231301  0.97052140  0.37601949  1  0  -0.001944  0  3.788406  0  0  0.016805  0  4.024052  0  0  0.014963  0  4.046242  0  0  -0.001665  0.018041  0  4.008501  0
C  C90  1  0.83885185  0.95365816  0.59090565  1  0  -0.080515  0  3.700046  0  0  -0.102967  0  3.944504  0  0  -0.104362  0  3.964543  0  0  -0.080735  -0.101018  0  3.930131  0
C  C91  1  0.16114417  0.04633734  0.40909505  1  0  -0.080536  0  3.700009  0  0  -0.102946  0  3.9445  0  0  -0.10434  0  3.964533  0  0  -0.080701  -0.101  0  3.930124  0
C  C92  1  0.88983661  0.87365803  0.65515753  1  0  -0.07327  0  3.79153  0  0  -0.085087  0  4.044558  0  0  -0.08735  0  4.066628  0  0  -0.090893  -0.084026  0  4.029163  0
C  C93  1  0.11016101  0.12634047  0.34484049  1  0  -0.073306  0  3.791574  0  0  -0.085118  0  4.044591  0  0  -0.087381  0  4.066661  0  0  -0.090895  -0.084043  0  4.029197  0
C  C94  1  0.83022919  0.86744694  0.75349753  1  0  -0.083235  0  3.78812  0  0  -0.102432  0  4.045381  0  0  -0.104241  0  4.067834  0  0  -0.094844  -0.099776  0  4.028407  0
C  C95  1  0.16976677  0.13255455  0.24650166  1  0  -0.083299  0  3.788472  0  0  -0.102476  0  4.045711  0  0  -0.104285  0  4.068171  0  0  -0.09493  -0.09982  0  4.02873  0
C  C96  1  0.71860246  0.94143678  0.78666125  1  0  -0.073198  0  3.783627  0  0  -0.086624  0  4.039127  0  0  -0.088624  0  4.060186  0  0  -0.093712  -0.085314  0  4.024812  0
C  C97  1  0.28139224  0.05856373  0.21334089  1  0  -0.073238  0  3.783601  0  0  -0.086625  0  4.039067  0  0  -0.088641  0  4.06012  0  0  -0.093703  -0.085314  0  4.02476  0
C  C98  1  0.66770209  0.02205233  0.72264263  1  0  -0.082996  0  3.703609  0  0  -0.110289  0  3.960357  0  0  -0.1113  0  3.97999  0  0  -0.085436  -0.110278  0  3.947798  0
C  C99  1  0.33229661  0.97794619  0.27735927  1  0  -0.083032  0  3.703594  0  0  -0.110305  0  3.960396  0  0  -0.111318  0  3.980038  0  0  -0.085401  -0.110296  0  3.947843  0
N  N100  1  0.55383835  0.37201831  0.20328388  1  0  -0.363998  0  3.235446  0  0  -0.298483  0  3.492899  0  0  -0.316583  0  3.513935  0  0  -0.301165  -0.286089  0  3.478744  0
N  N101  1  0.44616578  0.62798022  0.79671652  1  0  -0.364117  0  3.235417  0  0  -0.298597  0  3.492889  0  0  -0.316699  0  3.513929  0  0  -0.30121  -0.286201  0  3.478728  0
N  N102  1  0.34474603  0.44184538  0.34290505  1  0  -0.352131  0  3.208437  0  0  -0.285099  0  3.465767  0  0  -0.303787  0  3.486941  0  0  -0.294114  -0.272205  0  3.45047  0
N  N103  1  0.65525325  0.55815012  0.65709258  1  0  -0.352153  0  3.208295  0  0  -0.285138  0  3.465601  0  0  -0.303827  0  3.486777  0  0  -0.294131  -0.272242  0  3.450304  0
N  N104  1  0.72473363  0.11686340  0.45732894  1  0  -0.43366  0  2.938449  0  0  -0.407295  0  3.210062  0  0  -0.421255  0  3.224426  0  0  -0.334856  -0.398423  0  3.200851  0
N  N105  1  0.27526959  0.88313611  0.54266849  1  0  -0.433624  0  2.938918  0  0  -0.407293  0  3.210516  0  0  -0.421255  0  3.224882  0  0  -0.334873  -0.398413  0  3.201305  0
N  N106  1  0.56515289  0.18612341  0.57717541  1  0  -0.363791  0  3.334688  0  0  -0.305258  0  3.571822  0  0  -0.323051  0  3.584603  0  0  -0.370308  -0.29256  0  3.562019  0
N  N107  1  0.43483689  0.81388006  0.42282399  1  0  -0.363938  0  3.334387  0  0  -0.305383  0  3.57139  0  0  -0.323177  0  3.584166  0  0  -0.370321  -0.292679  0  3.561598  0
O  O108  1  0.14039966  0.61246834  0.23682820  1  0  -0.657473  0  1.947606  0  0  -0.594935  0  2.180074  0  0  -0.623163  0  2.172549  0  0  -0.324492  -0.574598  0  2.183802  0
O  O109  1  0.85960407  0.38753419  0.76317196  1  0  -0.657542  0  1.947564  0  0  -0.594995  0  2.180022  0  0  -0.623233  0  2.172492  0  0  -0.324486  -0.574658  0  2.183732  0
O  O110  1  0.20635977  0.67447295  0.08396005  1  0  -0.656586  0  1.922172  0  0  -0.596999  0  2.150178  0  0  -0.625541  0  2.144235  0  0  -0.324889  -0.576462  0  2.153517  0
O  O111  1  0.79364162  0.32552857  0.91603919  1  0  -0.656611  0  1.922438  0  0  -0.597022  0  2.150409  0  0  -0.62556  0  2.144468  0  0  -0.324927  -0.57649  0  2.153751  0
O  O112  1  0.56098003  0.62398619  0.06546882  1  0  -0.632214  0  2.004534  0  0  -0.558978  0  2.24195  0  0  -0.589668  0  2.237925  0  0  -0.283174  -0.536961  0  2.244051  0
O  O113  1  0.43901799  0.37600832  0.93453176  1  0  -0.632088  0  2.004853  0  0  -0.558905  0  2.242303  0  0  -0.589584  0  2.238262  0  0  -0.283131  -0.536885  0  2.244406  0
O  O114  1  0.50542228  0.68835691  0.23121204  1  0  -0.640143  0  2.021194  0  0  -0.565173  0  2.262854  0  0  -0.594784  0  2.254945  0  0  -0.295815  -0.544324  0  2.268199  0
O  O115  1  0.49457625  0.31164060  0.76878740  1  0  -0.640139  0  2.021103  0  0  -0.565178  0  2.262736  0  0  -0.594795  0  2.254829  0  0  -0.295828  -0.544328  0  2.268082  0
