# generated using pymatgen
data_MgH4(C2O3)2
_symmetry_space_group_name_H-M   'P 1'
_cell_length_a   4.95485611
_cell_length_b   7.80978348
_cell_length_c   7.80974008
_cell_angle_alpha   73.02523761
_cell_angle_beta   71.51345943
_cell_angle_gamma   71.51299158
_symmetry_Int_Tables_number   1
_chemical_formula_structural   MgH4(C2O3)2
_chemical_formula_sum   'Mg2 H8 C8 O12'
_cell_volume   265.59732307
_cell_formula_units_Z   2
loop_
 _symmetry_equiv_pos_site_id
 _symmetry_equiv_pos_as_xyz
  1  'x, y, z'
loop_
 _atom_site_type_symbol
 _atom_site_label
 _atom_site_symmetry_multiplicity
 _atom_site_fract_x
 _atom_site_fract_y
 _atom_site_fract_z
 _atom_site_occupancy
 _atom_site_hle17_bader_spin_density
 _atom_site_hle17_ddec_charge
 _atom_site_hle17_ddec_spin_density
 _atom_site_hle17_ddec_sum_bond_order
 _atom_site_hle17_magmom
 _atom_site_hse06_10hf_bader_spin_density
 _atom_site_hse06_10hf_ddec_charge
 _atom_site_hse06_10hf_ddec_spin_density
 _atom_site_hse06_10hf_ddec_sum_bond_order
 _atom_site_hse06_10hf_magmom
 _atom_site_hse06_bader_spin_density
 _atom_site_hse06_ddec_charge
 _atom_site_hse06_ddec_spin_density
 _atom_site_hse06_ddec_sum_bond_order
 _atom_site_hse06_magmom
 _atom_site_pbe_bader_spin_density
 _atom_site_pbe_cm5_charge
 _atom_site_pbe_ddec_charge
 _atom_site_pbe_ddec_spin_density
 _atom_site_pbe_ddec_sum_bond_order
 _atom_site_pbe_magmom
Mg  Mg0  1  0.28795890  0.71200565  0.71203086  1  0  1.465874  0  1.146069  0  0  1.351811  0  1.405797  0  0  1.376498  0  1.369671  0  0  0.824033  1.334432  0  1.430956  0
Mg  Mg1  1  0.71204765  0.28797093  0.28799295  1  0  1.465882  0  1.146078  0  0  1.351915  0  1.405682  0  0  1.376599  0  1.369556  0  0  0.824045  1.334539  0  1.430844  0
H  H2  1  0.60136782  0.93808001  0.21437126  1  0  0.102231  0  0.923204  0  0  0.104857  0  0.990784  0  0  0.108069  0  0.9884  0  0  0.127589  0.102519  0  0.992657  0
H  H3  1  0.24619498  0.21425917  0.93787802  1  0  0.10217  0  0.922914  0  0  0.104222  0  0.991272  0  0  0.107428  0  0.988855  0  0  0.127586  0.101899  0  0.993121  0
H  H4  1  0.39863484  0.78563358  0.06191640  1  0  0.102242  0  0.923093  0  0  0.104897  0  0.990665  0  0  0.10811  0  0.988282  0  0  0.127591  0.102556  0  0.99254  0
H  H5  1  0.75378741  0.06212477  0.78574449  1  0  0.102174  0  0.922912  0  0  0.104207  0  0.991286  0  0  0.107413  0  0.988873  0  0  0.127578  0.101885  0  0.993133  0
H  H6  1  0.75931733  0.77747662  0.46188031  1  0  0.393663  0  0.872078  0  0  0.367651  0  0.942619  0  0  0.377615  0  0.93156  0  0  0.316863  0.360627  0  0.950443  0
H  H7  1  0.00135823  0.46181545  0.77746436  1  0  0.393773  0  0.871346  0  0  0.367212  0  0.942681  0  0  0.377128  0  0.931689  0  0  0.317061  0.3602  0  0.950494  0
H  H8  1  0.24068300  0.53812395  0.22252160  1  0  0.393708  0  0.872027  0  0  0.367698  0  0.942569  0  0  0.377662  0  0.93151  0  0  0.316872  0.360672  0  0.950402  0
H  H9  1  0.99863967  0.22253586  0.53818689  1  0  0.393792  0  0.871314  0  0  0.367237  0  0.942647  0  0  0.377152  0  0.931654  0  0  0.317085  0.360218  0  0.950473  0
C  C10  1  0.16258298  0.92068197  0.36382934  1  0  0.680802  0  3.856029  0  0  0.617614  0  4.174465  0  0  0.651871  0  4.162473  0  0  0.224394  0.594346  0  4.182045  0
C  C11  1  0.55274524  0.36388039  0.92074516  1  0  0.680924  0  3.859082  0  0  0.61844  0  4.176407  0  0  0.652633  0  4.164448  0  0  0.225288  0.595172  0  4.18401  0
C  C12  1  0.83741721  0.63616091  0.07933085  1  0  0.680766  0  3.855746  0  0  0.617681  0  4.174047  0  0  0.651939  0  4.162051  0  0  0.224407  0.594409  0  4.181623  0
C  C13  1  0.44724141  0.07924679  0.63611886  1  0  0.680742  0  3.859534  0  0  0.618267  0  4.17683  0  0  0.65246  0  4.164877  0  0  0.225306  0.59501  0  4.184425  0
C  C14  1  0.48684991  0.82995773  0.29705705  1  0  0.058804  0  3.578527  0  0  0.030818  0  3.831512  0  0  0.031669  0  3.837398  0  0  0.001497  0.030042  0  3.827935  0
C  C15  1  0.38607485  0.29707447  0.82989336  1  0  0.05916  0  3.579327  0  0  0.031059  0  3.832383  0  0  0.032027  0  3.837988  0  0  0.001392  0.030262  0  3.828849  0
C  C16  1  0.51315966  0.70294092  0.17004221  1  0  0.058886  0  3.578348  0  0  0.030763  0  3.831472  0  0  0.031615  0  3.837354  0  0  0.00149  0.030001  0  3.827882  0
C  C17  1  0.61391817  0.17010719  0.70292436  1  0  0.059204  0  3.579077  0  0  0.031179  0  3.83204  0  0  0.03213  0  3.837679  0  0  0.001437  0.030365  0  3.828509  0
O  O18  1  0.02661020  0.84750847  0.52470893  1  0  -0.709464  0  2.018871  0  0  -0.642536  0  2.25561  0  0  -0.666445  0  2.24257  0  0  -0.338894  -0.625964  0  2.26419  0
O  O19  1  0.60106566  0.52474518  0.84756614  1  0  -0.70902  0  2.018347  0  0  -0.642186  0  2.254783  0  0  -0.665991  0  2.241864  0  0  -0.339018  -0.625633  0  2.263268  0
O  O20  1  0.97339127  0.47529232  0.15249102  1  0  -0.709413  0  2.019116  0  0  -0.642491  0  2.255765  0  0  -0.666396  0  2.242724  0  0  -0.338871  -0.625951  0  2.264414  0
O  O21  1  0.39893121  0.15243998  0.47524439  1  0  -0.709047  0  2.018257  0  0  -0.642253  0  2.254702  0  0  -0.666061  0  2.241788  0  0  -0.339064  -0.625703  0  2.263191  0
O  O22  1  0.04512054  0.05453946  0.25354471  1  0  -0.671832  0  2.017993  0  0  -0.618291  0  2.274124  0  0  -0.64112  0  2.261101  0  0  -0.341334  -0.602475  0  2.282668  0
O  O23  1  0.64639003  0.25363099  0.05473215  1  0  -0.672202  0  2.020349  0  0  -0.619226  0  2.276431  0  0  -0.642103  0  2.263488  0  0  -0.341987  -0.603381  0  2.284955  0
O  O24  1  0.95489477  0.74645975  0.94545374  1  0  -0.671932  0  2.017419  0  0  -0.618428  0  2.273534  0  0  -0.641263  0  2.260512  0  0  -0.341374  -0.602604  0  2.28207  0
O  O25  1  0.35361865  0.94527805  0.74635273  1  0  -0.671944  0  2.021012  0  0  -0.618946  0  2.277072  0  0  -0.641819  0  2.264135  0  0  -0.34191  -0.603105  0  2.285587  0
O  O26  1  0.60682013  0.72554051  0.45292329  1  0  -0.587066  0  2.124243  0  0  -0.535924  0  2.358015  0  0  -0.549784  0  2.344187  0  0  -0.402136  -0.526264  0  2.367643  0
O  O27  1  0.21467185  0.45292216  0.72551421  1  0  -0.587895  0  2.126211  0  0  -0.535603  0  2.359908  0  0  -0.549569  0  2.346295  0  0  -0.40238  -0.525855  0  2.369356  0
O  O28  1  0.39318699  0.54707830  0.27445790  1  0  -0.587093  0  2.124138  0  0  -0.535986  0  2.357987  0  0  -0.549849  0  2.34416  0  0  -0.402134  -0.526323  0  2.367621  0
O  O29  1  0.78532573  0.27449100  0.54708079  1  0  -0.587886  0  2.126054  0  0  -0.535659  0  2.359754  0  0  -0.549617  0  2.346139  0  0  -0.40241  -0.525894  0  2.369206  0
