# generated using pymatgen
data_SrH12C8O9
_symmetry_space_group_name_H-M   'P 1'
_cell_length_a   7.07227273
_cell_length_b   9.42252001
_cell_length_c   18.73677695
_cell_angle_alpha   90.00016483
_cell_angle_beta   90.00009719
_cell_angle_gamma   99.44568359
_symmetry_Int_Tables_number   1
_chemical_formula_structural   SrH12C8O9
_chemical_formula_sum   'Sr4 H48 C32 O36'
_cell_volume   1231.66427521
_cell_formula_units_Z   4
loop_
 _symmetry_equiv_pos_site_id
 _symmetry_equiv_pos_as_xyz
  1  'x, y, z'
loop_
 _atom_site_type_symbol
 _atom_site_label
 _atom_site_symmetry_multiplicity
 _atom_site_fract_x
 _atom_site_fract_y
 _atom_site_fract_z
 _atom_site_occupancy
 _atom_site_hle17_bader_spin_density
 _atom_site_hle17_ddec_charge
 _atom_site_hle17_ddec_spin_density
 _atom_site_hle17_ddec_sum_bond_order
 _atom_site_hle17_magmom
 _atom_site_hse06_10hf_bader_spin_density
 _atom_site_hse06_10hf_ddec_charge
 _atom_site_hse06_10hf_ddec_spin_density
 _atom_site_hse06_10hf_ddec_sum_bond_order
 _atom_site_hse06_10hf_magmom
 _atom_site_hse06_bader_spin_density
 _atom_site_hse06_ddec_charge
 _atom_site_hse06_ddec_spin_density
 _atom_site_hse06_ddec_sum_bond_order
 _atom_site_hse06_magmom
 _atom_site_pbe_bader_spin_density
 _atom_site_pbe_cm5_charge
 _atom_site_pbe_ddec_charge
 _atom_site_pbe_ddec_spin_density
 _atom_site_pbe_ddec_sum_bond_order
 _atom_site_pbe_magmom
Sr  Sr0  1  0.48584916  0.28948192  0.03789482  1  0  1.600537  0  1.092922  0  0  1.459929  0  1.457447  0  0  1.497761  0  1.411548  0  0  0.924045  1.432049  0  1.490073  0
Sr  Sr1  1  0.01415049  0.71051818  0.53789399  1  0  1.600531  0  1.092912  0  0  1.459935  0  1.457423  0  0  1.497759  0  1.411529  0  0  0.924044  1.432059  0  1.490047  0
Sr  Sr2  1  0.51415099  0.71052037  0.96210638  1  0  1.600534  0  1.092897  0  0  1.459929  0  1.457412  0  0  1.497754  0  1.411519  0  0  0.924046  1.432054  0  1.49004  0
Sr  Sr3  1  0.98584720  0.28947983  0.46210508  1  0  1.600539  0  1.092892  0  0  1.459928  0  1.457432  0  0  1.497758  0  1.411533  0  0  0.924039  1.432041  0  1.490059  0
H  H4  1  0.20425326  0.43035738  0.12535651  1  0  0.424859  0  0.869714  0  0  0.397202  0  0.92848  0  0  0.407103  0  0.913887  0  0  0.3011  0.39024  0  0.938756  0
H  H5  1  0.29574179  0.56964552  0.62535672  1  0  0.424725  0  0.869907  0  0  0.397114  0  0.928583  0  0  0.407015  0  0.913992  0  0  0.301074  0.390151  0  0.93886  0
H  H6  1  0.79574266  0.56964498  0.87464309  1  0  0.424641  0  0.869995  0  0  0.397029  0  0.928676  0  0  0.406929  0  0.914086  0  0  0.301036  0.390066  0  0.938953  0
H  H7  1  0.70425360  0.43035468  0.37464287  1  0  0.424751  0  0.869872  0  0  0.397133  0  0.928563  0  0  0.407034  0  0.913971  0  0  0.301059  0.390171  0  0.938838  0
H  H8  1  0.07008854  0.32606331  0.07692170  1  0  0.430484  0  0.866728  0  0  0.403467  0  0.923388  0  0  0.413879  0  0.908171  0  0  0.294281  0.39611  0  0.934117  0
H  H9  1  0.42990826  0.67393601  0.57692108  1  0  0.430476  0  0.866745  0  0  0.403454  0  0.923414  0  0  0.413867  0  0.908195  0  0  0.294295  0.396097  0  0.93414  0
H  H10  1  0.92990879  0.67393903  0.92307896  1  0  0.430384  0  0.866852  0  0  0.403349  0  0.923547  0  0  0.413763  0  0.908327  0  0  0.294248  0.395992  0  0.934274  0
H  H11  1  0.57008828  0.32606309  0.42307852  1  0  0.430484  0  0.866728  0  0  0.403454  0  0.923411  0  0  0.413867  0  0.908193  0  0  0.29428  0.396096  0  0.934141  0
H  H12  1  0.75712705  0.08504276  0.11178847  1  0  0.420877  0  0.873499  0  0  0.392206  0  0.93227  0  0  0.402043  0  0.91784  0  0  0.306619  0.38529  0  0.942387  0
H  H13  1  0.74287125  0.91495838  0.61178808  1  0  0.420888  0  0.873485  0  0  0.39221  0  0.932253  0  0  0.402046  0  0.917826  0  0  0.306626  0.385297  0  0.942367  0
H  H14  1  0.24287195  0.91496063  0.88821219  1  0  0.42089  0  0.873491  0  0  0.392208  0  0.932267  0  0  0.402045  0  0.917837  0  0  0.306596  0.385296  0  0.942378  0
H  H15  1  0.25712643  0.08503963  0.38821099  1  0  0.420916  0  0.873464  0  0  0.392248  0  0.932215  0  0  0.402085  0  0.917785  0  0  0.306631  0.385336  0  0.942326  0
H  H16  1  0.55584612  0.98226588  0.09518801  1  0  0.427892  0  0.884349  0  0  0.393504  0  0.954412  0  0  0.405112  0  0.937632  0  0  0.294721  0.385276  0  0.966286  0
H  H17  1  0.94414901  0.01773411  0.59518806  1  0  0.427857  0  0.884405  0  0  0.393463  0  0.95448  0  0  0.405071  0  0.937699  0  0  0.294692  0.385233  0  0.966356  0
H  H18  1  0.44415121  0.01773645  0.90481159  1  0  0.427897  0  0.884352  0  0  0.393509  0  0.95441  0  0  0.405118  0  0.937628  0  0  0.294715  0.385279  0  0.966288  0
H  H19  1  0.05584842  0.98226282  0.40481208  1  0  0.427873  0  0.884377  0  0  0.393481  0  0.954448  0  0  0.405089  0  0.937667  0  0  0.294687  0.385252  0  0.966322  0
H  H20  1  0.85840215  0.45359198  0.03867427  1  0  0.406938  0  0.881768  0  0  0.381999  0  0.950309  0  0  0.39101  0  0.938841  0  0  0.307028  0.375592  0  0.957513  0
H  H21  1  0.64159176  0.54640982  0.53867382  1  0  0.406901  0  0.881852  0  0  0.382007  0  0.950335  0  0  0.39102  0  0.938838  0  0  0.307013  0.375599  0  0.957545  0
H  H22  1  0.14159263  0.54641147  0.96132533  1  0  0.406941  0  0.881789  0  0  0.382056  0  0.950246  0  0  0.391071  0  0.938758  0  0  0.307039  0.375647  0  0.957454  0
H  H23  1  0.35840223  0.45359040  0.46132631  1  0  0.406796  0  0.881947  0  0  0.381901  0  0.950431  0  0  0.390914  0  0.938976  0  0  0.306987  0.375495  0  0.957636  0
H  H24  1  0.85905987  0.35512058  0.97234172  1  0  0.411225  0  0.905462  0  0  0.377941  0  0.973835  0  0  0.38971  0  0.956777  0  0  0.292287  0.369652  0  0.985834  0
H  H25  1  0.64093803  0.64488401  0.47234231  1  0  0.411182  0  0.905533  0  0  0.377958  0  0.973791  0  0  0.389726  0  0.956737  0  0  0.292288  0.36967  0  0.985791  0
H  H26  1  0.14093772  0.64488283  0.02765788  1  0  0.411292  0  0.905371  0  0  0.377997  0  0.973763  0  0  0.38977  0  0.956698  0  0  0.292299  0.369708  0  0.985761  0
H  H27  1  0.35905763  0.35511726  0.52765782  1  0  0.411229  0  0.905462  0  0  0.377939  0  0.973844  0  0  0.389712  0  0.956781  0  0  0.2923  0.36965  0  0.985844  0
H  H28  1  0.44446758  0.88192666  0.68335843  1  0  0.410764  0  0.795545  0  0  0.393868  0  0.846152  0  0  0.402841  0  0.836187  0  0  0.347717  0.387379  0  0.853479  0
H  H29  1  0.05553266  0.11807331  0.18335875  1  0  0.410749  0  0.795574  0  0  0.393864  0  0.84617  0  0  0.402836  0  0.836206  0  0  0.347701  0.387371  0  0.853502  0
H  H30  1  0.55553099  0.11806918  0.31664383  1  0  0.410846  0  0.795502  0  0  0.393954  0  0.846105  0  0  0.402928  0  0.836137  0  0  0.347771  0.387464  0  0.853435  0
H  H31  1  0.94447004  0.88192787  0.81664352  1  0  0.410808  0  0.795546  0  0  0.393905  0  0.846158  0  0  0.402879  0  0.836191  0  0  0.347745  0.387415  0  0.853487  0
H  H32  1  0.64918763  0.18590945  0.58460355  1  0  0.124995  0  0.955325  0  0  0.132895  0  1.020923  0  0  0.137422  0  1.01687  0  0  0.117726  0.129606  0  1.023904  0
H  H33  1  0.85081113  0.81408826  0.08460505  1  0  0.125024  0  0.955314  0  0  0.132941  0  1.020904  0  0  0.13747  0  1.016852  0  0  0.117736  0.129647  0  1.023896  0
H  H34  1  0.35080618  0.81408429  0.41539658  1  0  0.124979  0  0.955289  0  0  0.132884  0  1.020902  0  0  0.137412  0  1.01685  0  0  0.117712  0.129588  0  1.023897  0
H  H35  1  0.14919862  0.18591281  0.91539561  1  0  0.124992  0  0.955304  0  0  0.132914  0  1.020903  0  0  0.137441  0  1.016851  0  0  0.117727  0.129623  0  1.023885  0
H  H36  1  0.81965103  0.44758257  0.76864185  1  0  0.114904  0  0.947439  0  0  0.121359  0  1.013305  0  0  0.126103  0  1.008875  0  0  0.111124  0.117775  0  1.016841  0
H  H37  1  0.68034821  0.55241959  0.26864447  1  0  0.114793  0  0.947487  0  0  0.121287  0  1.013318  0  0  0.126037  0  1.008887  0  0  0.111092  0.1177  0  1.016859  0
H  H38  1  0.18034885  0.55241865  0.23135508  1  0  0.114848  0  0.947507  0  0  0.121318  0  1.013355  0  0  0.126058  0  1.008935  0  0  0.111107  0.117733  0  1.016889  0
H  H39  1  0.31965617  0.44758264  0.73135566  1  0  0.114839  0  0.94745  0  0  0.121298  0  1.013321  0  0  0.126037  0  1.0089  0  0  0.111089  0.117716  0  1.016861  0
H  H40  1  0.52335100  0.01177685  0.79532373  1  0  0.109828  0  0.964046  0  0  0.119137  0  1.029512  0  0  0.123616  0  1.025482  0  0  0.108574  0.115811  0  1.032603  0
H  H41  1  0.97665518  0.98822429  0.29532503  1  0  0.109802  0  0.963952  0  0  0.119126  0  1.029405  0  0  0.123602  0  1.025382  0  0  0.108581  0.115787  0  1.032511  0
H  H42  1  0.47665170  0.98822432  0.20467801  1  0  0.109814  0  0.964062  0  0  0.119107  0  1.029546  0  0  0.123604  0  1.0255  0  0  0.108553  0.11579  0  1.032618  0
H  H43  1  0.02335457  0.01177678  0.70467671  1  0  0.109818  0  0.964083  0  0  0.119125  0  1.029543  0  0  0.123612  0  1.025506  0  0  0.108556  0.115793  0  1.03264  0
H  H44  1  0.13816814  0.04070604  0.06498564  1  0  0.427341  0  0.864308  0  0  0.397239  0  0.925307  0  0  0.407282  0  0.910602  0  0  0.306148  0.390101  0  0.935752  0
H  H45  1  0.36183167  0.95929423  0.56498485  1  0  0.427371  0  0.864267  0  0  0.397262  0  0.925277  0  0  0.407305  0  0.910572  0  0  0.306163  0.390119  0  0.935731  0
H  H46  1  0.86183175  0.95929517  0.93501556  1  0  0.427393  0  0.864238  0  0  0.397288  0  0.92524  0  0  0.407331  0  0.910535  0  0  0.306179  0.390145  0  0.935694  0
H  H47  1  0.63816602  0.04070378  0.43501475  1  0  0.427367  0  0.864271  0  0  0.397253  0  0.925293  0  0  0.407298  0  0.910586  0  0  0.306154  0.390113  0  0.93574  0
H  H48  1  0.25343755  0.98746037  0.00009152  1  0  0.426845  0  0.860319  0  0  0.398724  0  0.924171  0  0  0.40933  0  0.908473  0  0  0.308651  0.391168  0  0.935359  0
H  H49  1  0.24656010  0.01254382  0.50009250  1  0  0.426804  0  0.860376  0  0  0.398687  0  0.92422  0  0  0.409294  0  0.90852  0  0  0.308626  0.391129  0  0.93541  0
H  H50  1  0.74655978  0.01254196  0.99990808  1  0  0.426838  0  0.860304  0  0  0.398697  0  0.924215  0  0  0.409305  0  0.908515  0  0  0.308619  0.391137  0  0.935411  0
H  H51  1  0.75343864  0.98745849  0.49990870  1  0  0.426851  0  0.860275  0  0  0.39871  0  0.924195  0  0  0.409318  0  0.908495  0  0  0.308626  0.391149  0  0.935391  0
C  C52  1  0.68224150  0.25818041  0.86988801  1  0  0.661154  0  3.890091  0  0  0.606756  0  4.188813  0  0  0.640202  0  4.18185  0  0  0.22052  0.584223  0  4.192681  0
C  C53  1  0.81776116  0.74182236  0.36988938  1  0  0.661173  0  3.890138  0  0  0.606806  0  4.18882  0  0  0.640249  0  4.181863  0  0  0.220527  0.584279  0  4.192684  0
C  C54  1  0.31775865  0.74182188  0.13011159  1  0  0.661146  0  3.890148  0  0  0.60676  0  4.188848  0  0  0.640204  0  4.181889  0  0  0.220506  0.584232  0  4.192704  0
C  C55  1  0.18223960  0.25817668  0.63011128  1  0  0.661232  0  3.890264  0  0  0.606817  0  4.188997  0  0  0.640261  0  4.182038  0  0  0.220561  0.584286  0  4.192865  0
C  C56  1  0.83374645  0.45200080  0.62577951  1  0  0.657341  0  3.917808  0  0  0.610683  0  4.205381  0  0  0.643861  0  4.198023  0  0  0.20818  0.588203  0  4.209703  0
C  C57  1  0.66625308  0.54799933  0.12578211  1  0  0.657276  0  3.918107  0  0  0.610612  0  4.205698  0  0  0.643782  0  4.19835  0  0  0.208123  0.58815  0  4.209995  0
C  C58  1  0.16625212  0.54799503  0.37421742  1  0  0.657436  0  3.917924  0  0  0.610692  0  4.205602  0  0  0.643864  0  4.198249  0  0  0.208125  0.588212  0  4.209929  0
C  C59  1  0.33374680  0.45200189  0.87421909  1  0  0.657269  0  3.918045  0  0  0.610594  0  4.205645  0  0  0.643771  0  4.198289  0  0  0.208102  0.588104  0  4.209976  0
C  C60  1  0.74245967  0.33012391  0.67221427  1  0  -0.038789  0  3.751283  0  0  -0.014793  0  3.989262  0  0  -0.02182  0  4.01106  0  0  -0.012102  -0.010501  0  3.974648  0
C  C61  1  0.75754217  0.66987326  0.17221551  1  0  -0.03872  0  3.751194  0  0  -0.014716  0  3.989228  0  0  -0.021725  0  4.011024  0  0  -0.012149  -0.010439  0  3.974603  0
C  C62  1  0.25754005  0.66987083  0.32778479  1  0  -0.038822  0  3.751302  0  0  -0.014753  0  3.989281  0  0  -0.021756  0  4.011065  0  0  -0.012176  -0.010474  0  3.974666  0
C  C63  1  0.24246361  0.33012895  0.82778516  1  0  -0.038697  0  3.751209  0  0  -0.014696  0  3.989249  0  0  -0.021709  0  4.011039  0  0  -0.01215  -0.010401  0  3.974633  0
C  C64  1  0.57940321  0.08655273  0.68697058  1  0  0.299109  0  3.811142  0  0  0.289844  0  4.085539  0  0  0.296766  0  4.103579  0  0  0.071784  0.284773  0  4.073187  0
C  C65  1  0.92059669  0.91344780  0.18697227  1  0  0.299034  0  3.811373  0  0  0.289786  0  4.085787  0  0  0.296714  0  4.103828  0  0  0.071741  0.284713  0  4.073426  0
C  C66  1  0.42060293  0.91344515  0.31303062  1  0  0.29911  0  3.811244  0  0  0.289854  0  4.085678  0  0  0.296779  0  4.103729  0  0  0.071779  0.284781  0  4.073318  0
C  C67  1  0.07940231  0.08655559  0.81303053  1  0  0.299214  0  3.811046  0  0  0.289945  0  4.085483  0  0  0.296872  0  4.103524  0  0  0.07183  0.284877  0  4.073135  0
C  C68  1  0.65575849  0.19999870  0.64233281  1  0  -0.155125  0  3.667834  0  0  -0.193585  0  3.928399  0  0  -0.193952  0  3.944977  0  0  -0.085648  -0.192822  0  3.917071  0
C  C69  1  0.84424203  0.79999937  0.14233482  1  0  -0.155287  0  3.667913  0  0  -0.193795  0  3.928541  0  0  -0.194175  0  3.945123  0  0  -0.08573  -0.193046  0  3.917226  0
C  C70  1  0.34424519  0.79999491  0.35766625  1  0  -0.155144  0  3.667949  0  0  -0.193658  0  3.928569  0  0  -0.194038  0  3.945153  0  0  -0.085649  -0.192909  0  3.917255  0
C  C71  1  0.15575786  0.20000185  0.85766531  1  0  -0.155236  0  3.667899  0  0  -0.193764  0  3.928567  0  0  -0.19414  0  3.945146  0  0  -0.085692  -0.192999  0  3.917238  0
C  C72  1  0.74934076  0.34629973  0.74616404  1  0  -0.064951  0  3.684866  0  0  -0.106678  0  3.93875  0  0  -0.105373  0  3.957979  0  0  -0.074394  -0.107202  0  3.925693  0
C  C73  1  0.75066283  0.65370329  0.24616685  1  0  -0.064727  0  3.684956  0  0  -0.106498  0  3.938845  0  0  -0.105208  0  3.958073  0  0  -0.074308  -0.10703  0  3.92578  0
C  C74  1  0.25066115  0.65369822  0.25383396  1  0  -0.064901  0  3.684877  0  0  -0.106647  0  3.938748  0  0  -0.105348  0  3.957969  0  0  -0.074394  -0.107171  0  3.925677  0
C  C75  1  0.24934383  0.34629674  0.75383489  1  0  -0.064867  0  3.685039  0  0  -0.106584  0  3.938889  0  0  -0.105281  0  3.958117  0  0  -0.074332  -0.107112  0  3.925828  0
C  C76  1  0.58414597  0.10135040  0.76106392  1  0  -0.197924  0  3.724091  0  0  -0.233387  0  3.982694  0  0  -0.235197  0  4.001933  0  0  -0.097962  -0.231854  0  3.969636  0
C  C77  1  0.91585771  0.89865272  0.26106558  1  0  -0.197778  0  3.723889  0  0  -0.233248  0  3.982459  0  0  -0.235037  0  4.001656  0  0  -0.097919  -0.231718  0  3.969396  0
C  C78  1  0.41585762  0.89864860  0.23893675  1  0  -0.197936  0  3.723988  0  0  -0.233362  0  3.982578  0  0  -0.235177  0  4.001786  0  0  -0.097977  -0.231842  0  3.969485  0
C  C79  1  0.08414781  0.10134841  0.73893508  1  0  -0.197988  0  3.723914  0  0  -0.233437  0  3.9825  0  0  -0.235238  0  4.001703  0  0  -0.098009  -0.231901  0  3.96945  0
C  C80  1  0.66981826  0.23330242  0.79079007  1  0  -0.054112  0  3.77592  0  0  -0.027983  0  4.014477  0  0  -0.036172  0  4.039606  0  0  -0.017693  -0.022638  0  3.997264  0
C  C81  1  0.83018341  0.76669768  0.29079309  1  0  -0.054291  0  3.776194  0  0  -0.028148  0  4.014746  0  0  -0.036334  0  4.03988  0  0  -0.017732  -0.022805  0  3.997504  0
C  C82  1  0.33018277  0.76669770  0.20920793  1  0  -0.054086  0  3.776009  0  0  -0.027968  0  4.014582  0  0  -0.036154  0  4.039715  0  0  -0.017657  -0.022627  0  3.997344  0
C  C83  1  0.16982274  0.23330020  0.70920758  1  0  -0.054167  0  3.77614  0  0  -0.028019  0  4.014664  0  0  -0.036203  0  4.039788  0  0  -0.017669  -0.022677  0  3.997456  0
O  O84  1  0.58617916  0.16870337  0.91300258  1  0  -0.698576  0  2.016521  0  0  -0.631416  0  2.251593  0  0  -0.658636  0  2.242803  0  0  -0.337237  -0.612409  0  2.25718  0
O  O85  1  0.91382719  0.83129639  0.41300362  1  0  -0.698624  0  2.016588  0  0  -0.631443  0  2.25158  0  0  -0.658661  0  2.242786  0  0  -0.337285  -0.612455  0  2.257171  0
O  O86  1  0.41382239  0.83129890  0.08699808  1  0  -0.698634  0  2.016573  0  0  -0.631462  0  2.25161  0  0  -0.658682  0  2.242822  0  0  -0.337281  -0.612472  0  2.2572  0
O  O87  1  0.08617498  0.16870264  0.58699918  1  0  -0.69865  0  2.016717  0  0  -0.631491  0  2.251796  0  0  -0.658712  0  2.24301  0  0  -0.337312  -0.612483  0  2.257382  0
O  O88  1  0.79087778  0.37153130  0.89145106  1  0  -0.652447  0  2.013382  0  0  -0.59115  0  2.236482  0  0  -0.616899  0  2.22746  0  0  -0.303757  -0.573178  0  2.242144  0
O  O89  1  0.70912245  0.62847273  0.39145274  1  0  -0.652368  0  2.013346  0  0  -0.59111  0  2.236394  0  0  -0.616857  0  2.227375  0  0  -0.303719  -0.573157  0  2.242067  0
O  O90  1  0.20912403  0.62847205  0.10854747  1  0  -0.652454  0  2.013369  0  0  -0.591136  0  2.236463  0  0  -0.616888  0  2.227441  0  0  -0.303734  -0.573186  0  2.242147  0
O  O91  1  0.29087462  0.37152853  0.60854739  1  0  -0.652429  0  2.013336  0  0  -0.591119  0  2.236419  0  0  -0.616871  0  2.227397  0  0  -0.303721  -0.573153  0  2.242098  0
O  O92  1  0.89792290  0.57194562  0.65361738  1  0  -0.647766  0  1.880241  0  0  -0.59488  0  2.090121  0  0  -0.618053  0  2.08047  0  0  -0.360339  -0.578878  0  2.096647  0
O  O93  1  0.60207628  0.42805254  0.15362030  1  0  -0.647764  0  1.88039  0  0  -0.594876  0  2.090276  0  0  -0.618049  0  2.080629  0  0  -0.36032  -0.578882  0  2.096789  0
O  O94  1  0.10207594  0.42805129  0.34637795  1  0  -0.647759  0  1.880381  0  0  -0.594838  0  2.090293  0  0  -0.618011  0  2.080643  0  0  -0.36024  -0.578835  0  2.096809  0
O  O95  1  0.39792220  0.57194870  0.84638143  1  0  -0.647749  0  1.880332  0  0  -0.594849  0  2.090208  0  0  -0.618024  0  2.080557  0  0  -0.360295  -0.578846  0  2.096741  0
O  O96  1  0.84116549  0.42913401  0.55755698  1  0  -0.799895  0  2.002417  0  0  -0.73277  0  2.24894  0  0  -0.759577  0  2.237133  0  0  -0.415527  -0.713837  0  2.256553  0
O  O97  1  0.65883197  0.57086462  0.05756015  1  0  -0.799854  0  2.002487  0  0  -0.732717  0  2.24902  0  0  -0.759524  0  2.237223  0  0  -0.415476  -0.71381  0  2.256629  0
O  O98  1  0.15883141  0.57086077  0.44243942  1  0  -0.799933  0  2.00241  0  0  -0.732808  0  2.249041  0  0  -0.759621  0  2.237245  0  0  -0.415524  -0.713876  0  2.256618  0
O  O99  1  0.34116791  0.42913660  0.94244105  1  0  -0.799879  0  2.002518  0  0  -0.732754  0  2.249073  0  0  -0.759565  0  2.23727  0  0  -0.415487  -0.713818  0  2.256683  0
O  O100  1  0.18179181  0.32897360  0.10977157  1  0  -0.880362  0  1.760991  0  0  -0.82947  0  1.92112  0  0  -0.848872  0  1.889793  0  0  -0.629963  -0.815686  0  1.942999  0
O  O101  1  0.31820404  0.67102702  0.60976981  1  0  -0.880241  0  1.7612  0  0  -0.82937  0  1.921332  0  0  -0.848772  0  1.890003  0  0  -0.629972  -0.815585  0  1.943222  0
O  O102  1  0.81820411  0.67102875  0.89022962  1  0  -0.880063  0  1.761318  0  0  -0.829183  0  1.921457  0  0  -0.848585  0  1.890128  0  0  -0.62989  -0.815393  0  1.94334  0
O  O103  1  0.68179224  0.32897101  0.39022925  1  0  -0.880264  0  1.761117  0  0  -0.829392  0  1.921258  0  0  -0.848798  0  1.889936  0  0  -0.629929  -0.8156  0  1.943133  0
O  O104  1  0.63414504  0.08066667  0.08715879  1  0  -0.895717  0  1.851142  0  0  -0.835212  0  2.03294  0  0  -0.856147  0  1.999572  0  0  -0.625571  -0.820154  0  2.056129  0
O  O105  1  0.86584915  0.91933545  0.58715902  1  0  -0.895689  0  1.85118  0  0  -0.83517  0  2.033021  0  0  -0.856103  0  1.999654  0  0  -0.625526  -0.8201  0  2.056201  0
O  O106  1  0.36585140  0.91933784  0.91284081  1  0  -0.895718  0  1.851149  0  0  -0.835212  0  2.032989  0  0  -0.856146  0  1.999617  0  0  -0.625521  -0.820152  0  2.056184  0
O  O107  1  0.13414765  0.08066473  0.41283951  1  0  -0.895741  0  1.851143  0  0  -0.835244  0  2.032987  0  0  -0.856178  0  1.999613  0  0  -0.625564  -0.820196  0  2.056175  0
O  O108  1  0.87431843  0.35489292  0.02618753  1  0  -0.857301  0  1.850813  0  0  -0.797398  0  2.023203  0  0  -0.817623  0  1.994085  0  0  -0.596852  -0.782954  0  2.042436  0
O  O109  1  0.62567567  0.64510987  0.52618828  1  0  -0.857237  0  1.850978  0  0  -0.797412  0  2.023283  0  0  -0.817634  0  1.994133  0  0  -0.596803  -0.782967  0  2.04252  0
O  O110  1  0.12567661  0.64511160  0.97381206  1  0  -0.857351  0  1.850812  0  0  -0.797495  0  2.023131  0  0  -0.817717  0  1.993982  0  0  -0.596842  -0.783051  0  2.042377  0
O  O111  1  0.37431999  0.35489140  0.47381239  1  0  -0.857177  0  1.850954  0  0  -0.797309  0  2.023279  0  0  -0.817533  0  1.994168  0  0  -0.596804  -0.782858  0  2.04251  0
O  O112  1  0.50542395  0.95910323  0.65199986  1  0  -0.546458  0  2.162536  0  0  -0.478901  0  2.361862  0  0  -0.497213  0  2.3511  0  0  -0.333328  -0.465785  0  2.369124  0
O  O113  1  0.99457803  0.04089488  0.15200194  1  0  -0.546374  0  2.162695  0  0  -0.478846  0  2.36203  0  0  -0.497165  0  2.351276  0  0  -0.33329  -0.465741  0  2.3693  0
O  O114  1  0.49457436  0.04089153  0.34800027  1  0  -0.546487  0  2.1627  0  0  -0.478955  0  2.362049  0  0  -0.497276  0  2.351298  0  0  -0.333332  -0.46585  0  2.369315  0
O  O115  1  0.00542749  0.95910625  0.84799979  1  0  -0.546505  0  2.162634  0  0  -0.478924  0  2.361949  0  0  -0.497243  0  2.351194  0  0  -0.333319  -0.465814  0  2.369218  0
O  O116  1  0.21830687  0.07282441  0.02349936  1  0  -0.865638  0  1.831015  0  0  -0.809115  0  2.009377  0  0  -0.828498  0  1.977562  0  0  -0.630107  -0.795275  0  2.031718  0
O  O117  1  0.28169321  0.92717775  0.52349848  1  0  -0.865635  0  1.831049  0  0  -0.809107  0  2.009408  0  0  -0.82849  0  1.977592  0  0  -0.630103  -0.79527  0  2.03176  0
O  O118  1  0.78169160  0.92717683  0.97650130  1  0  -0.865687  0  1.83096  0  0  -0.809158  0  2.00935  0  0  -0.828542  0  1.977533  0  0  -0.630118  -0.79532  0  2.031704  0
O  O119  1  0.71830668  0.07282347  0.47650059  1  0  -0.865668  0  1.830939  0  0  -0.809129  0  2.009327  0  0  -0.828515  0  1.977508  0  0  -0.630103  -0.795294  0  2.031675  0
