# generated using pymatgen
data_Co2H36C41(NO4)4
_symmetry_space_group_name_H-M   'P 1'
_cell_length_a   9.62322233
_cell_length_b   10.30079997
_cell_length_c   23.42403989
_cell_angle_alpha   94.01036310
_cell_angle_beta   89.99926238
_cell_angle_gamma   89.99940748
_symmetry_Int_Tables_number   1
_chemical_formula_structural   Co2H36C41(NO4)4
_chemical_formula_sum   'Co4 H72 C82 N8 O32'
_cell_volume   2316.26669245
_cell_formula_units_Z   2
loop_
 _symmetry_equiv_pos_site_id
 _symmetry_equiv_pos_as_xyz
  1  'x, y, z'
loop_
 _atom_site_type_symbol
 _atom_site_label
 _atom_site_symmetry_multiplicity
 _atom_site_fract_x
 _atom_site_fract_y
 _atom_site_fract_z
 _atom_site_occupancy
 _atom_site_pbe_bader_charge
 _atom_site_pbe_bader_spin_density
 _atom_site_pbe_cm5_charge
 _atom_site_pbe_ddec_charge
 _atom_site_pbe_ddec_spin_density
 _atom_site_pbe_ddec_sum_bond_order
 _atom_site_pbe_magmom
Co  Co0  1  0.49999856  0.50000522  0.50000290  1  1.275892  2.619091  0.655743  0.880467  2.872827  2.444913  2.601
Co  Co1  1  0.49999793  0.49999512  0.99999847  1  1.275236  2.619138  0.6557  0.880297  2.872808  2.445  2.601
Co  Co2  1  0.17518477  0.00000811  0.24999153  1  1.194132  2.539897  0.681431  0.793892  2.736026  2.572611  2.479
Co  Co3  1  0.82480819  0.99999842  0.75000732  1  1.193873  2.53993  0.681428  0.793853  2.736072  2.572472  2.479
H  H4  1  0.54967589  0.10126930  0.46890740  1  0.141881  0.000288  0.106258  0.134453  0.000165  1.044911  0.0
H  H5  1  0.54965553  0.89873322  0.03110202  1  0.142177  0.000287  0.106296  0.134515  0.000165  1.044864  0.0
H  H6  1  0.45035656  0.89874702  0.53110583  1  0.142148  0.000288  0.106283  0.134495  0.000165  1.044812  0.0
H  H7  1  0.45034886  0.10125579  0.96889417  1  0.142204  0.000288  0.10628  0.134467  0.000165  1.044867  0.0
H  H8  1  0.80256994  0.80121408  0.38311561  1  0.106668  0.000337  0.101447  0.118433  0.000152  1.025387  0.0
H  H9  1  0.80257022  0.19878862  0.11687328  1  0.106563  0.000337  0.101436  0.118409  0.000152  1.025505  0.0
H  H10  1  0.19743029  0.19880216  0.61687756  1  0.106424  0.000337  0.101411  0.118359  0.000152  1.0255  0.0
H  H11  1  0.19744353  0.80119745  0.88311940  1  0.106472  0.000337  0.101401  0.118393  0.000152  1.025541  0.0
H  H12  1  0.89331553  0.20486311  0.36254154  1  0.112569  0.000364  0.102848  0.113786  0.000122  1.038942  0.0
H  H13  1  0.89332309  0.79514060  0.13745075  1  0.112887  0.000364  0.10292  0.113808  0.000122  1.038934  0.0
H  H14  1  0.10669925  0.79515902  0.63746546  1  0.112856  0.000363  0.102933  0.113856  0.000122  1.038918  0.0
H  H15  1  0.10668650  0.20484548  0.86254279  1  0.112787  0.000363  0.102915  0.113868  0.000122  1.038858  0.0
H  H16  1  0.35452569  0.27169944  0.43350707  1  0.129789  0.001297  0.119531  0.096391  0.000387  0.999232  0.001
H  H17  1  0.35452481  0.72829922  0.06648362  1  0.129767  0.001297  0.119482  0.09634  0.000387  0.99926  0.001
H  H18  1  0.64548285  0.72831099  0.56649445  1  0.129974  0.001296  0.11952  0.096344  0.000386  0.999319  0.001
H  H19  1  0.64547542  0.27167909  0.93351523  1  0.129456  0.001296  0.119482  0.096322  0.000386  0.99931  0.001
H  H20  1  0.16718856  0.23797203  0.35884635  1  0.136282  0.000698  0.11389  0.146437  6.4e-05  1.015533  0.0
H  H21  1  0.16717248  0.76203929  0.14113888  1  0.136791  0.000698  0.113857  0.146389  6.4e-05  1.015453  0.0
H  H22  1  0.83282102  0.76203743  0.64115386  1  0.136434  0.000699  0.113917  0.14645  6.4e-05  1.015538  0.0
H  H23  1  0.83282880  0.23795362  0.85885956  1  0.136381  0.000699  0.113836  0.146354  6.4e-05  1.015615  0.0
H  H24  1  0.09112825  0.65359184  0.37941177  1  0.140526  0.000617  0.113635  0.138997  0.000293  1.022736  0.0
H  H25  1  0.09111326  0.34642224  0.12057949  1  0.140596  0.000617  0.113624  0.139008  0.000293  1.022728  0.0
H  H26  1  0.90886782  0.34641470  0.62059092  1  0.140286  0.000617  0.113681  0.139056  0.000293  1.022729  0.0
H  H27  1  0.90886619  0.65357359  0.87942118  1  0.140823  0.000617  0.11362  0.138978  0.000293  1.022721  0.0
H  H28  1  0.27953170  0.66812391  0.45169881  1  0.10505  0.001128  0.120654  0.098132  7.8e-05  0.996404  0.001
H  H29  1  0.27952227  0.33187554  0.04829273  1  0.104904  0.001129  0.120676  0.098079  7.8e-05  0.99633  0.001
H  H30  1  0.72046126  0.33188653  0.54830614  1  0.105342  0.001129  0.120681  0.098124  7.8e-05  0.996329  0.001
H  H31  1  0.72044679  0.66810568  0.95170365  1  0.105172  0.001128  0.120713  0.098156  7.8e-05  0.99639  0.001
H  H32  1  0.02514260  0.61357873  0.29201633  1  0.088009  -2.9e-05  0.109619  0.090759  -6.1e-05  1.014724  0.0
H  H33  1  0.02514519  0.38644190  0.20797804  1  0.088325  -2.9e-05  0.109685  0.090888  -6.1e-05  1.014573  0.0
H  H34  1  0.97484828  0.38642782  0.70798551  1  0.087988  -3e-05  0.109596  0.090734  -6.1e-05  1.01476  0.0
H  H35  1  0.97484881  0.61355976  0.79202152  1  0.088284  -2.9e-05  0.109664  0.090958  -6.1e-05  1.01453  0.0
H  H36  1  0.88603460  0.57458904  0.33828945  1  0.086923  6.8e-05  0.110741  0.092672  4.3e-05  0.974859  0.0
H  H37  1  0.88602678  0.42541476  0.16170757  1  0.086733  6.8e-05  0.110814  0.092791  4.3e-05  0.974748  0.0
H  H38  1  0.11396148  0.42540583  0.66171289  1  0.086978  6.8e-05  0.110763  0.092725  4.3e-05  0.974736  0.0
H  H39  1  0.11396306  0.57458400  0.83829489  1  0.086819  6.8e-05  0.110776  0.092792  4.3e-05  0.974753  0.0
H  H40  1  0.83398833  0.70847957  0.24403557  1  0.114766  3.6e-05  0.114883  0.103237  -3.1e-05  0.974109  0.0
H  H41  1  0.83400084  0.29153936  0.25596005  1  0.11478  3.7e-05  0.114841  0.103239  -3.1e-05  0.974127  0.0
H  H42  1  0.16600047  0.29152113  0.75596695  1  0.11468  3.7e-05  0.114896  0.103295  -3.1e-05  0.974023  0.0
H  H43  1  0.16600563  0.70845745  0.74404278  1  0.114852  3.6e-05  0.114855  0.103268  -3.1e-05  0.974096  0.0
H  H44  1  0.73244572  0.60779785  0.19426841  1  0.1132  7.1e-05  0.106807  0.084159  6.3e-05  1.038689  0.0
H  H45  1  0.73244204  0.39221923  0.30572513  1  0.113405  7.1e-05  0.10684  0.084156  6.3e-05  1.038787  0.0
H  H46  1  0.26755347  0.39219992  0.80573060  1  0.11325  7.1e-05  0.106832  0.084216  6.3e-05  1.038706  0.0
H  H47  1  0.26755923  0.60777272  0.69427585  1  0.113476  7.1e-05  0.10686  0.08416  6.3e-05  1.038812  0.0
H  H48  1  0.63628145  0.79835918  0.19447064  1  0.118667  0.000651  0.111699  0.131897  0.000249  1.044061  0.0
H  H49  1  0.63628924  0.20164332  0.30551827  1  0.118962  0.000651  0.111656  0.131834  0.000249  1.043982  0.0
H  H50  1  0.36370424  0.20164053  0.80552715  1  0.118536  0.000651  0.111745  0.131928  0.000249  1.044176  0.0
H  H51  1  0.36370165  0.79835349  0.69448413  1  0.118923  0.000651  0.111632  0.131794  0.000249  1.044021  0.0
H  H52  1  0.42787252  0.93225635  0.18351351  1  0.108862  0.00266  0.123524  0.092191  0.001113  0.976059  0.001
H  H53  1  0.42787936  0.06774347  0.31647342  1  0.108892  0.002659  0.123524  0.092261  0.001113  0.975942  0.001
H  H54  1  0.57211940  0.06775798  0.81648942  1  0.10885  0.00266  0.123503  0.092188  0.001113  0.975998  0.001
H  H55  1  0.57210736  0.93225529  0.68352946  1  0.108943  0.002659  0.123565  0.092295  0.001113  0.975871  0.001
H  H56  1  0.22122019  0.76735497  0.31568983  1  0.142187  0.0017  0.116676  0.089827  0.000497  1.049563  0.002
H  H57  1  0.22124082  0.23266162  0.18429613  1  0.141289  0.001703  0.116728  0.089869  0.000497  1.049624  0.002
H  H58  1  0.77875822  0.23264668  0.68430674  1  0.141238  0.001701  0.116679  0.089844  0.000497  1.04946  0.002
H  H59  1  0.77875942  0.76732836  0.81570009  1  0.141357  0.001702  0.116735  0.089875  0.000497  1.049645  0.002
H  H60  1  0.42125460  0.61792341  0.33140746  1  0.075511  0.0007  0.107466  0.117579  0.000219  1.033045  0.0
H  H61  1  0.42127614  0.38209207  0.16858297  1  0.075096  0.000701  0.107413  0.117556  0.000219  1.033046  0.0
H  H62  1  0.57871654  0.38206364  0.66858483  1  0.075419  0.0007  0.107402  0.11755  0.000219  1.033101  0.0
H  H63  1  0.57872513  0.61789987  0.83141501  1  0.075094  0.0007  0.107379  0.117485  0.000219  1.033059  0.0
H  H64  1  0.61356804  0.76195099  0.44507528  1  0.660022  0.000264  0.300028  0.35657  8.7e-05  0.971393  0.0
H  H65  1  0.61356360  0.23804692  0.05492300  1  0.659937  0.000263  0.300023  0.356551  8.6e-05  0.971574  0.0
H  H66  1  0.38643531  0.23806722  0.55492563  1  0.659669  0.000264  0.299936  0.356489  8.7e-05  0.971791  0.0
H  H67  1  0.38643767  0.76193722  0.94507219  1  0.659826  0.000263  0.299969  0.356521  8.6e-05  0.971771  0.0
H  H68  1  0.67453380  0.51678042  0.41903148  1  0.650608  -8.1e-05  0.28123  0.369839  -0.000122  0.986115  0.0
H  H69  1  0.67454868  0.48320420  0.08096735  1  0.650572  -8.1e-05  0.281289  0.369992  -0.000122  0.985923  0.0
H  H70  1  0.32546540  0.48324171  0.58097595  1  0.650801  -8.1e-05  0.281347  0.370164  -0.000122  0.985679  0.0
H  H71  1  0.32545571  0.51678090  0.91902402  1  0.65085  -8.1e-05  0.281322  0.370123  -0.000122  0.985723  0.0
H  H72  1  0.53932530  0.59714273  0.40027669  1  0.593827  -0.000266  0.307091  0.36707  -0.000489  0.938755  0.0
H  H73  1  0.53934464  0.40285306  0.09972532  1  0.593996  -0.000266  0.307034  0.366995  -0.000489  0.938799  0.0
H  H74  1  0.46067285  0.40287257  0.59972498  1  0.593918  -0.000266  0.307021  0.367014  -0.000489  0.938725  0.0
H  H75  1  0.46066807  0.59713304  0.90027376  1  0.593903  -0.000267  0.307122  0.367149  -0.00049  0.938596  0.0
C  C76  1  0.67994981  0.30742321  0.42977554  1  1.550297  -0.003063  0.213438  0.565524  -0.004132  4.17923  -0.002
C  C77  1  0.67995025  0.69258376  0.07023077  1  1.55054  -0.003054  0.213293  0.565566  -0.004123  4.179012  -0.002
C  C78  1  0.32006808  0.69259310  0.57023769  1  1.549986  -0.003062  0.213508  0.565532  -0.004132  4.178894  -0.002
C  C79  1  0.32006038  0.30740718  0.92976334  1  1.550261  -0.003053  0.213427  0.565604  -0.004122  4.178989  -0.002
C  C80  1  0.71634090  0.16739112  0.41620297  1  -0.056609  0.005056  -0.027414  -0.03355  0.002543  4.039847  0.004
C  C81  1  0.71633208  0.83261546  0.08380058  1  -0.056635  0.005056  -0.027444  -0.033524  0.002542  4.039682  0.004
C  C82  1  0.28368739  0.83262714  0.58381160  1  -0.056036  0.005057  -0.027519  -0.033309  0.002543  4.039306  0.004
C  C83  1  0.28368270  0.16737158  0.91618914  1  -0.056248  0.005057  -0.027511  -0.03341  0.002543  4.039441  0.004
C  C84  1  0.63501694  0.07256064  0.44016841  1  -0.052939  0.000395  -0.099605  -0.213548  0.000115  3.904953  0.0
C  C85  1  0.63499847  0.92744486  0.05983810  1  -0.053412  0.000399  -0.099591  -0.213607  0.000118  3.904944  0.0
C  C86  1  0.36501447  0.92746054  0.55984540  1  -0.053545  0.000393  -0.099473  -0.213561  0.000114  3.9049  0.0
C  C87  1  0.36501319  0.07254511  0.94015513  1  -0.053635  0.000397  -0.099541  -0.213545  0.000118  3.905018  0.0
C  C88  1  0.66535662  0.94032710  0.42869500  1  0.501282  0.000729  0.076272  0.316855  0.000345  4.118099  0.001
C  C89  1  0.66534325  0.05967416  0.07130524  1  0.501086  0.000728  0.076333  0.31692  0.000344  4.118069  0.001
C  C90  1  0.33466544  0.05968919  0.57131353  1  0.500961  0.00073  0.076211  0.316771  0.000345  4.118274  0.001
C  C91  1  0.33466530  0.94031386  0.92868750  1  0.500765  0.000728  0.076305  0.316858  0.000344  4.117939  0.001
C  C92  1  0.77712245  0.90354186  0.39290534  1  -0.033398  -0.000237  -0.104146  -0.236216  -0.000671  3.951141  0.0
C  C93  1  0.77712416  0.09646308  0.10708845  1  -0.033211  -0.000234  -0.104097  -0.236184  -0.000668  3.951372  0.0
C  C94  1  0.22288818  0.09647928  0.60709651  1  -0.03323  -0.000238  -0.104038  -0.236065  -0.000672  3.951055  0.0
C  C95  1  0.22289166  0.90352105  0.89290247  1  -0.033204  -0.000234  -0.104036  -0.236081  -0.000668  3.951256  0.0
C  C96  1  0.85936397  0.99875073  0.36946913  1  -0.039142  0.004439  -0.024644  -0.013435  0.00224  4.014744  0.003
C  C97  1  0.85936912  0.00125722  0.13052304  1  -0.040194  0.004439  -0.024674  -0.013342  0.002239  4.014913  0.003
C  C98  1  0.14064665  0.00127138  0.63053275  1  -0.039591  0.004444  -0.024542  -0.013215  0.002242  4.014581  0.003
C  C99  1  0.14064463  0.99873275  0.86947104  1  -0.039308  0.004441  -0.024632  -0.013379  0.002241  4.015023  0.003
C  C100  1  0.82924044  0.13112659  0.38073378  1  -0.03129  0.001266  -0.096776  -0.150793  0.000631  3.961247  0.001
C  C101  1  0.82924152  0.86887780  0.11926099  1  -0.031307  0.001268  -0.096904  -0.150898  0.000632  3.961087  0.001
C  C102  1  0.17077850  0.86889652  0.61927581  1  -0.031438  0.001265  -0.096996  -0.151181  0.00063  3.961525  0.001
C  C103  1  0.17077014  0.13110535  0.88072989  1  -0.031363  0.001269  -0.09689  -0.151006  0.000633  3.961437  0.001
C  C104  1  0.97917291  0.95446855  0.33217778  1  1.544967  0.00376  0.203516  0.569292  0.003322  4.199779  0.002
C  C105  1  0.97918470  0.04553229  0.16780842  1  1.546029  0.003761  0.203605  0.569392  0.003323  4.199791  0.002
C  C106  1  0.02082940  0.04555356  0.66782196  1  1.545871  0.003757  0.203757  0.569625  0.003321  4.199445  0.002
C  C107  1  0.02082489  0.95444795  0.83218494  1  1.545929  0.003759  0.203675  0.569493  0.003322  4.199654  0.002
C  C108  1  0.29396259  0.35325742  0.41961303  1  0.44278  -0.00394  0.03814  0.104083  -0.004499  3.96583  -0.003
C  C109  1  0.29396113  0.64674480  0.08037851  1  0.442737  -0.003942  0.038171  0.104041  -0.004501  3.965833  -0.003
C  C110  1  0.70603869  0.64675497  0.58039069  1  0.442529  -0.00394  0.038022  0.103921  -0.004499  3.965775  -0.003
C  C111  1  0.70603287  0.35323740  0.91961875  1  0.442869  -0.003944  0.03816  0.103992  -0.004503  3.965864  -0.003
C  C112  1  0.19170550  0.33462937  0.37825996  1  0.001353  0.004864  -0.096026  -0.242686  0.00232  3.932707  0.004
C  C113  1  0.19169421  0.66538267  0.12172730  1  0.001203  0.004865  -0.095899  -0.242386  0.002321  3.932398  0.004
C  C114  1  0.80829785  0.66538009  0.62174112  1  0.001559  0.004865  -0.095932  -0.242551  0.002321  3.93234  0.004
C  C115  1  0.80829979  0.33460537  0.87827014  1  0.001189  0.004867  -0.095865  -0.242389  0.002322  3.932473  0.004
C  C116  1  0.11862673  0.44364321  0.36135042  1  0.459552  -0.006233  0.10673  0.308283  -0.007008  4.046481  -0.004
C  C117  1  0.11861196  0.55636961  0.13863852  1  0.459561  -0.006236  0.106745  0.308205  -0.007011  4.046206  -0.004
C  C118  1  0.88137662  0.55636042  0.63865261  1  0.459124  -0.006236  0.106614  0.308123  -0.007011  4.046609  -0.004
C  C119  1  0.88137684  0.44362525  0.86136126  1  0.459656  -0.006242  0.106614  0.308095  -0.007017  4.046208  -0.004
C  C120  1  0.14729169  0.56600099  0.38911215  1  -0.036021  0.004168  -0.10559  -0.274691  0.001972  3.970678  0.003
C  C121  1  0.14727915  0.43400861  0.11087697  1  -0.036106  0.004168  -0.10562  -0.274826  0.001972  3.970663  0.003
C  C122  1  0.85270127  0.43400362  0.61089262  1  -0.035033  0.004168  -0.105613  -0.274832  0.001972  3.970816  0.003
C  C123  1  0.85270030  0.56598721  0.88912070  1  -0.036241  0.004169  -0.105614  -0.27483  0.001972  3.971007  0.003
C  C124  1  0.25223401  0.57454596  0.42989709  1  0.468249  -0.005863  0.038  0.102516  -0.007003  3.990963  -0.004
C  C125  1  0.25222909  0.42545475  0.07009462  1  0.467724  -0.005864  0.037978  0.102657  -0.007004  3.990697  -0.004
C  C126  1  0.74775791  0.42546546  0.57010788  1  0.466141  -0.005863  0.038092  0.102741  -0.007007  3.990617  -0.004
C  C127  1  0.74774932  0.57453133  0.92990062  1  0.46698  -0.005866  0.038  0.102643  -0.007009  3.990997  -0.004
C  C128  1  0.95159034  0.53718952  0.30235292  1  0.386554  0.000287  -0.062082  -0.039581  9.2e-05  3.830001  0.0
C  C129  1  0.95158513  0.46282331  0.19764019  1  0.386382  0.000287  -0.062297  -0.03988  9.2e-05  3.829955  0.0
C  C130  1  0.04840574  0.46281216  0.69765005  1  0.386593  0.000287  -0.062216  -0.03981  9.2e-05  3.830098  0.0
C  C131  1  0.04840679  0.53717544  0.80235928  1  0.386074  0.000287  -0.062313  -0.040079  9.2e-05  3.829997  0.0
C  C132  1  0.86202366  0.50000591  0.24999741  1  0.0735  4.9e-05  -0.017663  0.059674  2.3e-05  3.819263  0.0
C  C133  1  0.13796722  0.49999187  0.75000459  1  0.073714  4.9e-05  -0.017683  0.059726  2.3e-05  3.819306  0.0
C  C134  1  0.77262590  0.61840525  0.23820686  1  0.333142  0.000246  -0.061818  -0.039762  0.000123  3.795522  0.0
C  C135  1  0.77262684  0.38161141  0.26178730  1  0.332673  0.000245  -0.061865  -0.039808  0.000123  3.795696  0.0
C  C136  1  0.22736706  0.38159059  0.76179508  1  0.332801  0.000246  -0.061889  -0.039917  0.000123  3.795567  0.0
C  C137  1  0.22737028  0.61838345  0.73821333  1  0.332721  0.000246  -0.061822  -0.039752  0.000123  3.795525  0.0
C  C138  1  0.54903981  0.69979580  0.26626516  1  0.484148  -0.003214  0.108276  0.31204  -0.003867  4.047521  -0.002
C  C139  1  0.54905085  0.30021444  0.23372657  1  0.484836  -0.003212  0.108292  0.311996  -0.003865  4.047385  -0.002
C  C140  1  0.45094379  0.30020294  0.73373303  1  0.483865  -0.003213  0.108338  0.31222  -0.003866  4.047286  -0.002
C  C141  1  0.45094626  0.69977848  0.76627443  1  0.485449  -0.003209  0.108289  0.312021  -0.003861  4.047222  -0.002
C  C142  1  0.54794164  0.78673852  0.22262695  1  0.017532  0.005421  -0.099736  -0.25649  0.002434  3.945132  0.004
C  C143  1  0.54794395  0.21326784  0.27736382  1  0.01685  0.005417  -0.099531  -0.256161  0.002433  3.944925  0.004
C  C144  1  0.45204821  0.21326413  0.77737520  1  0.017362  0.005421  -0.099794  -0.256555  0.002434  3.945187  0.004
C  C145  1  0.45205109  0.78672800  0.72263855  1  0.016013  0.005416  -0.09955  -0.256171  0.002433  3.944786  0.004
C  C146  1  0.43074772  0.86253556  0.21649044  1  0.435717  -9.7e-05  0.045992  0.109108  -0.001085  3.985209  0.0
C  C147  1  0.43075380  0.13747008  0.28349751  1  0.435401  -9.2e-05  0.045903  0.108795  -0.001083  3.985136  0.0
C  C148  1  0.56924004  0.13746904  0.78351092  1  0.4364  -9.6e-05  0.045933  0.108972  -0.001082  3.985204  0.0
C  C149  1  0.56923916  0.86252576  0.71650401  1  0.43587  -9e-05  0.045817  0.108755  -0.001079  3.985163  0.0
C  C150  1  0.31661066  0.76996786  0.29066790  1  0.437498  -0.000691  0.041769  0.104758  -0.001348  3.965117  0.0
C  C151  1  0.31662429  0.23004092  0.20931946  1  0.439506  -0.000695  0.041706  0.104678  -0.001347  3.965911  0.0
C  C152  1  0.68337295  0.23003088  0.70932901  1  0.438151  -0.000692  0.041741  0.104796  -0.001347  3.965391  0.0
C  C153  1  0.68337907  0.76995198  0.79067727  1  0.439373  -0.000693  0.04164  0.104632  -0.001346  3.965893  0.0
C  C154  1  0.42844564  0.68965147  0.29952147  1  0.033419  0.004304  -0.099819  -0.246995  0.002001  3.964217  0.004
C  C155  1  0.42846386  0.31035712  0.20046956  1  0.0334  0.004306  -0.09983  -0.246986  0.002002  3.964418  0.004
C  C156  1  0.57153381  0.31034142  0.70047227  1  0.034226  0.004304  -0.099731  -0.247073  0.002001  3.964391  0.004
C  C157  1  0.57153949  0.68963286  0.79952794  1  0.033441  0.004305  -0.099775  -0.246866  0.002002  3.964199  0.004
N  N158  1  0.32710220  0.47164214  0.44484014  1  -1.24411  0.055035  -0.347308  -0.296819  0.029587  3.597354  0.048
N  N159  1  0.32710597  0.52835391  0.05515574  1  -1.243796  0.055038  -0.347386  -0.296892  0.029589  3.597318  0.048
N  N160  1  0.67288868  0.52836830  0.55516523  1  -1.242775  0.055037  -0.347355  -0.296804  0.029588  3.597026  0.048
N  N161  1  0.67287037  0.47162926  0.94484112  1  -1.242923  0.05504  -0.347351  -0.296728  0.029593  3.597192  0.048
N  N162  1  0.31735276  0.85786199  0.25035835  1  -1.255897  0.071297  -0.355395  -0.289398  0.036837  3.663497  0.048
N  N163  1  0.31736193  0.14215163  0.24962573  1  -1.256764  0.071298  -0.355219  -0.289141  0.036834  3.663553  0.048
N  N164  1  0.68263708  0.14214552  0.74964309  1  -1.256566  0.071301  -0.355232  -0.289178  0.036834  3.663535  0.048
N  N165  1  0.68263518  0.85784225  0.75037231  1  -1.256973  0.071296  -0.355126  -0.289131  0.036832  3.663689  0.048
O  O166  1  0.74309283  0.39545220  0.40389525  1  -1.169881  0.000818  -0.318441  -0.53181  -0.000962  2.198887  0.001
O  O167  1  0.74311212  0.60455409  0.09610345  1  -1.17011  0.000822  -0.318397  -0.531899  -0.000959  2.198764  0.001
O  O168  1  0.25692715  0.60456705  0.59612191  1  -1.169887  0.000821  -0.318428  -0.531856  -0.000961  2.198712  0.001
O  O169  1  0.25689747  0.39543295  0.90388627  1  -1.170244  0.000824  -0.318459  -0.531933  -0.000958  2.198496  0.001
O  O170  1  0.58505988  0.33084339  0.46734448  1  -1.167545  0.07828  -0.315056  -0.561288  0.041485  2.433829  0.067
O  O171  1  0.58504305  0.66915682  0.03266811  1  -1.167355  0.078295  -0.31497  -0.561371  0.041487  2.433654  0.067
O  O172  1  0.41494243  0.66916220  0.53266331  1  -1.167277  0.07829  -0.315088  -0.561368  0.04148  2.43379  0.067
O  O173  1  0.41495095  0.33083608  0.96732820  1  -1.167272  0.078291  -0.315009  -0.561439  0.041479  2.433973  0.067
O  O174  1  0.05901761  0.04653949  0.31489152  1  -1.135498  0.116667  -0.331949  -0.550876  0.059031  2.364987  0.089
O  O175  1  0.05903231  0.95346031  0.18509265  1  -1.135413  0.116681  -0.332013  -0.550949  0.059041  2.364911  0.089
O  O176  1  0.94099093  0.95348164  0.68510819  1  -1.135203  0.116651  -0.332002  -0.55091  0.059024  2.364821  0.089
O  O177  1  0.94098144  0.04652577  0.81490260  1  -1.135639  0.116673  -0.332042  -0.550934  0.05904  2.364778  0.089
O  O178  1  0.99832433  0.83596281  0.31883000  1  -1.190162  0.017418  -0.317565  -0.560787  0.008328  2.172838  0.014
O  O179  1  0.99833022  0.16403686  0.18115820  1  -1.190456  0.017429  -0.317662  -0.560931  0.008333  2.172848  0.014
O  O180  1  0.00168110  0.16406220  0.68116599  1  -1.1907  0.017412  -0.317759  -0.561062  0.008325  2.172646  0.014
O  O181  1  0.00168040  0.83594047  0.81883721  1  -1.190648  0.017421  -0.317699  -0.561011  0.008329  2.172806  0.014
O  O182  1  0.58334987  0.85361244  0.45388957  1  -1.201214  0.001013  -0.360971  -0.462589  0.000382  2.346118  0.001
O  O183  1  0.58333633  0.14639164  0.04611161  1  -1.201129  0.001011  -0.360997  -0.462649  0.000381  2.346178  0.001
O  O184  1  0.41666907  0.14640580  0.54611689  1  -1.201074  0.001013  -0.360969  -0.462656  0.000382  2.346415  0.001
O  O185  1  0.41667638  0.85359638  0.95388241  1  -1.200841  0.001012  -0.360983  -0.462652  0.000382  2.346171  0.001
O  O186  1  0.60640006  0.59633064  0.43138850  1  -1.2327  0.059484  -0.547911  -0.744242  0.031376  2.173096  0.048
O  O187  1  0.60643180  0.40365667  0.06861590  1  -1.232697  0.059455  -0.547861  -0.744147  0.031368  2.172907  0.048
O  O188  1  0.39359602  0.40368856  0.56861329  1  -1.232832  0.059506  -0.547924  -0.744429  0.031385  2.172966  0.048
O  O189  1  0.39357155  0.59633234  0.93137944  1  -1.232653  0.05945  -0.547984  -0.744453  0.031372  2.172823  0.048
O  O190  1  0.02548927  0.42368589  0.31858138  1  -1.076321  -0.002045  -0.16185  -0.172356  -0.002069  2.539745  -0.002
O  O191  1  0.02546877  0.57632985  0.18140686  1  -1.076262  -0.002046  -0.161762  -0.172185  -0.00207  2.539477  -0.002
O  O192  1  0.97451719  0.57631968  0.68142043  1  -1.076468  -0.002046  -0.161734  -0.172113  -0.00207  2.539732  -0.002
O  O193  1  0.97451691  0.42366792  0.81859130  1  -1.076022  -0.002048  -0.161666  -0.172059  -0.002072  2.539374  -0.002
O  O194  1  0.65778635  0.62475043  0.27846981  1  -1.070528  0.00038  -0.165838  -0.184052  0.000201  2.558526  0.0
O  O195  1  0.65779799  0.37526159  0.22152268  1  -1.07051  0.000381  -0.165873  -0.184069  0.000202  2.558614  0.0
O  O196  1  0.34219414  0.37525124  0.72153017  1  -1.070321  0.000381  -0.165889  -0.184114  0.000202  2.558594  0.0
O  O197  1  0.34220328  0.62472840  0.77847823  1  -1.070552  0.000382  -0.165868  -0.184106  0.000203  2.558479  0.0
