# generated using pymatgen
data_Cd2H27C41N6O11
_symmetry_space_group_name_H-M   'P 1'
_cell_length_a   14.23177288
_cell_length_b   15.63870571
_cell_length_c   22.88130792
_cell_angle_alpha   79.58942833
_cell_angle_beta   71.86732385
_cell_angle_gamma   62.93179828
_symmetry_Int_Tables_number   1
_chemical_formula_structural   Cd2H27C41N6O11
_chemical_formula_sum   'Cd8 H108 C164 N24 O44'
_cell_volume   4304.99273890
_cell_formula_units_Z   4
loop_
 _symmetry_equiv_pos_site_id
 _symmetry_equiv_pos_as_xyz
  1  'x, y, z'
loop_
 _atom_site_type_symbol
 _atom_site_label
 _atom_site_symmetry_multiplicity
 _atom_site_fract_x
 _atom_site_fract_y
 _atom_site_fract_z
 _atom_site_occupancy
 _atom_site_pbe_bader_charge
 _atom_site_pbe_bader_spin_density
 _atom_site_pbe_cm5_charge
 _atom_site_pbe_ddec_charge
 _atom_site_pbe_ddec_spin_density
 _atom_site_pbe_ddec_sum_bond_order
 _atom_site_pbe_magmom
Cd  Cd0  1  0.32557621  0.58694942  0.32287289  1  1.28183  0  0.759451  0.885862  0  2.124065  0
Cd  Cd1  1  0.23523032  0.91309387  0.17713427  1  1.281009  0  0.759463  0.885618  0  2.125138  0
Cd  Cd2  1  0.67442356  0.41304953  0.67713073  1  1.28186  0  0.759436  0.885857  0  2.124038  0
Cd  Cd3  1  0.76476798  0.08690514  0.82286657  1  1.281006  0  0.759486  0.885672  0  2.125136  0
Cd  Cd4  1  0.40667237  0.05370998  0.47020772  1  1.256796  0  0.765333  0.905332  0  2.333171  0
Cd  Cd5  1  0.93058310  0.44635074  0.02974338  1  1.252331  0  0.765058  0.904485  0  2.332612  0
Cd  Cd6  1  0.59333004  0.94629125  0.52979034  1  1.256613  0  0.765332  0.905313  0  2.333197  0
Cd  Cd7  1  0.06941594  0.55364828  0.97025688  1  1.251904  0  0.765071  0.904525  0  2.332511  0
H  H8  1  0.60249397  0.45347151  0.32449029  1  0.661016  0  0.298474  0.370225  0  0.974973  0
H  H9  1  0.38074020  0.04643529  0.17545977  1  0.662876  0  0.298652  0.369991  0  0.975148  0
H  H10  1  0.39750580  0.54652754  0.67550895  1  0.661014  0  0.298468  0.370218  0  0.974993  0
H  H11  1  0.61926439  0.95356448  0.82453935  1  0.662865  0  0.298627  0.369926  0  0.975243  0
H  H12  1  0.31522910  0.67137188  0.19762210  1  0.639472  0  0.284907  0.387924  0  0.954875  0
H  H13  1  0.18426784  0.82880983  0.30254057  1  0.639389  0  0.285063  0.388153  0  0.954337  0
H  H14  1  0.68476852  0.32862993  0.80238204  1  0.639476  0  0.284991  0.38804  0  0.954741  0
H  H15  1  0.81573260  0.17118630  0.69746063  1  0.639458  0  0.285042  0.388161  0  0.954321  0
H  H16  1  0.42628329  0.65280160  0.20617805  1  0.638804  0  0.308569  0.406283  0  0.894071  0
H  H17  1  0.28548784  0.84725126  0.29370835  1  0.655783  0  0.308702  0.406705  0  0.891787  0
H  H18  1  0.57371179  0.34720233  0.79382764  1  0.638787  0  0.308589  0.406277  0  0.894002  0
H  H19  1  0.71451264  0.15274635  0.70629092  1  0.655831  0  0.308695  0.406702  0  0.891784  0
H  H20  1  0.71434803  0.91793844  0.94318063  1  0.120374  0  0.123754  0.121951  0  0.997013  0
H  H21  1  0.57593759  0.58231529  0.55673276  1  0.121897  0  0.123886  0.122199  0  0.996917  0
H  H22  1  0.28565050  0.08207067  0.05681858  1  0.120301  0  0.123775  0.122011  0  0.997025  0
H  H23  1  0.42406221  0.41768513  0.44326937  1  0.121876  0  0.12388  0.12217  0  0.997001  0
H  H24  1  0.64479054  0.95656937  0.06734970  1  0.151444  0  0.12471  0.127449  0  1.022692  0
H  H25  1  0.66921527  0.54350714  0.43260121  1  0.155565  0  0.124818  0.1274  0  1.02292  0
H  H26  1  0.35521123  0.04343614  0.93264974  1  0.150889  0  0.124697  0.127404  0  1.0227  0
H  H27  1  0.33078296  0.45648896  0.56740128  1  0.15548  0  0.124815  0.127408  0  1.02282  0
H  H28  1  0.69833632  0.18895810  0.95869727  1  0.150662  0  0.141251  0.111735  0  0.983215  0
H  H29  1  0.84599783  0.31096002  0.54135284  1  0.138332  0  0.141321  0.111122  0  0.983231  0
H  H30  1  0.30166727  0.81104668  0.04130278  1  0.150841  0  0.141136  0.111545  0  0.983363  0
H  H31  1  0.15399594  0.68903461  0.45865110  1  0.13831  0  0.14135  0.111134  0  0.983273  0
H  H32  1  0.70018205  0.01701324  0.14019771  1  0.105226  0  0.107358  0.113212  0  1.023921  0
H  H33  1  0.85746590  0.48288837  0.35980830  1  0.093071  0  0.107536  0.113239  0  1.024843  0
H  H34  1  0.29982116  0.98299082  0.85980206  1  0.105023  0  0.107358  0.113206  0  1.023875  0
H  H35  1  0.14252456  0.51710700  0.64019487  1  0.093014  0  0.107524  0.113254  0  1.024733  0
H  H36  1  0.62582443  0.10969409  0.23415249  1  0.09785  0  0.11581  0.127989  0  0.986079  0
H  H37  1  0.96981842  0.39024508  0.26585005  1  0.09469  0  0.1156  0.127712  0  0.985754  0
H  H38  1  0.37418169  0.89030852  0.76584777  1  0.098479  0  0.115855  0.12802  0  0.986075  0
H  H39  1  0.03016881  0.60975392  0.73415157  1  0.094675  0  0.115667  0.127756  0  0.985658  0
H  H40  1  0.45573478  0.36612049  0.13271534  1  0.099833  0  0.118107  0.127463  0  0.980295  0
H  H41  1  0.95469335  0.13380477  0.36726722  1  0.088881  0  0.118312  0.127482  0  0.981087  0
H  H42  1  0.54427061  0.63388210  0.86728637  1  0.100021  0  0.118096  0.127478  0  0.980241  0
H  H43  1  0.04530449  0.86619064  0.63273367  1  0.089029  0  0.118303  0.127525  0  0.981182  0
H  H44  1  0.53156916  0.27418432  0.03917642  1  0.082223  0  0.119396  0.128877  0  0.973829  0
H  H45  1  0.84518834  0.22564958  0.46086926  1  0.083202  0  0.119388  0.128607  0  0.973104  0
H  H46  1  0.46843443  0.72582043  0.96082451  1  0.082265  0  0.11942  0.129017  0  0.973732  0
H  H47  1  0.15481053  0.77434222  0.53913272  1  0.083339  0  0.11941  0.128679  0  0.973138  0
H  H48  1  0.47656796  0.18947834  0.31533345  1  0.170117  0  0.13069  0.141547  0  1.005156  0
H  H49  1  0.98122450  0.31052181  0.18467352  1  0.174263  0  0.130611  0.141557  0  1.004242  0
H  H50  1  0.52344218  0.81052213  0.68466629  1  0.170046  0  0.130648  0.141523  0  1.005223  0
H  H51  1  0.01875904  0.68947722  0.81532662  1  0.174553  0  0.130542  0.141451  0  1.004269  0
H  H52  1  0.36410209  0.34724844  0.38726077  1  0.114621  0  0.118258  0.110012  0  1.008409  0
H  H53  1  0.09854673  0.15279832  0.11270775  1  0.109984  0  0.118248  0.110172  0  1.008895  0
H  H54  1  0.63590358  0.65275054  0.61274130  1  0.114631  0  0.118296  0.110052  0  1.008481  0
H  H55  1  0.90144275  0.84720216  0.88729153  1  0.110005  0  0.11831  0.110308  0  1.008862  0
H  H56  1  0.46461843  0.44246923  0.20433812  1  0.153854  0  0.139204  0.11257  0  0.999845  0
H  H57  1  0.11177869  0.05754910  0.29556670  1  0.174272  0  0.139263  0.11262  0  0.999365  0
H  H58  1  0.53538183  0.55753479  0.79566353  1  0.153881  0  0.139232  0.112583  0  0.99982  0
H  H59  1  0.88821445  0.94244996  0.70443204  1  0.174425  0  0.139254  0.112669  0  0.999329  0
H  H60  1  0.94003033  0.64231985  0.33494371  1  0.080815  0  0.101703  0.104834  0  1.021785  0
H  H61  1  0.91708455  0.85759243  0.16536492  1  0.085682  0  0.101686  0.104774  0  1.022463  0
H  H62  1  0.05996832  0.35767842  0.66505845  1  0.080868  0  0.101708  0.104833  0  1.02184  0
H  H63  1  0.08291371  0.14240514  0.83463609  1  0.085607  0  0.101703  0.104816  0  1.022395  0
H  H64  1  0.67930330  0.92668870  0.33004949  1  0.072662  0  0.106167  0.111379  0  1.005472  0
H  H65  1  0.93606049  0.57317470  0.17006945  1  0.078055  0  0.106377  0.112138  0  1.005649  0
H  H66  1  0.32070090  0.07331042  0.66994628  1  0.072608  0  0.106156  0.111349  0  1.005558  0
H  H67  1  0.06393703  0.42682283  0.82993345  1  0.078084  0  0.106341  0.112128  0  1.005701  0
H  H68  1  0.00291794  0.89067812  0.31728848  1  0.088531  0  0.107216  0.114443  0  1.009586  0
H  H69  1  0.21085678  0.60926249  0.18280151  1  0.100765  0  0.107189  0.11459  0  1.010087  0
H  H70  1  0.99708545  0.10931802  0.68271216  1  0.088538  0  0.107211  0.114432  0  1.009553  0
H  H71  1  0.78914556  0.39073593  0.81719338  1  0.100886  0  0.107162  0.114589  0  1.010119  0
H  H72  1  0.92878932  0.01413230  0.22996281  1  0.130084  0  0.099207  0.119353  0  1.052711  0
H  H73  1  0.17262695  0.48575873  0.27013281  1  0.114092  0  0.099043  0.119422  0  1.052565  0
H  H74  1  0.07120789  0.98586758  0.77003114  1  0.130178  0  0.099278  0.119426  0  1.052586  0
H  H75  1  0.82737578  0.51424034  0.72986499  1  0.114131  0  0.099056  0.119412  0  1.052642  0
H  H76  1  0.87441584  0.19074361  0.21410497  1  0.083806  0  0.094581  0.083503  0  1.087557  0
H  H77  1  0.27929585  0.30919708  0.28591497  1  0.123525  0  0.094895  0.084133  0  1.086937  0
H  H78  1  0.12557772  0.80925766  0.78589082  1  0.083822  0  0.094561  0.083486  0  1.087528  0
H  H79  1  0.72070723  0.69080130  0.71408154  1  0.123676  0  0.094865  0.084063  0  1.086998  0
H  H80  1  0.61412487  0.23886180  0.37971931  1  0.119654  0  0.10661  0.113653  0  1.009858  0
H  H81  1  0.23318934  0.26100444  0.12021139  1  0.109055  0  0.106319  0.113324  0  1.009495  0
H  H82  1  0.38588105  0.76113218  0.62028153  1  0.119561  0  0.106605  0.11363  0  1.009849  0
H  H83  1  0.76681345  0.73899755  0.87978476  1  0.109036  0  0.1063  0.11328  0  1.009421  0
H  H84  1  0.84198325  0.62435369  0.27832102  1  0.073402  0  0.095827  0.094799  0  1.043112  0
H  H85  1  0.74418797  0.87553499  0.22187963  1  0.064126  0  0.095835  0.094245  0  1.043209  0
H  H86  1  0.15801807  0.37564828  0.72167585  1  0.073455  0  0.095856  0.094821  0  1.04309  0
H  H87  1  0.25581258  0.12446547  0.77812061  1  0.064148  0  0.095836  0.094249  0  1.043276  0
H  H88  1  0.71300496  0.56068852  0.27379922  1  0.113333  0  0.106824  0.11627  0  1.00061  0
H  H89  1  0.54714555  0.93913444  0.22622132  1  0.116301  0  0.106467  0.115838  0  1.001073  0
H  H90  1  0.28699710  0.43931350  0.72619532  1  0.11317  0  0.106827  0.116295  0  1.0007  0
H  H91  1  0.45285457  0.06086384  0.77378013  1  0.116297  0  0.106473  0.115831  0  1.001015  0
H  H92  1  0.45085394  0.78699045  0.38769666  1  0.093506  0  0.108994  0.120574  0  0.994764  0
H  H93  1  0.62565281  0.71264877  0.11238219  1  0.103915  0  0.10919  0.121044  0  0.995393  0
H  H94  1  0.54914797  0.21300571  0.61230294  1  0.093479  0  0.109  0.120609  0  0.994807  0
H  H95  1  0.37434552  0.28735168  0.88761892  1  0.10368  0  0.109258  0.121156  0  0.995322  0
H  H96  1  0.02429526  0.35218367  0.56744348  1  0.100351  0  0.10704  0.109782  0  1.045955  0
H  H97  1  0.94391065  0.14778540  0.93252852  1  0.123335  0  0.10712  0.110036  0  1.045705  0
H  H98  1  0.97569973  0.64781598  0.43256097  1  0.100048  0  0.10708  0.109805  0  1.046017  0
H  H99  1  0.05608913  0.85221364  0.06747116  1  0.123383  0  0.10712  0.110021  0  1.045702  0
H  H100  1  0.09094248  0.48902970  0.38737261  1  0.114287  0  0.112798  0.134292  0  1.010781  0
H  H101  1  0.96739933  0.01105344  0.11260815  1  0.128319  0  0.112835  0.134321  0  1.01164  0
H  H102  1  0.90905325  0.51096995  0.61263170  1  0.114138  0  0.112802  0.134346  0  1.010711  0
H  H103  1  0.03259858  0.98894488  0.88739153  1  0.128307  0  0.112832  0.134329  0  1.011627  0
H  H104  1  0.08776045  0.33038188  0.36678654  1  0.136144  0  0.115684  0.113736  0  1.056866  0
H  H105  1  0.78484269  0.16969305  0.13307660  1  0.134673  0  0.115919  0.113281  0  1.057784  0
H  H106  1  0.91223355  0.66962280  0.63321796  1  0.136237  0  0.115674  0.113707  0  1.056881  0
H  H107  1  0.21515381  0.83030813  0.86692345  1  0.134693  0  0.115924  0.113301  0  1.0578  0
H  H108  1  0.25786594  0.14618262  0.35440284  1  0.188797  0  0.123844  0.134605  0  1.010931  0
H  H109  1  0.75854370  0.35380923  0.14551046  1  0.190353  0  0.124202  0.134726  0  1.011478  0
H  H110  1  0.74213629  0.85382651  0.64559523  1  0.188831  0  0.123851  0.13463  0  1.010857  0
H  H111  1  0.24145211  0.64619341  0.85448869  1  0.190346  0  0.124201  0.134702  0  1.011574  0
H  H112  1  0.22384678  0.25389300  0.51980081  1  0.19319  0  0.138095  0.116888  0  1.018328  0
H  H113  1  0.99792563  0.24595561  0.98017565  1  0.195544  0  0.13761  0.115999  0  1.019194  0
H  H114  1  0.77615338  0.74610669  0.48020178  1  0.193271  0  0.13809  0.116923  0  1.018354  0
H  H115  1  0.00207558  0.75404195  0.01982567  1  0.19555  0  0.137599  0.115999  0  1.019162  0
C  C116  1  0.70280577  0.97941394  0.96489529  1  0.455511  0  -0.000393  -0.033033  0  4.005517  0
C  C117  1  0.64751147  0.52072859  0.53506667  1  0.366744  0  -0.000978  -0.033359  0  4.006301  0
C  C118  1  0.29719343  0.02059227  0.03510499  1  0.455304  0  -0.00046  -0.033193  0  4.005816  0
C  C119  1  0.35248862  0.47926822  0.46493626  1  0.366732  0  -0.000946  -0.033309  0  4.006314  0
C  C120  1  0.66826429  0.99719417  0.02640701  1  0.239683  0  0.004697  -0.09343  0  3.894809  0
C  C121  1  0.69228809  0.50286194  0.47355662  1  0.311108  0  0.00431  -0.094346  0  3.893343  0
C  C122  1  0.33173565  0.00281203  0.97359357  1  0.240108  0  0.004685  -0.0934  0  3.89487  0
C  C123  1  0.30771049  0.49713346  0.52644501  1  0.311101  0  0.004325  -0.094342  0  3.893155  0
C  C124  1  0.69378101  0.12033299  0.97040179  1  0.970316  0  0.144815  0.100988  0  3.907515  0
C  C125  1  0.78462099  0.37963650  0.52961257  1  0.990456  0  0.145102  0.102494  0  3.906954  0
C  C126  1  0.30622079  0.87967394  0.02959792  1  0.969239  0  0.144902  0.101134  0  3.90762  0
C  C127  1  0.21537393  0.62036031  0.47039002  1  0.990647  0  0.145046  0.102426  0  3.906959  0
C  C128  1  0.62237425  0.14011924  0.08343919  1  0.260446  0  0.09525  0.159869  0  4.019454  0
C  C129  1  0.84605009  0.35978581  0.41657213  1  0.335891  0  0.095659  0.16019  0  4.019707  0
C  C130  1  0.37763005  0.85988408  0.91656177  1  0.260524  0  0.095332  0.159922  0  4.019552  0
C  C131  1  0.15394258  0.64020957  0.58343063  1  0.335501  0  0.095707  0.160333  0  4.019616  0
C  C132  1  0.64755136  0.09379982  0.13854945  1  0.040514  0  -0.08359  -0.148919  0  3.972052  0
C  C133  1  0.87996797  0.40611265  0.36144103  1  0.028897  0  -0.084151  -0.149755  0  3.973085  0
C  C134  1  0.35245442  0.90620352  0.86145035  1  0.040553  0  -0.083576  -0.148884  0  3.971935  0
C  C135  1  0.12002544  0.59388273  0.63856158  1  0.029308  0  -0.08423  -0.149898  0  3.973102  0
C  C136  1  0.60542534  0.14585334  0.19142125  1  -0.035017  0  -0.077355  -0.132534  0  3.94191  0
C  C137  1  0.94274729  0.35408841  0.30856290  1  0.023108  0  -0.077227  -0.132336  0  3.941299  0
C  C138  1  0.39458040  0.85414855  0.80857916  1  -0.035524  0  -0.077409  -0.132578  0  3.94184  0
C  C139  1  0.05724173  0.64590841  0.69143994  1  0.022917  0  -0.077337  -0.132391  0  3.941209  0
C  C140  1  0.53765404  0.24452300  0.18928326  1  0.327036  0  0.103171  0.168648  0  3.999607  0
C  C141  1  0.97150656  0.25543519  0.31069950  1  0.27052  0  0.102999  0.168731  0  3.998995  0
C  C142  1  0.46235395  0.75548033  0.81071699  1  0.326883  0  0.103189  0.168715  0  3.999411  0
C  C143  1  0.02848426  0.74455948  0.68930237  1  0.270345  0  0.103073  0.168845  0  3.998743  0
C  C144  1  0.51271346  0.29055801  0.13400138  1  -0.045881  0  -0.07912  -0.145122  0  3.981795  0
C  C145  1  0.93735168  0.20937170  0.36597935  1  -0.021087  0  -0.079173  -0.145712  0  3.981572  0
C  C146  1  0.48729123  0.70944603  0.86599942  1  -0.046085  0  -0.079107  -0.145181  0  3.981688  0
C  C147  1  0.06264469  0.79062375  0.63402007  1  -0.020581  0  -0.079215  -0.145896  0  3.98163  0
C  C148  1  0.55506590  0.23871161  0.08128696  1  0.063324  0  -0.080314  -0.144697  0  3.983167  0
C  C149  1  0.87520157  0.26118544  0.41872326  1  -0.001976  0  -0.080614  -0.144549  0  3.981348  0
C  C150  1  0.44493955  0.76129387  0.91871398  1  0.063497  0  -0.080402  -0.144917  0  3.983296  0
C  C151  1  0.12479585  0.73880779  0.58127883  1  -0.002436  0  -0.080588  -0.14455  0  3.981455  0
C  C152  1  0.45890380  0.26443082  0.30318591  1  0.269377  0  0.013523  -0.079834  0  3.892035  0
C  C153  1  0.02648351  0.23556872  0.19678981  1  0.268921  0  0.013955  -0.079982  0  3.89135  0
C  C154  1  0.54110451  0.73557034  0.69681497  1  0.269389  0  0.013586  -0.079873  0  3.892038  0
C  C155  1  0.97350334  0.76442959  0.80320978  1  0.268682  0  0.01397  -0.07986  0  3.891046  0
C  C156  1  0.40251063  0.34384429  0.33820031  1  0.416393  0  0.002489  -0.024313  0  3.97791  0
C  C157  1  0.08456856  0.15618365  0.16175715  1  0.429599  0  0.002024  -0.025732  0  3.980622  0
C  C158  1  0.59749617  0.65615546  0.66179971  1  0.416401  0  0.002451  -0.024346  0  3.978054  0
C  C159  1  0.91541909  0.84381754  0.83824284  1  0.42951  0  0.001943  -0.025953  0  3.980759  0
C  C160  1  0.45132390  0.39596914  0.24422457  1  0.958316  0  0.145659  0.104211  0  3.891733  0
C  C161  1  0.09171473  0.10405489  0.25570644  1  0.959124  0  0.146187  0.103804  0  3.891141  0
C  C162  1  0.54867931  0.60403488  0.75577696  1  0.958385  0  0.145529  0.104089  0  3.891732  0
C  C163  1  0.90827619  0.89594416  0.74429273  1  0.959088  0  0.146229  0.103758  0  3.891262  0
C  C164  1  0.09925594  0.69516812  0.32682192  1  1.547853  0  0.195496  0.555731  0  4.221956  0
C  C165  1  0.12094284  0.80488856  0.17337827  1  1.548773  0  0.194743  0.555857  0  4.224111  0
C  C166  1  0.90074524  0.30482801  0.67317914  1  1.547873  0  0.195507  0.555762  0  4.222007  0
C  C167  1  0.87905619  0.19511048  0.82662111  1  1.548781  0  0.194798  0.555959  0  4.224129  0
C  C168  1  0.98255820  0.75995268  0.32686039  1  0.03684  0  -0.022975  -0.035608  0  4.008652  0
C  C169  1  0.06921033  0.73998190  0.17333294  1  -0.052931  0  -0.023126  -0.036144  0  4.009609  0
C  C170  1  0.01744484  0.24004418  0.67313979  1  0.036532  0  -0.022973  -0.035656  0  4.008747  0
C  C171  1  0.93078797  0.26001714  0.82666658  1  -0.052918  0  -0.023055  -0.036268  0  4.009694  0
C  C172  1  0.90940593  0.72031241  0.33226104  1  -0.021661  0  -0.084563  -0.14713  0  3.942288  0
C  C173  1  0.96177623  0.77959107  0.16797912  1  -0.044004  0  -0.083785  -0.145899  0  3.941491  0
C  C174  1  0.09059420  0.27968590  0.66773909  1  -0.021433  0  -0.084573  -0.147116  0  3.942293  0
C  C175  1  0.03822425  0.22040652  0.83202103  1  -0.043842  0  -0.083807  -0.145868  0  3.941473  0
C  C176  1  0.79907027  0.77927019  0.33502334  1  -0.060096  0  -0.00672  0.072313  0  3.999979  0
C  C177  1  0.91320211  0.72061837  0.16519093  1  -0.068342  0  -0.007102  0.072992  0  4.000271  0
C  C178  1  0.20093207  0.22072814  0.66497550  1  -0.059849  0  -0.006702  0.072289  0  3.999983  0
C  C179  1  0.08679724  0.27937846  0.83481083  1  -0.068682  0  -0.007099  0.072956  0  4.000296  0
C  C180  1  0.76427087  0.87966109  0.32993771  1  0.007444  0  -0.078788  -0.153955  0  3.892288  0
C  C181  1  0.97383090  0.62023527  0.17019585  1  0.017809  0  -0.079078  -0.155581  0  3.895926  0
C  C182  1  0.23573443  0.12033730  0.67005837  1  0.007414  0  -0.078794  -0.153986  0  3.89243  0
C  C183  1  0.02616701  0.37976300  0.82980558  1  0.017744  0  -0.079057  -0.155575  0  3.895894  0
C  C184  1  0.83691878  0.92071926  0.32242085  1  -0.029756  0  -0.004574  0.078725  0  3.995019  0
C  C185  1  0.08004369  0.57918478  0.17765413  1  -0.003768  0  -0.004951  0.078635  0  3.995831  0
C  C186  1  0.16308687  0.07927840  0.67757613  1  -0.029949  0  -0.004572  0.07882  0  3.994879  0
C  C187  1  0.91995573  0.42081496  0.82234597  1  -0.003791  0  -0.004957  0.078636  0  3.995835  0
C  C188  1  0.94605063  0.85980982  0.32177305  1  -0.074153  0  -0.077181  -0.123654  0  3.903744  0
C  C189  1  0.12758496  0.64011329  0.17833633  1  -0.015104  0  -0.076932  -0.123915  0  3.903582  0
C  C190  1  0.05395315  0.14018708  0.67822567  1  -0.074087  0  -0.07719  -0.123682  0  3.903685  0
C  C191  1  0.87241481  0.35988577  0.82166203  1  -0.01524  0  -0.076954  -0.123877  0  3.903651  0
C  C192  1  0.80200321  0.02634056  0.31388772  1  -0.022676  0  0.000375  0.053437  0  3.957169  0
C  C193  1  0.14221961  0.47355185  0.18615787  1  0.001746  0  0.000601  0.054195  0  3.956658  0
C  C194  1  0.19800093  0.97365565  0.68610971  1  -0.022767  0  0.000445  0.053492  0  3.956997  0
C  C195  1  0.85778091  0.52644722  0.81383992  1  0.001636  0  0.000634  0.054208  0  3.956656  0
C  C196  1  0.86000540  0.06386394  0.26291040  1  -0.109414  0  -0.098753  -0.150732  0  3.968413  0
C  C197  1  0.18666585  0.43601997  0.23715548  1  -0.064238  0  -0.098437  -0.150705  0  3.96789  0
C  C198  1  0.13999217  0.93613518  0.73708532  1  -0.10951  0  -0.098783  -0.150758  0  3.968341  0
C  C199  1  0.81333754  0.56397620  0.76284384  1  -0.064258  0  -0.09849  -0.150755  0  3.96807  0
C  C200  1  0.83005964  0.16239216  0.25417327  1  0.014484  0  -0.093542  -0.099726  0  4.009625  0
C  C201  1  0.24668170  0.33749943  0.24584763  1  -0.112576  0  -0.093841  -0.10047  0  4.011969  0
C  C202  1  0.16993609  0.83760765  0.74582359  1  0.014555  0  -0.093611  -0.099833  0  4.00968  0
C  C203  1  0.75332064  0.66249892  0.75415077  1  -0.111809  0  -0.093839  -0.100406  0  4.011981  0
C  C204  1  0.74291817  0.22644689  0.29688038  1  -0.021765  0  -0.026902  -0.056005  0  4.012239  0
C  C205  1  0.26651757  0.27345550  0.20308855  1  -0.061276  0  -0.026915  -0.05538  0  4.014246  0
C  C206  1  0.25708118  0.77355002  0.70311831  1  -0.021903  0  -0.026874  -0.055983  0  4.012138  0
C  C207  1  0.73347971  0.72654719  0.79690812  1  -0.062294  0  -0.026792  -0.055321  0  4.014212  0
C  C208  1  0.68338778  0.19005042  0.34680903  1  -0.041941  0  -0.084414  -0.118281  0  3.974081  0
C  C209  1  0.22053478  0.30984876  0.15315210  1  0.026104  0  -0.08426  -0.118634  0  3.975707  0
C  C210  1  0.31661600  0.80994645  0.65319101  1  -0.041713  0  -0.084391  -0.118241  0  3.974029  0
C  C211  1  0.77946795  0.69015035  0.84684439  1  0.026225  0  -0.084274  -0.118627  0  3.975476  0
C  C212  1  0.71169122  0.09165803  0.35511197  1  -0.073032  0  -0.014111  -0.063964  0  3.951355  0
C  C213  1  0.15859313  0.40822564  0.14489316  1  -0.041646  0  -0.013518  -0.063421  0  3.95386  0
C  C214  1  0.28831696  0.90833741  0.64488783  1  -0.072766  0  -0.014088  -0.063924  0  3.951345  0
C  C215  1  0.84140963  0.59177486  0.85510536  1  -0.041352  0  -0.013514  -0.063369  0  3.953752  0
C  C216  1  0.71296559  0.33172563  0.28848578  1  1.521638  0  0.219591  0.575292  0  4.141186  0
C  C217  1  0.33355009  0.16817433  0.21146876  1  1.519408  0  0.220103  0.574962  0  4.140197  0
C  C218  1  0.28703521  0.66826986  0.71151193  1  1.521658  0  0.219625  0.575406  0  4.141015  0
C  C219  1  0.66645376  0.83182549  0.78852787  1  1.519806  0  0.220024  0.574871  0  4.140122  0
C  C220  1  0.64265796  0.05980763  0.40989953  1  1.607617  0  0.208171  0.595707  0  4.230129  0
C  C221  1  0.11247620  0.44015608  0.09010953  1  1.578315  0  0.207332  0.593787  0  4.234372  0
C  C222  1  0.35735825  0.94018485  0.59010433  1  1.607673  0  0.207943  0.595531  0  4.23031  0
C  C223  1  0.88752768  0.55984516  0.90988781  1  1.577728  0  0.207197  0.593539  0  4.234391  0
C  C224  1  0.72207748  0.73766833  0.33890131  1  -0.048426  0  -0.001886  0.049406  0  3.954832  0
C  C225  1  0.79848829  0.76211236  0.16132381  1  -0.019295  0  -0.001356  0.0476  0  3.958344  0
C  C226  1  0.27792486  0.26233003  0.66109621  1  -0.048735  0  -0.001879  0.049394  0  3.954913  0
C  C227  1  0.20151032  0.23788447  0.83867809  1  -0.018901  0  -0.001308  0.047633  0  3.958394  0
C  C228  1  0.75683543  0.65717407  0.30491285  1  -0.051132  0  -0.09453  -0.140192  0  3.994774  0
C  C229  1  0.71863045  0.84261093  0.19527860  1  -0.084884  0  -0.094311  -0.138172  0  3.994811  0
C  C230  1  0.24316733  0.34282647  0.69508347  1  -0.051123  0  -0.094567  -0.140127  0  3.994777  0
C  C231  1  0.28136897  0.15738880  0.80472238  1  -0.084878  0  -0.094332  -0.138231  0  3.994961  0
C  C232  1  0.68442220  0.62243311  0.30117541  1  -0.023929  0  -0.084277  -0.096104  0  3.966426  0
C  C233  1  0.60777099  0.87732070  0.19892990  1  -0.031797  0  -0.084286  -0.096316  0  3.967241  0
C  C234  1  0.31557983  0.37756743  0.69882105  1  -0.023737  0  -0.084327  -0.09629  0  3.966685  0
C  C235  1  0.39222916  0.12267901  0.80107181  1  -0.031789  0  -0.084288  -0.096235  0  3.967192  0
C  C236  1  0.57280632  0.67067321  0.33015398  1  -0.106606  0  -0.020465  -0.036151  0  4.002504  0
C  C237  1  0.57348336  0.82905125  0.16991877  1  -0.022977  0  -0.020633  -0.036169  0  4.003455  0
C  C238  1  0.42719676  0.32932513  0.66984427  1  -0.106333  0  -0.02044  -0.036049  0  4.002451  0
C  C239  1  0.42651528  0.17094699  0.83008427  1  -0.023003  0  -0.020572  -0.036108  0  4.003447  0
C  C240  1  0.53743949  0.74958082  0.36495587  1  0.056022  0  -0.07845  -0.106006  0  3.944345  0
C  C241  1  0.65194194  0.75008903  0.13518620  1  0.004093  0  -0.078203  -0.106813  0  3.945388  0
C  C242  1  0.46256394  0.25041679  0.63504328  1  0.055688  0  -0.078475  -0.106068  0  3.944376  0
C  C243  1  0.34805488  0.24990993  0.86481667  1  0.00435  0  -0.078354  -0.107127  0  3.945428  0
C  C244  1  0.61067889  0.78118859  0.37142407  1  -0.033436  0  -0.012543  -0.064451  0  3.93302  0
C  C245  1  0.76324437  0.71853963  0.12877563  1  -0.060165  0  -0.013323  -0.063509  0  3.933468  0
C  C246  1  0.38932200  0.21881118  0.62857488  1  -0.033388  0  -0.012522  -0.06443  0  3.933127  0
C  C247  1  0.23675350  0.28145718  0.87122729  1  -0.060166  0  -0.013296  -0.063374  0  3.933237  0
C  C248  1  0.48914922  0.64252806  0.32414453  1  1.556603  0  0.199643  0.572123  0  4.212633  0
C  C249  1  0.45568380  0.85728515  0.17582386  1  1.551697  0  0.199433  0.57176  0  4.212812  0
C  C250  1  0.51085274  0.35746955  0.67585446  1  1.556611  0  0.199655  0.572141  0  4.212717  0
C  C251  1  0.54431270  0.14271592  0.82418101  1  1.551689  0  0.199369  0.571608  0  4.212989  0
C  C252  1  0.56463878  0.85994265  0.41535782  1  1.586413  0  0.204027  0.585055  0  4.233697  0
C  C253  1  0.83992386  0.63983100  0.08481151  1  1.60383  0  0.203988  0.583918  0  4.237791  0
C  C254  1  0.43536250  0.14005785  0.58464054  1  1.586642  0  0.20408  0.585072  0  4.233761  0
C  C255  1  0.16007510  0.36016507  0.91519216  1  1.603249  0  0.203998  0.583979  0  4.237757  0
C  C256  1  0.01419615  0.41727002  0.53829643  1  -0.073263  0  -0.087709  -0.150124  0  3.992454  0
C  C257  1  0.96975642  0.08270732  0.96168035  1  -0.052259  0  -0.088278  -0.151773  0  3.99392  0
C  C258  1  0.98579775  0.58273033  0.46170859  1  -0.07284  0  -0.087735  -0.150179  0  3.992547  0
C  C259  1  0.03024297  0.91729098  0.03831992  1  -0.052357  0  -0.088256  -0.151739  0  3.993912  0
C  C260  1  0.06313165  0.41100934  0.47505718  1  0.322792  0  0.09205  0.155759  0  4.037422  0
C  C261  1  0.94925490  0.08898516  0.02490300  1  0.269913  0  0.092503  0.157754  0  4.03754  0
C  C262  1  0.93686263  0.58899176  0.52494681  1  0.322607  0  0.092071  0.155863  0  4.037394  0
C  C263  1  0.05074199  0.91101673  0.97509778  1  0.269575  0  0.092514  0.157772  0  4.037632  0
C  C264  1  0.04930770  0.49325123  0.43627975  1  0.055809  0  -0.086659  -0.144947  0  3.962423  0
C  C265  1  0.97888041  0.00678180  0.06371419  1  0.031245  0  -0.08616  -0.14403  0  3.962441  0
C  C266  1  0.95068767  0.50674915  0.56372411  1  0.05596  0  -0.086713  -0.145124  0  3.96234  0
C  C267  1  0.02111968  0.99321508  0.93628523  1  0.031234  0  -0.086108  -0.144025  0  3.962518  0
C  C268  1  0.14083699  0.28649214  0.39611701  1  0.272431  0  -0.001579  -0.107304  0  3.92689  0
C  C269  1  0.82347250  0.21354755  0.10378106  1  0.306698  0  -0.001797  -0.106062  0  3.928754  0
C  C270  1  0.85916032  0.71351187  0.60388520  1  0.272655  0  -0.0016  -0.107303  0  3.926752  0
C  C271  1  0.17652583  0.78645292  0.89621873  1  0.306765  0  -0.00182  -0.106158  0  3.928562  0
C  C272  1  0.22324622  0.19503984  0.39142777  1  0.38742  0  0.005703  -0.020381  0  3.969843  0
C  C273  1  0.80984156  0.30495025  0.10848847  1  0.361118  0  0.00535  -0.020734  0  3.969263  0
C  C274  1  0.77675337  0.80496710  0.60857192  1  0.387388  0  0.005737  -0.020286  0  3.9697  0
C  C275  1  0.19015670  0.69504736  0.89151078  1  0.361108  0  0.005404  -0.02063  0  3.969228  0
C  C276  1  0.20839251  0.24791403  0.47747210  1  0.957314  0  0.144146  0.098773  0  3.885046  0
C  C277  1  0.93407270  0.25199088  0.02248291  1  0.944305  0  0.144315  0.099197  0  3.887649  0
C  C278  1  0.79160803  0.75208638  0.52253033  1  0.957291  0  0.144143  0.09876  0  3.885212  0
C  C279  1  0.06592820  0.74800886  0.97751735  1  0.944279  0  0.144273  0.09905  0  3.88761  0
N  N280  1  0.71905367  0.05636094  0.93060421  1  -1.210327  0  -0.344856  -0.285963  0  3.494254  0
N  N281  1  0.70620802  0.44373494  0.56938508  1  -1.203861  0  -0.344898  -0.286902  0  3.496021  0
N  N282  1  0.28094595  0.94364743  0.06939574  1  -1.209507  0  -0.344805  -0.285857  0  3.494343  0
N  N283  1  0.29378845  0.55626473  0.43061821  1  -1.203838  0  -0.344893  -0.286843  0  3.495838  0
N  N284  1  0.66213313  0.08760033  0.02949435  1  -1.269197  0  -0.223036  0.006337  0  3.790347  0
N  N285  1  0.77943700  0.41235061  0.47050734  1  -1.27249  0  -0.22252  0.007928  0  3.789139  0
N  N286  1  0.33787120  0.91240443  0.97050600  1  -1.268884  0  -0.223034  0.006367  0  3.790321  0
N  N287  1  0.22055824  0.58764405  0.52949544  1  -1.272456  0  -0.222521  0.007871  0  3.78888  0
N  N288  1  0.48939976  0.29820376  0.24313014  1  -1.238967  0  -0.223189  -0.002485  0  3.786116  0
N  N289  1  0.03080678  0.20179405  0.25683415  1  -1.262136  0  -0.223412  -0.000934  0  3.783897  0
N  N290  1  0.51060451  0.70179810  0.75687186  1  -1.238883  0  -0.223153  -0.002415  0  3.785966  0
N  N291  1  0.96918118  0.79820497  0.74316602  1  -1.262192  0  -0.223392  -0.000953  0  3.784001  0
N  N292  1  0.39862435  0.42512956  0.30099842  1  -1.190525  0  -0.345712  -0.27962  0  3.491935  0
N  N293  1  0.12490219  0.07491064  0.19893039  1  -1.200484  0  -0.345812  -0.27881  0  3.492818  0
N  N294  1  0.60137953  0.57487160  0.69900286  1  -1.190631  0  -0.345678  -0.27953  0  3.491931  0
N  N295  1  0.87508838  0.92508914  0.80106832  1  -1.200518  0  -0.345804  -0.278766  0  3.493033  0
N  N296  1  0.26448534  0.17270878  0.44218418  1  -1.223878  0  -0.362417  -0.26968  0  3.525749  0
N  N297  1  0.87966087  0.32720111  0.05777216  1  -1.220412  0  -0.361751  -0.268057  0  3.524562  0
N  N298  1  0.73551823  0.82729457  0.55781560  1  -1.224202  0  -0.362441  -0.269727  0  3.525773  0
N  N299  1  0.12034038  0.67279795  0.94222636  1  -1.220429  0  -0.361744  -0.267995  0  3.524497  0
N  N300  1  0.13214740  0.31889830  0.45093899  1  -1.299988  0  -0.228737  0.006194  0  3.830127  0
N  N301  1  0.90210518  0.18109004  0.04899103  1  -1.279972  0  -0.229594  0.003208  0  3.835662  0
N  N302  1  0.86785019  0.68110210  0.54906400  1  -1.300188  0  -0.228739  0.006063  0  3.830327  0
N  N303  1  0.09789171  0.81891184  0.95101019  1  -1.279703  0  -0.229581  0.003318  0  3.835491  0
O  O304  1  0.75560427  0.36883690  0.24223942  1  -1.159822  0  -0.304051  -0.516254  0  2.121002  0
O  O305  1  0.36699185  0.13105636  0.25773743  1  -1.159025  0  -0.303901  -0.515673  0  2.120043  0
O  O306  1  0.24439290  0.63116145  0.75775908  1  -1.159859  0  -0.304026  -0.516252  0  2.120958  0
O  O307  1  0.63300613  0.86894485  0.74226146  1  -1.159136  0  -0.303862  -0.515625  0  2.119877  0
O  O308  1  0.63523687  0.38123039  0.33616639  1  -1.181218  0  -0.345788  -0.507212  0  2.302324  0
O  O309  1  0.35312325  0.11864277  0.16377394  1  -1.179981  0  -0.34608  -0.507025  0  2.303233  0
O  O310  1  0.36476104  0.61876794  0.66383285  1  -1.181277  0  -0.345808  -0.507272  0  2.302401  0
O  O311  1  0.64688243  0.88135632  0.83622331  1  -1.180312  0  -0.346061  -0.506942  0  2.303192  0
O  O312  1  0.54290448  0.09189265  0.40981832  1  -1.164744  0  -0.32827  -0.564387  0  2.288639  0
O  O313  1  0.04467014  0.40816198  0.09016094  1  -1.157105  0  -0.327819  -0.563523  0  2.288036  0
O  O314  1  0.45710695  0.90810045  0.59019031  1  -1.165004  0  -0.32824  -0.564341  0  2.288869  0
O  O315  1  0.95533160  0.59184214  0.90983604  1  -1.156819  0  -0.32778  -0.563416  0  2.287874  0
O  O316  1  0.68870030  0.00675511  0.45084340  1  -1.152268  0  -0.325602  -0.536568  0  2.254205  0
O  O317  1  0.14639092  0.49327844  0.04920008  1  -1.140983  0  -0.325667  -0.53591  0  2.253751  0
O  O318  1  0.31132037  0.99323885  0.54915814  1  -1.15202  0  -0.3255  -0.536488  0  2.253979  0
O  O319  1  0.85361447  0.50672424  0.95079681  1  -1.140799  0  -0.325582  -0.53575  0  2.253761  0
O  O320  1  0.47511125  0.93031436  0.41005478  1  -1.150436  0  -0.3306  -0.535885  0  2.233552  0
O  O321  1  0.81542101  0.56950347  0.09004807  1  -1.142456  0  -0.330563  -0.535543  0  2.235969  0
O  O322  1  0.52488631  0.06968469  0.58994401  1  -1.150647  0  -0.330618  -0.535855  0  2.233644  0
O  O323  1  0.18457616  0.43049480  0.90995350  1  -1.142429  0  -0.330542  -0.535577  0  2.236037  0
O  O324  1  0.61609814  0.84820504  0.45475579  1  -1.167083  0  -0.326526  -0.57831  0  2.300306  0
O  O325  1  0.91906235  0.65158186  0.04540412  1  -1.17714  0  -0.32617  -0.577392  0  2.302174  0
O  O326  1  0.38390251  0.15179981  0.54524088  1  -1.167155  0  -0.326585  -0.578378  0  2.300274  0
O  O327  1  0.08093956  0.34841421  0.95459986  1  -1.17662  0  -0.326184  -0.577412  0  2.30211  0
O  O328  1  0.39084038  0.70519874  0.33180492  1  -1.170774  0  -0.328546  -0.56267  0  2.177243  0
O  O329  1  0.42761788  0.79466754  0.16819350  1  -1.167472  0  -0.328081  -0.562231  0  2.177209  0
O  O330  1  0.60916234  0.29480030  0.66819420  1  -1.170839  0  -0.32858  -0.562724  0  2.177278  0
O  O331  1  0.57237531  0.20533420  0.83181411  1  -1.16759  0  -0.328092  -0.56219  0  2.177276  0
O  O332  1  0.51800879  0.55583622  0.31153202  1  -1.18981  0  -0.326696  -0.569931  0  2.268886  0
O  O333  1  0.38533266  0.94404923  0.18831538  1  -1.190213  0  -0.327086  -0.570075  0  2.268213  0
O  O334  1  0.48199207  0.44416206  0.68846973  1  -1.189747  0  -0.326678  -0.569918  0  2.268836  0
O  O335  1  0.61466643  0.05595252  0.81169155  1  -1.190081  0  -0.327068  -0.570009  0  2.268346  0
O  O336  1  0.13514314  0.60530933  0.32350149  1  -1.17197  0  -0.3202  -0.555463  0  2.212296  0
O  O337  1  0.06359536  0.89474838  0.17656644  1  -1.177829  0  -0.319791  -0.55584  0  2.213962  0
O  O338  1  0.86485843  0.39468752  0.67649941  1  -1.171938  0  -0.320165  -0.555407  0  2.212212  0
O  O339  1  0.93640477  0.10524997  0.82343194  1  -1.177841  0  -0.319856  -0.555942  0  2.21397  0
O  O340  1  0.16020794  0.73294119  0.33135955  1  -1.184428  0  -0.329013  -0.570812  0  2.270466  0
O  O341  1  0.22415367  0.76721973  0.16898528  1  -1.19067  0  -0.32861  -0.570324  0  2.272542  0
O  O342  1  0.83979289  0.26705565  0.66864193  1  -1.184459  0  -0.329036  -0.570825  0  2.270434  0
O  O343  1  0.77584575  0.23278002  0.83101482  1  -1.190746  0  -0.328613  -0.570331  0  2.272591  0
O  O344  1  0.37750282  0.62126696  0.21383274  1  -1.246625  0  -0.584534  -0.753431  0  2.016317  0
O  O345  1  0.21271269  0.87884392  0.28621687  1  -1.261731  0  -0.584534  -0.754044  0  2.011352  0
O  O346  1  0.62249558  0.37873629  0.78617153  1  -1.246616  0  -0.584629  -0.753548  0  2.01605  0
O  O347  1  0.78728670  0.12115437  0.71378384  1  -1.261801  0  -0.584504  -0.754047  0  2.011378  0
