# generated using pymatgen
data_CdH16C16(NO2)2
_symmetry_space_group_name_H-M   'P 1'
_cell_length_a   5.05269542
_cell_length_b   8.04306621
_cell_length_c   9.72468525
_cell_angle_alpha   67.73126199
_cell_angle_beta   80.18741188
_cell_angle_gamma   76.22782125
_symmetry_Int_Tables_number   1
_chemical_formula_structural   CdH16C16(NO2)2
_chemical_formula_sum   'Cd1 H16 C16 N2 O4'
_cell_volume   353.79550232
_cell_formula_units_Z   1
loop_
 _symmetry_equiv_pos_site_id
 _symmetry_equiv_pos_as_xyz
  1  'x, y, z'
loop_
 _atom_site_type_symbol
 _atom_site_label
 _atom_site_symmetry_multiplicity
 _atom_site_fract_x
 _atom_site_fract_y
 _atom_site_fract_z
 _atom_site_occupancy
 _atom_site_hle17_bader_spin_density
 _atom_site_hle17_ddec_charge
 _atom_site_hle17_ddec_spin_density
 _atom_site_hle17_ddec_sum_bond_order
 _atom_site_hle17_magmom
 _atom_site_hse06_10hf_bader_spin_density
 _atom_site_hse06_10hf_ddec_charge
 _atom_site_hse06_10hf_ddec_spin_density
 _atom_site_hse06_10hf_ddec_sum_bond_order
 _atom_site_hse06_10hf_magmom
 _atom_site_hse06_bader_spin_density
 _atom_site_hse06_ddec_charge
 _atom_site_hse06_ddec_spin_density
 _atom_site_hse06_ddec_sum_bond_order
 _atom_site_hse06_magmom
 _atom_site_pbe_bader_spin_density
 _atom_site_pbe_cm5_charge
 _atom_site_pbe_ddec_charge
 _atom_site_pbe_ddec_spin_density
 _atom_site_pbe_ddec_sum_bond_order
 _atom_site_pbe_magmom
Cd  Cd0  1  0.50000895  0.00000423  0.99999817  1  0  1.174741  0  1.611079  0  0  0.973092  0  2.061439  0  0  1.03138  0  2.007854  0  0  0.779955  0.932083  0  2.098025  0
H  H1  1  0.21061148  0.68176447  0.98640502  1  0  0.089856  0  0.989271  0  0  0.097207  0  1.052574  0  0  0.100388  0  1.050011  0  0  0.112646  0.09481  0  1.054771  0
H  H2  1  0.78935948  0.31823118  0.01360038  1  0  0.089996  0  0.98922  0  0  0.097293  0  1.052628  0  0  0.100476  0  1.050061  0  0  0.112657  0.094882  0  1.05485  0
H  H3  1  0.24404922  0.47787032  0.83884696  1  0  0.114988  0  0.962489  0  0  0.124398  0  1.021049  0  0  0.1277  0  1.020529  0  0  0.106737  0.12215  0  1.021381  0
H  H4  1  0.75595036  0.52213788  0.16114507  1  0  0.114985  0  0.962433  0  0  0.124386  0  1.021009  0  0  0.127688  0  1.020488  0  0  0.106728  0.122135  0  1.021346  0
H  H5  1  0.54911129  0.53117768  0.60268481  1  0  0.091862  0  0.961079  0  0  0.103228  0  1.026548  0  0  0.105719  0  1.024663  0  0  0.103905  0.101343  0  1.028082  0
H  H6  1  0.45089336  0.46881951  0.39731738  1  0  0.09189  0  0.961049  0  0  0.103285  0  1.026484  0  0  0.105776  0  1.024599  0  0  0.103895  0.101396  0  1.028025  0
H  H7  1  0.78934760  0.95660093  0.69446869  1  0  0.079931  0  0.996833  0  0  0.086577  0  1.066696  0  0  0.089289  0  1.064823  0  0  0.110456  0.084642  0  1.068136  0
H  H8  1  0.21063927  0.04339476  0.30554055  1  0  0.079852  0  0.996663  0  0  0.086532  0  1.066526  0  0  0.089249  0  1.064644  0  0  0.110423  0.084592  0  1.067973  0
H  H9  1  0.84757018  0.95211729  0.43369113  1  0  0.075617  0  0.941639  0  0  0.09595  0  1.001742  0  0  0.09585  0  1.003452  0  0  0.096461  0.096137  0  1.000447  0
H  H10  1  0.15244222  0.04787299  0.56632386  1  0  0.075552  0  0.94166  0  0  0.095899  0  1.001767  0  0  0.095799  0  1.003481  0  0  0.096432  0.096088  0  1.000469  0
H  H11  1  0.09153461  0.75379219  0.50567948  1  0  0.071118  0  0.951602  0  0  0.087277  0  1.022249  0  0  0.087632  0  1.022343  0  0  0.090914  0.087063  0  1.022157  0
H  H12  1  0.90848005  0.24619133  0.49432814  1  0  0.071157  0  0.951561  0  0  0.087307  0  1.022218  0  0  0.087666  0  1.022307  0  0  0.090918  0.087069  0  1.022146  0
H  H13  1  0.60544863  0.77032751  0.34429273  1  0  0.106518  0  0.965134  0  0  0.117327  0  1.035111  0  0  0.120031  0  1.033538  0  0  0.096698  0.115553  0  1.036037  0
H  H14  1  0.39456391  0.22967654  0.65571083  1  0  0.106523  0  0.965013  0  0  0.117334  0  1.034978  0  0  0.120034  0  1.033402  0  0  0.09669  0.11555  0  1.035916  0
H  H15  1  0.87293835  0.58174741  0.40363985  1  0  0.093381  0  0.948033  0  0  0.112724  0  1.007111  0  0  0.11368  0  1.008041  0  0  0.097412  0.111986  0  1.006675  0
H  H16  1  0.12704999  0.41825798  0.59635499  1  0  0.093373  0  0.948125  0  0  0.112698  0  1.007216  0  0  0.11365  0  1.008146  0  0  0.097398  0.11196  0  1.006776  0
C  C17  1  0.35080905  0.69368536  0.88627802  1  0  0.112317  0  3.710037  0  0  0.080004  0  3.961437  0  0  0.08625  0  3.979944  0  0  0.037643  0.075762  0  3.948841  0
C  C18  1  0.64917526  0.30634743  0.11370670  1  0  0.112351  0  3.709516  0  0  0.079978  0  3.96104  0  0  0.086225  0  3.979542  0  0  0.037642  0.075737  0  3.948445  0
C  C19  1  0.36401046  0.58591491  0.80126268  1  0  -0.116766  0  3.740184  0  0  -0.127782  0  3.994338  0  0  -0.134822  0  4.016426  0  0  -0.086936  -0.123145  0  3.979412  0
C  C20  1  0.63598715  0.41408492  0.19874750  1  0  -0.116713  0  3.740189  0  0  -0.12769  0  3.994373  0  0  -0.134731  0  4.016464  0  0  -0.086918  -0.123049  0  3.979441  0
C  C21  1  0.53642998  0.61564233  0.66949942  1  0  -0.067  0  3.711875  0  0  -0.092337  0  3.956698  0  0  -0.090556  0  3.976817  0  0  -0.075024  -0.093295  0  3.943253  0
C  C22  1  0.46355700  0.38436026  0.33050256  1  0  -0.06719  0  3.711596  0  0  -0.092575  0  3.956415  0  0  -0.090793  0  3.976533  0  0  -0.075074  -0.09353  0  3.942971  0
C  C23  1  0.69243159  0.75252761  0.62490563  1  0  0.039146  0  3.730507  0  0  0.067804  0  3.965366  0  0  0.062736  0  3.991474  0  0  -0.008581  0.070781  0  3.948  0
C  C24  1  0.30755089  0.24746409  0.37508873  1  0  0.039046  0  3.730367  0  0  0.067768  0  3.965184  0  0  0.0627  0  3.991297  0  0  -0.008642  0.07074  0  3.947815  0
C  C25  1  0.67205478  0.84931280  0.72067316  1  0  0.063998  0  3.686916  0  0  0.027606  0  3.932718  0  0  0.03349  0  3.951591  0  0  0.037577  0.02383  0  3.920067  0
C  C26  1  0.32797218  0.15067774  0.27932000  1  0  0.064163  0  3.686819  0  0  0.027772  0  3.93248  0  0  0.033656  0  3.951352  0  0  0.037675  0.023998  0  3.919827  0
C  C27  1  0.87548820  0.80187787  0.48126586  1  0  -0.124644  0  3.741903  0  0  -0.175059  0  3.995501  0  0  -0.174197  0  4.009046  0  0  -0.161542  -0.175348  0  3.985976  0
C  C28  1  0.12453066  0.19811946  0.51872793  1  0  -0.124576  0  3.741918  0  0  -0.175019  0  3.995484  0  0  -0.174164  0  4.00902  0  0  -0.161533  -0.175296  0  3.985963  0
C  C29  1  0.82283629  0.73256036  0.36462057  1  0  -0.280038  0  3.684002  0  0  -0.319294  0  3.937347  0  0  -0.325188  0  3.945418  0  0  -0.174113  -0.315009  0  3.931506  0
C  C30  1  0.17716867  0.26744915  0.63537988  1  0  -0.280006  0  3.683752  0  0  -0.319241  0  3.937087  0  0  -0.325108  0  3.945133  0  0  -0.174072  -0.314947  0  3.931237  0
C  C31  1  0.99062041  0.79784346  0.21441528  1  0  0.714371  0  3.837458  0  0  0.662175  0  4.143015  0  0  0.696659  0  4.135362  0  0  0.20875  0.638592  0  4.147669  0
C  C32  1  0.00938348  0.20216335  0.78558094  1  0  0.714305  0  3.837469  0  0  0.662133  0  4.142975  0  0  0.696609  0  4.135324  0  0  0.208775  0.638546  0  4.147628  0
N  N33  1  0.50583131  0.82232041  0.84759540  1  0  -0.326569  0  3.23145  0  0  -0.246438  0  3.493405  0  0  -0.266165  0  3.512582  0  0  -0.323139  -0.232375  0  3.479706  0
N  N34  1  0.49417506  0.17767134  0.15240420  1  0  -0.326638  0  3.231165  0  0  -0.246473  0  3.493142  0  0  -0.266205  0  3.512328  0  0  -0.323129  -0.232399  0  3.479421  0
O  O35  1  0.89098330  0.80400683  0.10033094  1  0  -0.675603  0  2.04502  0  0  -0.610203  0  2.308801  0  0  -0.637697  0  2.295209  0  0  -0.339199  -0.591378  0  2.318093  0
O  O36  1  0.10901454  0.19598622  0.89967307  1  0  -0.675574  0  2.045006  0  0  -0.6102  0  2.308778  0  0  -0.637698  0  2.295193  0  0  -0.339189  -0.591369  0  2.318066  0
O  O37  1  0.22311274  0.83414728  0.21203929  1  0  -0.649855  0  1.997843  0  0  -0.577738  0  2.250545  0  0  -0.606521  0  2.239697  0  0  -0.320636  -0.558161  0  2.257594  0
O  O38  1  0.77688623  0.16586221  0.78796063  1  0  -0.649868  0  1.997895  0  0  -0.577705  0  2.250522  0  0  -0.606487  0  2.239678  0  0  -0.320658  -0.558125  0  2.257569  0
