# generated using pymatgen
data_MnH8C7N10
_symmetry_space_group_name_H-M   'P 1'
_cell_length_a   7.47102208
_cell_length_b   8.76698305
_cell_length_c   16.76745468
_cell_angle_alpha   89.99971338
_cell_angle_beta   94.21186903
_cell_angle_gamma   89.99985773
_symmetry_Int_Tables_number   1
_chemical_formula_structural   MnH8C7N10
_chemical_formula_sum   'Mn4 H32 C28 N40'
_cell_volume   1095.27414293
_cell_formula_units_Z   4
loop_
 _symmetry_equiv_pos_site_id
 _symmetry_equiv_pos_as_xyz
  1  'x, y, z'
loop_
 _atom_site_type_symbol
 _atom_site_label
 _atom_site_symmetry_multiplicity
 _atom_site_fract_x
 _atom_site_fract_y
 _atom_site_fract_z
 _atom_site_occupancy
 _atom_site_hle17_ddec_charge
 _atom_site_hle17_ddec_spin_density
 _atom_site_hle17_ddec_sum_bond_order
 _atom_site_hle17_magmom
 _atom_site_hse06_10hf_ddec_charge
 _atom_site_hse06_10hf_ddec_spin_density
 _atom_site_hse06_10hf_ddec_sum_bond_order
 _atom_site_hse06_10hf_magmom
 _atom_site_hse06_ddec_charge
 _atom_site_hse06_ddec_spin_density
 _atom_site_hse06_ddec_sum_bond_order
 _atom_site_hse06_magmom
 _atom_site_pbe_cm5_charge
 _atom_site_pbe_ddec_charge
 _atom_site_pbe_ddec_spin_density
 _atom_site_pbe_ddec_sum_bond_order
 _atom_site_pbe_magmom
Mn  Mn0  1  0.17946432  0.38478526  0.52998998  1  0.955976  -4.732657  2.151496  -4.584  0.799732  -4.607341  2.690003  -4.411  0.853796  -4.699304  2.627974  -4.509  0.652015  0.755441  -4.506658  2.737189  -4.304
Mn  Mn1  1  0.32053432  0.88478167  0.97000936  1  0.955991  4.732671  2.151509  4.584  0.79975  4.607356  2.690032  4.411  0.853819  4.69932  2.627999  4.509  0.652025  0.755462  4.506679  2.7372  4.304
Mn  Mn2  1  0.82052855  0.61522219  0.47001181  1  0.95583  4.732655  2.151667  4.584  0.799647  4.607337  2.69009  4.411  0.853714  4.6993  2.628063  4.509  0.651995  0.755363  4.50666  2.73726  4.304
Mn  Mn3  1  0.67946928  0.11521551  0.02999098  1  0.955947  -4.732658  2.151521  -4.584  0.799738  -4.607349  2.689959  -4.411  0.853805  -4.69931  2.62793  -4.509  0.652013  0.755418  -4.506678  2.73718  -4.304
H  H4  1  0.39923520  0.17544214  0.66054467  1  0.095547  0.00061  0.937909  0.0  0.101844  0.000694  1.012777  0.0  0.102807  0.00073  1.010493  0.0  0.132427  0.100289  0.000652  1.016703  0.0
H  H5  1  0.10076817  0.67544256  0.83945238  1  0.095567  -0.000606  0.93788  0.0  0.101854  -0.000694  1.012769  0.0  0.102817  -0.00073  1.010485  0.0  0.132451  0.100298  -0.000652  1.016704  0.0
H  H6  1  0.60076439  0.82456074  0.33945673  1  0.095536  -0.000614  0.937861  0.0  0.101821  -0.000694  1.012749  0.0  0.102788  -0.00073  1.010466  0.0  0.132422  0.100265  -0.000652  1.016678  0.0
H  H7  1  0.89923409  0.32455690  0.16054613  1  0.095506  0.000606  0.937898  0.0  0.10181  0.000694  1.01276  0.0  0.102768  0.00073  1.010475  0.0  0.132423  0.100252  0.000652  1.01669  0.0
H  H8  1  0.32495637  0.99081721  0.69135970  1  0.104285  3.3e-05  0.909288  0.0  0.116037  2.4e-05  0.97479  0.0  0.115873  1.2e-05  0.974929  0.0  0.140528  0.11554  8.5e-05  0.97638  0.0
H  H9  1  0.17504998  0.49081469  0.80864081  1  0.104232  -3e-05  0.909308  0.0  0.11599  -2.4e-05  0.9748  0.0  0.115826  -1.2e-05  0.97494  0.0  0.140503  0.115495  -8.5e-05  0.976395  0.0
H  H10  1  0.67503784  0.00918225  0.30864154  1  0.10423  -3.6e-05  0.909318  0.0  0.115979  -2.4e-05  0.974836  0.0  0.115819  -1.2e-05  0.974977  0.0  0.140509  0.115481  -8.5e-05  0.976425  0.0
H  H11  1  0.82495765  0.50918021  0.19135847  1  0.104236  3e-05  0.909355  0.0  0.115996  2.4e-05  0.974851  0.0  0.115828  1.3e-05  0.974987  0.0  0.140511  0.115498  8.5e-05  0.976444  0.0
H  H12  1  0.36479018  0.80668594  0.58130504  1  0.11353  -7.2e-05  0.943934  0.0  0.12393  -0.000279  1.005303  0.0  0.125626  -0.000216  1.004311  0.0  0.130675  0.122978  -0.000451  1.006224  0.0
H  H13  1  0.13521948  0.30668587  0.91869664  1  0.113538  7.7e-05  0.943936  0.0  0.123908  0.000279  1.005328  0.0  0.125631  0.000216  1.004303  0.0  0.130667  0.122954  0.000451  1.006248  0.0
H  H14  1  0.63520671  0.19331694  0.41869270  1  0.113662  8e-05  0.943936  0.0  0.124111  0.000279  1.005213  0.0  0.125782  0.000216  1.004254  0.0  0.130784  0.123167  0.000451  1.006118  0.0
H  H15  1  0.86478681  0.69331131  0.08130438  1  0.113545  -7.9e-05  0.943937  0.0  0.123935  -0.000279  1.005299  0.0  0.12565  -0.000216  1.004284  0.0  0.130661  0.122984  -0.000451  1.006224  0.0
H  H16  1  0.30866717  0.81468385  0.41683589  1  0.121118  -0.000317  0.978216  0.0  0.130422  -0.00044  1.0392  0.0  0.132364  -0.000383  1.040581  0.0  0.106575  0.129062  -0.000482  1.038198  0.0
H  H17  1  0.19133627  0.31468918  0.08316531  1  0.121108  0.000316  0.978243  0.0  0.130433  0.00044  1.039193  0.0  0.132379  0.000383  1.04057  0.0  0.106585  0.12907  0.000482  1.038189  0.0
H  H18  1  0.69132569  0.18532246  0.58316172  1  0.120937  0.000315  0.978281  0.0  0.130304  0.00044  1.039217  0.0  0.132249  0.000384  1.040594  0.0  0.106532  0.128944  0.000482  1.038213  0.0
H  H19  1  0.80867136  0.68531371  0.91683516  1  0.121106  -0.000314  0.978163  0.0  0.13044  -0.00044  1.039111  0.0  0.132388  -0.000383  1.040488  0.0  0.106581  0.129078  -0.000482  1.038107  0.0
H  H20  1  0.19710616  0.11052968  0.38568940  1  0.092172  0.000313  0.966536  0.0  0.101341  0.000203  1.033648  0.0  0.102783  0.000229  1.032093  0.0  0.117632  0.10027  0.000109  1.034637  0.0
H  H21  1  0.30289124  0.61053413  0.11430916  1  0.092181  -0.000315  0.966541  0.0  0.10135  -0.000203  1.033648  0.0  0.102792  -0.000229  1.032092  0.0  0.117648  0.10028  -0.000109  1.034638  0.0
H  H22  1  0.80288403  0.88947777  0.61431231  1  0.092194  -0.000314  0.966569  0.0  0.101369  -0.000203  1.03366  0.0  0.10281  -0.000228  1.032107  0.0  0.117634  0.1003  -0.000109  1.034644  0.0
H  H23  1  0.69711639  0.38946648  0.88568953  1  0.092177  0.000318  0.966522  0.0  0.101347  0.000203  1.033633  0.0  0.102788  0.000228  1.032078  0.0  0.117641  0.100277  0.000109  1.034619  0.0
H  H24  1  0.04350184  0.99723900  0.76069238  1  0.117706  -0.000848  0.968676  0.0  0.123992  -0.001352  1.038891  0.0  0.12641  -0.001244  1.03608  0.0  0.124855  0.121798  -0.001364  1.041083  0.0
H  H25  1  0.45650448  0.49723769  0.73930632  1  0.117733  0.000849  0.968634  0.0  0.124011  0.001352  1.038865  0.0  0.126432  0.001244  1.036054  0.0  0.124855  0.121818  0.001363  1.041056  0.0
H  H26  1  0.95649237  0.00276047  0.23930826  1  0.117751  0.000851  0.968684  0.0  0.124037  0.001352  1.038891  0.0  0.12645  0.001244  1.03609  0.0  0.124879  0.121843  0.001364  1.04108  0.0
H  H27  1  0.54350449  0.50275607  0.26069359  1  0.117702  -0.000848  0.968698  0.0  0.123983  -0.001352  1.038915  0.0  0.126399  -0.001244  1.036112  0.0  0.124853  0.121791  -0.001364  1.041108  0.0
H  H28  1  0.77555522  0.21280524  0.77528988  1  0.124426  1.2e-05  0.983136  0.0  0.128561  -6e-06  1.052051  0.0  0.131673  8.5e-05  1.051608  0.0  0.101804  0.12609  -0.000112  1.052798  0.0
H  H29  1  0.72445114  0.71280195  0.72470842  1  0.124448  -7e-06  0.983175  0.0  0.128583  7e-06  1.052086  0.0  0.13169  -8.5e-05  1.051642  0.0  0.101831  0.126114  0.000111  1.052838  0.0
H  H30  1  0.22443765  0.78719308  0.22471071  1  0.124447  -8e-06  0.983202  0.0  0.128554  7e-06  1.052141  0.0  0.131661  -8.5e-05  1.051697  0.0  0.101813  0.126084  0.000111  1.052886  0.0
H  H31  1  0.27555917  0.28719638  0.27529154  1  0.124546  1.3e-05  0.983143  0.0  0.128678  -6e-06  1.052046  0.0  0.131786  8.5e-05  1.0516  0.0  0.10187  0.126209  -0.000111  1.052797  0.0
H  H32  1  0.85955476  0.43791276  0.66784926  1  0.096048  -0.00058  0.985291  0.0  0.104707  -0.000982  1.048854  0.0  0.106021  -0.000921  1.048405  0.0  0.120424  0.103691  -0.001032  1.04897  0.0
H  H33  1  0.64044547  0.93790632  0.83214708  1  0.096029  0.000586  0.985424  0.0  0.104708  0.000982  1.048967  0.0  0.106011  0.000921  1.048532  0.0  0.120418  0.103732  0.001031  1.049035  0.0
H  H34  1  0.14043677  0.56208899  0.33215249  1  0.095995  0.000584  0.985364  0.0  0.104664  0.000982  1.048922  0.0  0.105968  0.000921  1.048486  0.0  0.120385  0.103655  0.001032  1.049032  0.0
H  H35  1  0.35955813  0.06209200  0.16785088  1  0.096035  -0.000581  0.985315  0.0  0.104712  -0.000982  1.048873  0.0  0.106015  -0.000922  1.048436  0.0  0.120421  0.103729  -0.001032  1.048948  0.0
C  C36  1  0.29306255  0.08916404  0.65273976  1  0.057421  7.8e-05  3.634125  0.0  -0.03151  -0.00032  3.892435  0.0  -0.019673  -0.000173  3.898345  0.0  0.071148  -0.053383  -0.00033  3.881721  0.0
C  C37  1  0.20693843  0.58916188  0.84725983  1  0.057586  -9.2e-05  3.634041  0.0  -0.031299  0.000319  3.892294  0.0  -0.019459  0.000173  3.898206  0.0  0.071208  -0.053205  0.00033  3.881588  0.0
C  C38  1  0.70693167  0.91083771  0.34726207  1  0.057577  -6.2e-05  3.633989  0.0  -0.031362  0.000319  3.892258  0.0  -0.019542  0.000172  3.89819  0.0  0.071174  -0.053226  0.00033  3.881532  0.0
C  C39  1  0.79306517  0.41083417  0.15273992  1  0.057569  9.9e-05  3.634133  0.0  -0.031333  -0.000319  3.892459  0.0  -0.019474  -0.000175  3.89834  0.0  0.07121  -0.053208  -0.00033  3.881715  0.0
C  C40  1  0.31842905  0.89818402  0.54153952  1  0.025529  -0.004166  3.658027  -0.004  -0.026147  -0.005186  3.926242  -0.004  -0.017041  -0.004609  3.94125  -0.004  0.028682  -0.041458  -0.006311  3.912622  -0.005
C  C41  1  0.18157626  0.39818347  0.95846120  1  0.025573  0.004147  3.65802  0.004  -0.026069  0.005187  3.92625  0.004  -0.016986  0.004611  3.941245  0.004  0.028691  -0.041387  0.006313  3.912622  0.005
C  C42  1  0.68156381  0.10181772  0.45845869  1  0.025169  0.004114  3.658068  0.004  -0.026546  0.005187  3.926343  0.004  -0.017421  0.00461  3.941364  0.004  0.028525  -0.041873  0.006313  3.912698  0.005
C  C43  1  0.81842868  0.60181372  0.04153919  1  0.025519  -0.004138  3.658096  -0.004  -0.026128  -0.005188  3.926342  -0.004  -0.017035  -0.004609  3.941343  -0.004  0.028693  -0.041451  -0.006312  3.912719  -0.005
C  C44  1  0.29105253  0.90597847  0.45896686  1  -0.190973  -0.00027  3.761092  0.0  -0.20948  -0.001196  4.031424  -0.001  -0.218703  -0.000646  4.052629  0.0  -0.113549  -0.203846  -0.001288  4.019939  -0.001
C  C45  1  0.20895060  0.40598075  0.04103409  1  -0.190927  0.000275  3.761204  0.0  -0.209474  0.001195  4.031564  0.001  -0.2187  0.000646  4.052776  0.0  -0.113538  -0.203837  0.001288  4.020072  0.001
C  C46  1  0.70894167  0.09402442  0.54103139  1  -0.190446  0.000304  3.761073  0.0  -0.209023  0.001196  4.031423  0.001  -0.218245  0.000646  4.052625  0.0  -0.113439  -0.203395  0.001288  4.019938  0.001
C  C47  1  0.79105837  0.59401644  0.95896523  1  -0.190913  -0.000284  3.761245  0.0  -0.209443  -0.001195  4.031562  -0.001  -0.218672  -0.000647  4.052775  0.0  -0.113511  -0.203807  -0.001288  4.020072  -0.001
C  C48  1  0.23417659  0.05617543  0.44261979  1  0.066058  -0.002444  3.713257  -0.003  0.022266  -0.004401  3.990816  -0.005  0.031617  -0.003824  4.005566  -0.004  0.02205  0.015999  -0.006058  3.982749  -0.006
C  C49  1  0.26582368  0.55617937  0.05737959  1  0.066051  0.002455  3.713291  0.003  0.022296  0.004401  3.990843  0.005  0.031648  0.003827  4.005588  0.004  0.022077  0.016026  0.00606  3.982785  0.006
C  C50  1  0.76581225  0.94382973  0.55738128  1  0.065713  0.002423  3.713579  0.003  0.021954  0.004401  3.991182  0.005  0.031303  0.003826  4.005939  0.004  0.022004  0.015689  0.006059  3.983118  0.006
C  C51  1  0.73418395  0.44382009  0.94261969  1  0.065966  -0.002461  3.713494  -0.003  0.022205  -0.004402  3.991051  -0.005  0.031557  -0.003825  4.005799  -0.004  0.022028  0.015934  -0.006059  3.982985  -0.006
C  C52  1  0.01789309  0.10544892  0.73055203  1  0.015776  -0.004825  3.655698  -0.004  -0.038851  -0.006023  3.922288  -0.005  -0.027502  -0.005272  3.935411  -0.004  0.024623  -0.051909  -0.0069  3.906504  -0.005
C  C53  1  0.48211320  0.60544350  0.76944768  1  0.015846  0.00482  3.655764  0.004  -0.038782  0.006023  3.922367  0.005  -0.027432  0.005274  3.935491  0.004  0.024663  -0.051859  0.0069  3.906575  0.005
C  C54  1  0.98211051  0.89455169  0.26944711  1  0.015855  0.004812  3.655706  0.004  -0.038796  0.006023  3.92225  0.005  -0.027449  0.005275  3.935373  0.004  0.024709  -0.051841  0.006901  3.906469  0.005
C  C55  1  0.51789577  0.39455140  0.23055224  1  0.015899  -0.004816  3.655522  -0.004  -0.038702  -0.006024  3.922109  -0.005  -0.027358  -0.005271  3.935235  -0.004  0.024698  -0.051775  -0.006901  3.906329  -0.005
C  C56  1  0.88685615  0.21632761  0.73724783  1  -0.217471  0.001165  3.76978  0.001  -0.225954  7.4e-05  4.028531  0.0  -0.236289  0.00055  4.048223  0.001  -0.120785  -0.220409  -0.000536  4.018031  0.0
C  C57  1  0.61314885  0.71632533  0.76274923  1  -0.217414  -0.001172  3.769756  -0.001  -0.225884  -7.5e-05  4.02849  0.0  -0.236211  -0.00055  4.048177  -0.001  -0.120723  -0.220348  0.000535  4.018018  0.0
C  C58  1  0.11314074  0.78366729  0.26275230  1  -0.217505  -0.001167  3.769953  -0.001  -0.225984  -7.5e-05  4.02875  0.0  -0.236308  -0.000551  4.048433  -0.001  -0.120801  -0.220437  0.000536  4.018251  0.0
C  C59  1  0.38686012  0.28367072  0.23725068  1  -0.217669  0.001156  3.769786  0.001  -0.226145  7.4e-05  4.028559  0.0  -0.23647  0.000548  4.048241  0.001  -0.120877  -0.220604  -0.000536  4.018082  0.0
C  C60  1  0.92853343  0.33162063  0.68310691  1  0.056989  -0.004476  3.728732  -0.005  0.019183  -0.006455  3.997188  -0.006  0.027648  -0.005627  4.011714  -0.006  0.020253  0.012544  -0.007604  3.988845  -0.007
C  C61  1  0.57146985  0.83161562  0.81689040  1  0.056877  0.004453  3.729064  0.005  0.019042  0.006454  3.997533  0.006  0.027514  0.005628  4.012065  0.006  0.020188  0.01237  0.007604  3.989173  0.007
C  C62  1  0.07145945  0.66837997  0.31689488  1  0.057079  0.004458  3.7288  0.005  0.019281  0.006455  3.997256  0.006  0.027754  0.005629  4.011786  0.006  0.020316  0.012638  0.007605  3.988912  0.007
C  C63  1  0.42853778  0.16838270  0.18310828  1  0.056953  -0.004466  3.728838  -0.005  0.019123  -0.006455  3.997318  -0.006  0.027597  -0.005625  4.011846  -0.006  0.020231  0.012457  -0.007605  3.988954  -0.007
N  N64  1  0.06878543  0.60876425  0.55456233  1  -0.584799  -1.7e-05  2.808094  0.002  -0.546259  -0.000247  3.140319  0.002  -0.576094  0.000625  3.144151  0.003  -0.299183  -0.522673  -0.000585  3.136107  0.002
N  N65  1  0.43121280  0.10876101  0.94543712  1  -0.584806  -9e-06  2.808153  -0.002  -0.546269  0.000246  3.140367  -0.002  -0.576108  -0.000641  3.144212  -0.003  -0.299218  -0.522677  0.000585  3.136148  -0.002
N  N66  1  0.93120610  0.39123749  0.44543822  1  -0.584745  -2.9e-05  2.808023  -0.002  -0.546211  0.000251  3.140234  -0.002  -0.57605  -0.000649  3.144077  -0.003  -0.299212  -0.522625  0.000584  3.136021  -0.002
N  N67  1  0.56879214  0.89123389  0.05456327  1  -0.584762  -2.7e-05  2.80821  0.002  -0.546228  -0.000248  3.140409  0.002  -0.576083  0.000631  3.144298  0.003  -0.299213  -0.522639  -0.000583  3.136195  0.002
N  N68  1  0.07149115  0.67048414  0.61885579  1  0.40312  -0.001295  4.215696  -0.002  0.434308  -0.002126  4.504193  -0.003  0.45134  -0.001709  4.535079  -0.002  0.091236  0.422085  -0.001366  4.481982  -0.002
N  N69  1  0.42850822  0.17047925  0.88114414  1  0.403162  0.001297  4.215696  0.002  0.434361  0.002127  4.504182  0.003  0.451393  0.001704  4.535069  0.002  0.09135  0.422138  0.001366  4.481966  0.002
N  N70  1  0.92850441  0.32951760  0.38114549  1  0.403172  0.001289  4.215736  0.002  0.434372  0.002128  4.504228  0.003  0.451406  0.001699  4.535108  0.002  0.091313  0.422148  0.001364  4.482017  0.002
N  N71  1  0.57149404  0.82951907  0.11885437  1  0.403207  -0.001282  4.215711  -0.002  0.434412  -0.002126  4.504197  -0.003  0.451443  -0.001709  4.535074  -0.002  0.091355  0.422191  -0.001366  4.481983  -0.002
N  N72  1  0.07347360  0.73275840  0.68060461  1  -0.40833  -0.005809  2.392595  -0.005  -0.413283  -0.005034  2.635137  -0.004  -0.420887  -0.004927  2.645227  -0.004  -0.197044  -0.406762  -0.004341  2.62747  -0.004
N  N73  1  0.42652555  0.23275411  0.81939335  1  -0.408371  0.005837  2.392545  0.005  -0.413339  0.005033  2.6351  0.004  -0.420946  0.004949  2.645197  0.004  -0.197126  -0.406829  0.004343  2.627434  0.004
N  N74  1  0.92652464  0.26724563  0.31939556  1  -0.408404  0.005859  2.392657  0.005  -0.413383  0.00502  2.63522  0.004  -0.420987  0.004957  2.64531  0.004  -0.197097  -0.406865  0.004337  2.627555  0.004
N  N75  1  0.57347537  0.76724422  0.18060750  1  -0.408493  -0.005814  2.392472  -0.005  -0.413473  -0.005032  2.635033  -0.004  -0.421078  -0.004932  2.645121  -0.004  -0.197183  -0.406962  -0.004343  2.627368  -0.004
N  N76  1  0.42774042  0.42317757  0.60114730  1  -0.494597  0.044562  2.672456  0.059  -0.48514  0.03412  2.973794  0.05  -0.503828  0.041767  2.978219  0.058  -0.253953  -0.470725  0.029791  2.97108  0.046
N  N77  1  0.07225810  0.92317519  0.89885075  1  -0.494654  -0.04459  2.67241  -0.059  -0.485177  -0.034109  2.973799  -0.05  -0.503866  -0.041785  2.978223  -0.058  -0.253993  -0.47077  -0.029785  2.971085  -0.046
N  N78  1  0.57224977  0.57682418  0.39885262  1  -0.494623  -0.044545  2.672594  -0.059  -0.485125  -0.034122  2.973934  -0.05  -0.50381  -0.041761  2.978356  -0.058  -0.253919  -0.470717  -0.029791  2.971223  -0.046
N  N79  1  0.92774684  0.07682085  0.10114844  1  -0.494665  0.044602  2.672543  0.059  -0.485226  0.034108  2.973901  0.05  -0.50391  0.041779  2.978321  0.058  -0.253974  -0.470815  0.029787  2.971189  0.046
N  N80  1  0.55356823  0.49868124  0.58715409  1  0.401736  0.000316  4.20267  0.001  0.443086  0.000334  4.470092  0.001  0.459863  0.000318  4.502077  0.001  0.095981  0.430843  0.000496  4.447195  0.001
N  N81  1  0.94643047  0.99867794  0.91284502  1  0.401829  -0.000308  4.202561  -0.001  0.443095  -0.000334  4.470092  -0.001  0.459872  -0.000321  4.502074  -0.001  0.096009  0.430851  -0.000498  4.447196  -0.001
N  N82  1  0.44642598  0.50132279  0.41284595  1  0.401819  -0.000313  4.202482  -0.001  0.443083  -0.000339  4.470005  -0.001  0.45986  -0.000324  4.501985  -0.001  0.095969  0.430843  -0.000503  4.447112  -0.001
N  N83  1  0.05357313  0.00131925  0.08715413  1  0.401814  0.000308  4.202658  0.001  0.443155  0.000335  4.470072  0.001  0.459931  0.000319  4.502051  0.001  0.096021  0.430911  0.000497  4.447179  0.001
N  N84  1  0.68122009  0.57430466  0.57675389  1  -0.482278  -0.047281  2.671593  -0.063  -0.464253  -0.037533  2.961864  -0.054  -0.483296  -0.044347  2.968341  -0.061  -0.243919  -0.449504  -0.033697  2.957273  -0.05
N  N85  1  0.81878004  0.07430188  0.92324756  1  -0.482333  0.047303  2.67158  0.063  -0.464217  0.037527  2.961805  0.054  -0.483257  0.04437  2.968279  0.061  -0.243904  -0.44947  0.033699  2.957218  0.05
N  N86  1  0.31877144  0.42569480  0.42324607  1  -0.48234  0.047254  2.671304  0.063  -0.464256  0.037534  2.961597  0.054  -0.483299  0.04434  2.96807  0.061  -0.243924  -0.449506  0.033695  2.957007  0.05
N  N87  1  0.18122491  0.92569417  0.07675343  1  -0.482327  -0.047313  2.671506  -0.063  -0.464256  -0.037523  2.961733  -0.054  -0.483298  -0.04436  2.968208  -0.061  -0.243926  -0.449515  -0.033694  2.957147  -0.05
N  N88  1  0.27729610  0.03733705  0.57035379  1  0.04008  -0.000442  3.57921  -0.001  0.127743  -0.001562  3.79817  -0.002  0.115564  -0.001064  3.826694  -0.002  -0.142469  0.160263  -0.001932  3.748914  -0.003
N  N89  1  0.22270774  0.53733748  0.92964543  1  0.039915  0.000442  3.57917  0.001  0.127576  0.001565  3.798176  0.002  0.115396  0.001057  3.826704  0.002  -0.142544  0.160115  0.001932  3.748908  0.003
N  N90  1  0.72269811  0.96266584  0.42964625  1  0.040035  0.000426  3.579087  0.001  0.127704  0.001564  3.798094  0.002  0.115531  0.001057  3.826614  0.002  -0.142516  0.160241  0.001932  3.748801  0.003
N  N91  1  0.77729989  0.46265971  0.07035385  1  0.040034  -0.000465  3.579215  -0.001  0.127644  -0.001565  3.798286  -0.002  0.115457  -0.001057  3.82681  -0.002  -0.142521  0.160185  -0.001932  3.748993  -0.003
N  N92  1  0.22732189  0.13645815  0.51065900  1  -0.283707  -0.026742  3.11028  -0.015  -0.238716  -0.030417  3.399778  -0.015  -0.255259  -0.027511  3.41672  -0.012  -0.236423  -0.235092  -0.032509  3.384046  -0.017
N  N93  1  0.27267893  0.63645903  0.98933927  1  -0.283654  0.026745  3.11024  0.015  -0.238738  0.030418  3.39981  0.015  -0.255281  0.027513  3.416747  0.012  -0.236464  -0.235124  0.03251  3.384081  0.017
N  N94  1  0.77266964  0.86354702  0.48934215  1  -0.283418  0.026788  3.110181  0.015  -0.238529  0.030416  3.399788  0.015  -0.255074  0.027513  3.416732  0.012  -0.236368  -0.234915  0.032508  3.384058  0.017
N  N95  1  0.72732870  0.36354043  0.01066001  1  -0.283583  -0.026725  3.110228  -0.015  -0.238664  -0.030415  3.39983  -0.015  -0.255206  -0.027513  3.416769  -0.012  -0.236416  -0.235046  -0.032507  3.38409  -0.017
N  N96  1  0.12767018  0.15655673  0.67543008  1  0.04922  8.9e-05  3.577863  0.0  0.137331  -0.001187  3.799874  -0.002  0.122508  -0.000607  3.827678  -0.001  -0.142512  0.16973  -0.001432  3.746484  -0.002
N  N97  1  0.37233057  0.65655672  0.82456814  1  0.049023  -7.7e-05  3.578059  0.0  0.137098  0.001186  3.800112  0.002  0.122261  0.000606  3.827918  0.001  -0.14261  0.169564  0.001432  3.746638  0.002
N  N98  1  0.87232671  0.84344388  0.32456945  1  0.048913  -8.4e-05  3.577932  0.0  0.137156  0.001185  3.799807  0.002  0.122337  0.000609  3.827616  0.001  -0.142641  0.169533  0.001432  3.746441  0.002
N  N99  1  0.62767437  0.34344047  0.17543105  1  0.049155  7.8e-05  3.577938  0.0  0.137225  -0.001185  3.800008  -0.002  0.122394  -0.000606  3.827812  -0.001  -0.142586  0.169657  -0.001432  3.746582  -0.002
N  N100  1  0.07519093  0.29498425  0.64553709  1  -0.274555  -0.025564  3.074695  -0.014  -0.234878  -0.031277  3.36421  -0.016  -0.247307  -0.028107  3.378092  -0.014  -0.231064  -0.23084  -0.033936  3.346738  -0.019
N  N101  1  0.42481069  0.79498270  0.85446020  1  -0.274504  0.025571  3.074953  0.014  -0.234784  0.031278  3.364429  0.016  -0.247202  0.028106  3.3783  0.014  -0.23104  -0.230763  0.033937  3.346949  0.019
N  N102  1  0.92480329  0.70501749  0.35446474  1  -0.274465  0.025573  3.074802  0.014  -0.234845  0.031277  3.364306  0.016  -0.247274  0.028102  3.378184  0.014  -0.231043  -0.2308  0.033935  3.346844  0.019
N  N103  1  0.57519424  0.20501562  0.14553721  1  -0.274526  -0.025563  3.074768  -0.014  -0.234809  -0.031276  3.364252  -0.016  -0.247238  -0.028109  3.378133  -0.014  -0.231024  -0.230777  -0.033935  3.346776  -0.019
