# generated using pymatgen
data_CuH6C4(N3O)4
_symmetry_space_group_name_H-M   'P 1'
_cell_length_a   7.74204181
_cell_length_b   8.72470785
_cell_length_c   9.09355246
_cell_angle_alpha   90.00074180
_cell_angle_beta   89.99924009
_cell_angle_gamma   111.62030991
_symmetry_Int_Tables_number   1
_chemical_formula_structural   CuH6C4(N3O)4
_chemical_formula_sum   'Cu2 H12 C8 N24 O8'
_cell_volume   571.02820202
_cell_formula_units_Z   2
loop_
 _symmetry_equiv_pos_site_id
 _symmetry_equiv_pos_as_xyz
  1  'x, y, z'
loop_
 _atom_site_type_symbol
 _atom_site_label
 _atom_site_symmetry_multiplicity
 _atom_site_fract_x
 _atom_site_fract_y
 _atom_site_fract_z
 _atom_site_occupancy
 _atom_site_hle17_ddec_charge
 _atom_site_hle17_ddec_spin_density
 _atom_site_hle17_ddec_sum_bond_order
 _atom_site_hle17_magmom
 _atom_site_hse06_10hf_ddec_charge
 _atom_site_hse06_10hf_ddec_spin_density
 _atom_site_hse06_10hf_ddec_sum_bond_order
 _atom_site_hse06_10hf_magmom
 _atom_site_hse06_ddec_charge
 _atom_site_hse06_ddec_spin_density
 _atom_site_hse06_ddec_sum_bond_order
 _atom_site_hse06_magmom
 _atom_site_pbe_cm5_charge
 _atom_site_pbe_ddec_charge
 _atom_site_pbe_ddec_spin_density
 _atom_site_pbe_ddec_sum_bond_order
 _atom_site_pbe_magmom
Cu  Cu0  1  0.00000001  0.99999997  0.99999973  1  0.868092  0.700957  1.911749  0.494  0.854906  0.795858  2.309401  0.618  0.946212  0.880854  2.236298  0.719  0.791273  0.796684  0.714649  2.362723  0.535
Cu  Cu1  1  0.50000015  0.99999917  0.49999828  1  0.868142  -0.700986  1.911656  -0.494  0.855015  -0.795881  2.309251  -0.618  0.946229  -0.880873  2.236224  -0.719  0.791295  0.796762  -0.714666  2.362588  -0.535
H  H2  1  0.92476304  0.66294635  0.47360584  1  0.136905  -2.8e-05  0.92805  0.0  0.150485  -7.7e-05  0.996238  0.0  0.151957  -3.6e-05  0.99559  0.0  0.117257  0.149397  -0.00012  0.996662  0.0
H  H3  1  0.57523732  0.33704806  0.97360622  1  0.136893  3e-05  0.928036  0.0  0.150484  7.7e-05  0.996219  0.0  0.151956  3.6e-05  0.995576  0.0  0.117258  0.149394  0.00012  0.996644  0.0
H  H4  1  0.07523822  0.33705180  0.52639330  1  0.136905  -2.5e-05  0.928054  0.0  0.15048  -7.7e-05  0.996254  0.0  0.151956  -3.6e-05  0.995595  0.0  0.117242  0.149391  -0.00012  0.99668  0.0
H  H5  1  0.42476367  0.66295256  0.02639622  1  0.136908  2.4e-05  0.928002  0.0  0.150498  7.7e-05  0.996197  0.0  0.151974  3.6e-05  0.995539  0.0  0.117271  0.149406  0.00012  0.996624  0.0
H  H6  1  0.80184958  0.73378691  0.60998603  1  0.140818  -8.9e-05  0.920405  0.0  0.157113  -6.1e-05  0.979819  0.0  0.159316  -1.9e-05  0.978085  0.0  0.117872  0.155301  -9.9e-05  0.981286  0.0
H  H7  1  0.69815024  0.26621133  0.10998550  1  0.14084  9.6e-05  0.920361  0.0  0.157118  6.1e-05  0.9798  0.0  0.159321  1.9e-05  0.978065  0.0  0.117876  0.155305  9.9e-05  0.981269  0.0
H  H8  1  0.19814729  0.26621001  0.39001422  1  0.140822  -9e-05  0.920424  0.0  0.157101  -6.1e-05  0.979858  0.0  0.159303  -1.9e-05  0.978127  0.0  0.117871  0.155293  -9.9e-05  0.981324  0.0
H  H9  1  0.30184997  0.73379051  0.89001585  1  0.14083  8.8e-05  0.920341  0.0  0.157126  6.1e-05  0.979762  0.0  0.159331  1.9e-05  0.978028  0.0  0.117888  0.155313  9.9e-05  0.98123  0.0
H  H10  1  0.96068896  0.63858519  0.66494875  1  0.132765  0.000212  0.947121  0.0  0.140782  0.000118  1.026751  0.0  0.143021  9.5e-05  1.024279  0.0  0.11366  0.139198  0.00013  1.028327  0.0
H  H11  1  0.53931462  0.36141482  0.16495121  1  0.132783  -0.000205  0.947119  0.0  0.140814  -0.000118  1.02672  0.0  0.143049  -9.5e-05  1.024265  0.0  0.113676  0.139228  -0.00013  1.028299  0.0
H  H12  1  0.03931128  0.36141049  0.33505040  1  0.132771  0.00021  0.947142  0.0  0.140798  0.000118  1.026747  0.0  0.143032  9.5e-05  1.024291  0.0  0.113669  0.139215  0.00013  1.028325  0.0
H  H13  1  0.46068688  0.63858703  0.83505013  1  0.132798  -0.000214  0.947107  0.0  0.140824  -0.000118  1.02672  0.0  0.14306  -9.5e-05  1.02426  0.0  0.113679  0.139237  -0.00013  1.028299  0.0
C  C14  1  0.85899479  0.64027162  0.58186740  1  -0.225266  -0.000838  3.588412  -0.001  -0.338791  -0.000593  3.832684  -0.001  -0.336496  -0.000436  3.83682  -0.001  -0.124938  -0.340127  -0.000739  3.829965  -0.001
C  C15  1  0.64101048  0.35973252  0.08186868  1  -0.225334  0.000808  3.588476  0.001  -0.338845  0.000592  3.832727  0.001  -0.336553  0.000437  3.836851  0.001  -0.12495  -0.340182  0.000739  3.830031  0.001
C  C16  1  0.14100466  0.35972530  0.41813175  1  -0.225292  -0.000838  3.58847  -0.001  -0.338817  -0.000592  3.832733  -0.001  -0.336522  -0.000436  3.836863  -0.001  -0.124958  -0.340145  -0.000739  3.829997  -0.001
C  C17  1  0.35899050  0.64026810  0.91813376  1  -0.225335  0.000846  3.588397  0.001  -0.338841  0.000592  3.832614  0.001  -0.336553  0.000436  3.836748  0.001  -0.124963  -0.340182  0.000739  3.82992  0.001
C  C18  1  0.46318771  0.28517296  0.63508097  1  0.425948  0.001822  3.864048  0.001  0.39374  7e-06  4.17754  -0.001  0.412842  0.000623  4.187147  0.0  0.323504  0.381069  -0.000719  4.170756  -0.002
C  C19  1  0.03681473  0.71483369  0.13507355  1  0.425869  -0.001866  3.863795  -0.001  0.393692  -5e-06  4.177262  0.001  0.412795  -0.000623  4.18687  0.0  0.323475  0.381021  0.000719  4.170482  0.002
C  C20  1  0.53681018  0.71482642  0.36491818  1  0.425957  0.001851  3.864075  0.001  0.393717  6e-06  4.17758  -0.001  0.41282  0.000622  4.187185  0.0  0.323479  0.381047  -0.000719  4.170792  -0.002
C  C21  1  0.96318547  0.28516816  0.86492780  1  0.425897  -0.001834  3.863895  -0.001  0.393747  -4e-06  4.177327  0.001  0.41285  -0.000624  4.186936  0.0  0.323482  0.381075  0.000719  4.17055  0.002
N  N22  1  0.70776604  0.48032144  0.57997582  1  0.238984  -0.000907  3.622553  -0.001  0.337828  -0.001557  3.839446  -0.002  0.336275  -0.000848  3.859868  -0.001  0.008052  0.338606  -0.002064  3.825897  -0.003
N  N23  1  0.79223334  0.51967774  0.07997187  1  0.239141  0.000913  3.62263  0.001  0.33796  0.001557  3.839544  0.002  0.336411  0.000848  3.859961  0.001  0.008101  0.338733  0.002063  3.825996  0.003
N  N24  1  0.29223393  0.51967671  0.42002333  1  0.238993  -0.000896  3.622527  -0.001  0.337871  -0.001557  3.839376  -0.002  0.336319  -0.000849  3.859797  -0.001  0.008094  0.338649  -0.002064  3.82583  -0.003
N  N25  1  0.20776714  0.48032164  0.92002948  1  0.239135  0.0009  3.622666  0.001  0.337933  0.001558  3.839614  0.002  0.336384  0.000846  3.860032  0.001  0.008059  0.338708  0.002063  3.826064  0.003
N  N26  1  0.71253548  0.35686019  0.49893959  1  -0.019912  -0.001175  2.818863  0.0  -0.035086  -0.002454  3.091007  -0.002  -0.0266  -0.001327  3.100413  -0.001  -0.050048  -0.040558  -0.003423  3.085064  -0.003
N  N27  1  0.78746459  0.64313446  0.99893585  1  -0.019998  0.001138  2.818828  0.0  -0.035172  0.002456  3.091  0.002  -0.026683  0.001332  3.100409  0.001  -0.050041  -0.040644  0.003423  3.085061  0.003
N  N28  1  0.28746269  0.64313672  0.50106066  1  -0.019897  -0.001157  2.818774  0.0  -0.03509  -0.002455  3.09089  -0.002  -0.026604  -0.001331  3.100295  -0.001  -0.050034  -0.040561  -0.003423  3.084945  -0.003
N  N29  1  0.21253717  0.35686492  0.00106440  1  -0.019977  0.00117  2.818917  0.0  -0.035138  0.002455  3.091083  0.002  -0.026647  0.00133  3.100492  0.001  -0.050018  -0.04061  0.003423  3.085145  0.003
N  N30  1  0.55884904  0.44532179  0.66602862  1  -0.297882  -0.004268  2.757528  -0.005  -0.306472  -0.002327  3.017281  -0.003  -0.315224  -0.001998  3.027171  -0.003  -0.187997  -0.300845  -0.002442  3.010631  -0.003
N  N31  1  0.94114599  0.55467946  0.16602562  1  -0.297913  0.004309  2.757454  0.005  -0.306479  0.002325  3.017155  0.003  -0.315228  0.001996  3.027042  0.003  -0.188025  -0.300853  0.002442  3.010508  0.003
N  N32  1  0.44114885  0.55467759  0.33397052  1  -0.297883  -0.004292  2.757549  -0.005  -0.306487  -0.002326  3.017306  -0.003  -0.315238  -0.001996  3.027196  -0.003  -0.18801  -0.30086  -0.002442  3.010657  -0.003
N  N33  1  0.05885370  0.44532116  0.83397573  1  -0.297923  0.004285  2.757516  0.005  -0.306495  0.002326  3.017232  0.003  -0.315246  0.001998  3.027119  0.003  -0.188014  -0.300867  0.002442  3.010583  0.003
N  N34  1  0.19995325  0.05296800  0.66605792  1  0.603522  0.002552  3.996458  0.005  0.669743  -0.001017  4.252146  0.0  0.699034  -0.000885  4.262475  0.0  0.122294  0.648981  -0.001337  4.245109  0.0
N  N35  1  0.30003827  0.94703525  0.16604599  1  0.603019  -0.002575  3.996448  -0.005  0.669233  0.00102  4.252184  0.0  0.69852  0.000886  4.262522  0.0  0.122029  0.648478  0.001335  4.245141  0.0
N  N36  1  0.80004465  0.94703138  0.33394013  1  0.603457  0.002583  3.996378  0.005  0.669693  -0.001019  4.252048  0.0  0.698984  -0.000887  4.262378  0.0  0.122287  0.648933  -0.001337  4.245012  0.0
N  N37  1  0.69996193  0.05296659  0.83395316  1  0.603058  -0.002556  3.996457  -0.005  0.669238  0.001018  4.252247  0.0  0.698526  0.000884  4.262585  0.0  0.122066  0.648484  0.001335  4.245202  0.0
N  N38  1  0.29989534  0.20330493  0.70564238  1  -0.371357  -0.000215  2.875256  0.0  -0.39492  0.000224  3.162459  0.0  -0.410052  0.000676  3.169323  0.001  -0.213647  -0.384256  -0.000621  3.157462  -0.001
N  N39  1  0.20011481  0.79670735  0.20563521  1  -0.37115  0.00024  2.875234  0.0  -0.394741  -0.000226  3.162463  0.0  -0.409864  -0.000676  3.169322  -0.001  -0.213548  -0.384081  0.000621  3.157468  0.001
N  N40  1  0.70010255  0.79669445  0.29435787  1  -0.371356  -0.000209  2.875266  0.0  -0.394894  0.000224  3.162446  0.0  -0.410025  0.000673  3.169311  0.001  -0.213637  -0.38423  -0.000621  3.157451  -0.001
N  N41  1  0.79988591  0.20329573  0.79436394  1  -0.371218  0.000222  2.875216  0.0  -0.394816  -0.000228  3.162452  0.0  -0.409939  -0.000679  3.169311  -0.001  -0.213603  -0.384157  0.000621  3.157458  0.001
N  N42  1  0.55771122  0.23203132  0.53234358  1  -0.338572  -0.060113  3.303651  -0.072  -0.323225  -0.044537  3.654614  -0.057  -0.351419  -0.037609  3.666871  -0.05  -0.258035  -0.306914  -0.047237  3.648738  -0.057
N  N43  1  0.94229153  0.76797109  0.03233551  1  -0.338449  0.060142  3.303475  0.072  -0.323115  0.04453  3.65445  0.057  -0.351331  0.037608  3.666724  0.05  -0.257992  -0.306815  0.04723  3.648585  0.057
N  N44  1  0.44228616  0.76796683  0.46765667  1  -0.33859  -0.060143  3.303658  -0.072  -0.323203  -0.044535  3.654597  -0.057  -0.351397  -0.037606  3.666856  -0.05  -0.258029  -0.306891  -0.047237  3.64872  -0.057
N  N45  1  0.05770946  0.23202952  0.96766584  1  -0.338439  0.060119  3.303533  0.072  -0.323125  0.044532  3.654503  0.057  -0.351342  0.037608  3.666778  0.05  -0.257984  -0.306826  0.047232  3.64864  0.057
O  O46  1  0.04833275  0.98014877  0.73101385  1  -0.422792  -0.023878  1.800186  -0.03  -0.433986  -0.013268  2.027232  -0.018  -0.455907  -0.007219  2.02174  -0.01  -0.164258  -0.417158  -0.020872  2.03072  -0.027
O  O47  1  0.45167217  0.01986745  0.23101838  1  -0.422692  0.023898  1.79977  0.03  -0.433892  0.01328  2.026826  0.018  -0.455806  0.007227  2.021329  0.01  -0.164275  -0.417053  0.020893  2.030305  0.027
O  O48  1  0.95166487  0.01985307  0.26898200  1  -0.422755  -0.023894  1.800116  -0.03  -0.433967  -0.013269  2.027168  -0.018  -0.455888  -0.007221  2.021677  -0.01  -0.164269  -0.41714  -0.020872  2.030658  -0.027
O  O49  1  0.54833011  0.98013316  0.76898077  1  -0.422712  0.023928  1.799876  0.03  -0.433874  0.013277  2.026917  0.018  -0.45579  0.007223  2.021424  0.01  -0.164266  -0.417037  0.020893  2.030395  0.027
O  O50  1  0.24133246  0.97040494  0.56051057  1  -0.437219  -0.094621  1.845581  -0.123  -0.444718  -0.059705  2.097393  -0.085  -0.47987  -0.042423  2.090939  -0.064  -0.199364  -0.421091  -0.070999  2.102519  -0.096
O  O51  1  0.25868040  0.02960223  0.06050312  1  -0.437063  0.094621  1.845712  0.123  -0.444519  0.059706  2.097498  0.085  -0.479693  0.042424  2.091059  0.064  -0.199216  -0.420876  0.070995  2.102555  0.096
O  O52  1  0.75866802  0.02959444  0.43948858  1  -0.437191  -0.094638  1.845584  -0.123  -0.444706  -0.059702  2.097405  -0.085  -0.479859  -0.042417  2.090952  -0.064  -0.199355  -0.421077  -0.070997  2.102522  -0.096
O  O53  1  0.74131953  0.97040208  0.93949823  1  -0.437083  0.094583  1.845675  0.123  -0.444524  0.05971  2.097469  0.085  -0.479699  0.042434  2.091031  0.064  -0.199232  -0.420873  0.070994  2.102506  0.096
