# generated using pymatgen
data_ZnH8(C5O2)2
_symmetry_space_group_name_H-M   'P 1'
_cell_length_a   4.76174974
_cell_length_b   10.09387739
_cell_length_c   10.09395086
_cell_angle_alpha   83.24446811
_cell_angle_beta   91.90299642
_cell_angle_gamma   91.90151317
_symmetry_Int_Tables_number   1
_chemical_formula_structural   ZnH8(C5O2)2
_chemical_formula_sum   'Zn2 H16 C20 O8'
_cell_volume   481.31722798
_cell_formula_units_Z   2
loop_
 _symmetry_equiv_pos_site_id
 _symmetry_equiv_pos_as_xyz
  1  'x, y, z'
loop_
 _atom_site_type_symbol
 _atom_site_label
 _atom_site_symmetry_multiplicity
 _atom_site_fract_x
 _atom_site_fract_y
 _atom_site_fract_z
 _atom_site_occupancy
 _atom_site_hle17_bader_spin_density
 _atom_site_hle17_ddec_charge
 _atom_site_hle17_ddec_spin_density
 _atom_site_hle17_ddec_sum_bond_order
 _atom_site_hle17_magmom
 _atom_site_hse06_10hf_bader_spin_density
 _atom_site_hse06_10hf_ddec_charge
 _atom_site_hse06_10hf_ddec_spin_density
 _atom_site_hse06_10hf_ddec_sum_bond_order
 _atom_site_hse06_10hf_magmom
 _atom_site_hse06_bader_spin_density
 _atom_site_hse06_ddec_charge
 _atom_site_hse06_ddec_spin_density
 _atom_site_hse06_ddec_sum_bond_order
 _atom_site_hse06_magmom
 _atom_site_pbe_bader_spin_density
 _atom_site_pbe_cm5_charge
 _atom_site_pbe_ddec_charge
 _atom_site_pbe_ddec_spin_density
 _atom_site_pbe_ddec_sum_bond_order
 _atom_site_pbe_magmom
Zn  Zn0  1  0.24999973  0.06522915  0.93477592  1  0  1.164683  0  1.76987  0  0  1.00555  0  2.211057  0  0  1.05613  0  2.148246  0  0  0.690652  0.969999  0  2.254202  0
Zn  Zn1  1  0.75001255  0.93476598  0.06522791  1  0  1.16468  0  1.769837  0  0  1.005486  0  2.211084  0  0  1.056073  0  2.148266  0  0  0.690618  0.96993  0  2.254228  0
H  H2  1  0.11167207  0.30182240  0.15687114  1  0  0.105098  0  0.945419  0  0  0.11614  0  1.005423  0  0  0.119111  0  1.004244  0  0  0.103416  0.113681  0  1.006892  0
H  H3  1  0.38831904  0.84313235  0.69816866  1  0  0.105067  0  0.945501  0  0  0.116136  0  1.005468  0  0  0.119105  0  1.004291  0  0  0.103405  0.113678  0  1.006936  0
H  H4  1  0.88830296  0.69817971  0.84312660  1  0  0.105131  0  0.945221  0  0  0.116167  0  1.00525  0  0  0.11914  0  1.004064  0  0  0.103436  0.113686  0  1.006746  0
H  H5  1  0.61169123  0.15687320  0.30182865  1  0  0.105055  0  0.945444  0  0  0.116105  0  1.005437  0  0  0.119073  0  1.004257  0  0  0.103406  0.113621  0  1.006938  0
H  H6  1  0.63202366  0.57020999  0.70037323  1  0  0.100914  0  0.950375  0  0  0.122819  0  1.009271  0  0  0.123991  0  1.009087  0  0  0.087943  0.121959  0  1.009416  0
H  H7  1  0.86797943  0.29962898  0.42980054  1  0  0.100939  0  0.950483  0  0  0.122858  0  1.009371  0  0  0.124029  0  1.009188  0  0  0.087976  0.121996  0  1.009519  0
H  H8  1  0.36796267  0.42979225  0.29962122  1  0  0.101054  0  0.950531  0  0  0.1229  0  1.009457  0  0  0.124072  0  1.009273  0  0  0.087974  0.122044  0  1.009599  0
H  H9  1  0.13200868  0.70038067  0.57019657  1  0  0.100968  0  0.950625  0  0  0.122881  0  1.00949  0  0  0.124055  0  1.009306  0  0  0.087974  0.122022  0  1.009635  0
H  H10  1  0.37917874  0.48315001  0.80694912  1  0  0.115562  0  0.964703  0  0  0.133433  0  1.031116  0  0  0.133874  0  1.032998  0  0  0.090844  0.133069  0  1.029837  0
H  H11  1  0.12083316  0.19304916  0.51686096  1  0  0.115516  0  0.964725  0  0  0.133426  0  1.031107  0  0  0.133872  0  1.032982  0  0  0.090865  0.133061  0  1.029826  0
H  H12  1  0.62082159  0.51684623  0.19305195  1  0  0.115562  0  0.964716  0  0  0.133433  0  1.031121  0  0  0.133875  0  1.033  0  0  0.090818  0.133068  0  1.029842  0
H  H13  1  0.87916450  0.80696249  0.48313389  1  0  0.115525  0  0.964687  0  0  0.133416  0  1.031095  0  0  0.133862  0  1.03297  0  0  0.090806  0.13305  0  1.029815  0
H  H14  1  0.61622634  0.39209638  0.72639068  1  0  0.11368  0  0.956167  0  0  0.133633  0  1.016024  0  0  0.135225  0  1.015371  0  0  0.091198  0.132462  0  1.016485  0
H  H15  1  0.88375944  0.27360012  0.60791317  1  0  0.113626  0  0.956233  0  0  0.133583  0  1.0161  0  0  0.135166  0  1.015458  0  0  0.091181  0.132413  0  1.016557  0
H  H16  1  0.38375684  0.60790288  0.27360437  1  0  0.113668  0  0.956271  0  0  0.133623  0  1.01612  0  0  0.135216  0  1.015464  0  0  0.091188  0.132453  0  1.01658  0
H  H17  1  0.11624123  0.72640264  0.39208533  1  0  0.113657  0  0.956197  0  0  0.133606  0  1.016074  0  0  0.135197  0  1.015424  0  0  0.091194  0.132435  0  1.016534  0
C  C18  1  0.86943849  0.37670966  0.98330699  1  0  -0.107025  0  3.701322  0  0  -0.093821  0  3.941718  0  0  -0.101006  0  3.962268  0  0  -0.013705  -0.08884  0  3.927733  0
C  C19  1  0.63054462  0.01670191  0.62328420  1  0  -0.10704  0  3.701262  0  0  -0.093877  0  3.941605  0  0  -0.101016  0  3.962094  0  0  -0.013703  -0.088891  0  3.92762  0
C  C20  1  0.13053126  0.62327929  0.01669760  1  0  -0.106831  0  3.701821  0  0  -0.093575  0  3.942154  0  0  -0.100707  0  3.962638  0  0  -0.013666  -0.088597  0  3.92816  0
C  C21  1  0.36948479  0.98329892  0.37671712  1  0  -0.106957  0  3.701308  0  0  -0.093761  0  3.941738  0  0  -0.100922  0  3.962259  0  0  -0.013715  -0.088779  0  3.927746  0
C  C22  1  0.80070588  0.48824834  0.89127436  1  0  0.143017  0  3.714425  0  0  0.159265  0  3.957973  0  0  0.161031  0  3.981587  0  0  0.001529  0.157905  0  3.941765  0
C  C23  1  0.69928280  0.10871924  0.51174938  1  0  0.142759  0  3.714751  0  0  0.159185  0  3.958061  0  0  0.16094  0  3.981663  0  0  0.001406  0.157808  0  3.941881  0
C  C24  1  0.19926414  0.51175983  0.10871432  1  0  0.142798  0  3.714342  0  0  0.158996  0  3.957935  0  0  0.160744  0  3.981539  0  0  0.001453  0.157638  0  3.941736  0
C  C25  1  0.30073340  0.89128972  0.48824450  1  0  0.142814  0  3.71478  0  0  0.159036  0  3.958368  0  0  0.160797  0  3.981971  0  0  0.001462  0.157659  0  3.942194  0
C  C26  1  0.06465893  0.39054812  0.08832868  1  0  -0.11918  0  3.702035  0  0  -0.152951  0  3.958005  0  0  -0.154134  0  3.977385  0  0  -0.084289  -0.151818  0  3.944984  0
C  C27  1  0.43531683  0.91167435  0.60945821  1  0  -0.119103  0  3.702124  0  0  -0.152898  0  3.9581  0  0  -0.154095  0  3.977462  0  0  -0.084286  -0.151763  0  3.945085  0
C  C28  1  0.93534355  0.60945685  0.91169850  1  0  -0.119532  0  3.7024  0  0  -0.153324  0  3.958361  0  0  -0.15452  0  3.977724  0  0  -0.084515  -0.152171  0  3.945343  0
C  C29  1  0.56468389  0.08831218  0.39053614  1  0  -0.119173  0  3.702209  0  0  -0.153024  0  3.958113  0  0  -0.154206  0  3.977477  0  0  -0.084353  -0.151863  0  3.945105  0
C  C30  1  0.73699565  0.24145249  0.97709372  1  0  0.70148  0  3.796039  0  0  0.645783  0  4.085755  0  0  0.682464  0  4.07611  0  0  0.229947  0.620727  0  4.092097  0
C  C31  1  0.76301385  0.02291246  0.75855218  1  0  0.701706  0  3.795655  0  0  0.646001  0  4.085396  0  0  0.682668  0  4.075755  0  0  0.23008  0.620948  0  4.091736  0
C  C32  1  0.26301469  0.75854512  0.02291319  1  0  0.701609  0  3.795736  0  0  0.645869  0  4.085471  0  0  0.682538  0  4.075828  0  0  0.22999  0.620813  0  4.091811  0
C  C33  1  0.23700312  0.97708935  0.24143721  1  0  0.701792  0  3.795567  0  0  0.64608  0  4.085312  0  0  0.682747  0  4.075668  0  0  0.230178  0.621023  0  4.091651  0
C  C34  1  0.59735473  0.48307742  0.77463610  1  0  -0.333741  0  3.735706  0  0  -0.412993  0  3.971035  0  0  -0.414853  0  3.980187  0  0  -0.242061  -0.411383  0  3.964602  0
C  C35  1  0.90264295  0.22536230  0.51693118  1  0  -0.333657  0  3.735798  0  0  -0.413024  0  3.971084  0  0  -0.414878  0  3.980241  0  0  -0.242101  -0.411405  0  3.964655  0
C  C36  1  0.40264549  0.51691623  0.22537290  1  0  -0.333856  0  3.735509  0  0  -0.413057  0  3.970833  0  0  -0.414915  0  3.979979  0  0  -0.242087  -0.411449  0  3.964398  0
C  C37  1  0.09734387  0.77464008  0.48307245  1  0  -0.333762  0  3.735672  0  0  -0.413042  0  3.97099  0  0  -0.414904  0  3.980136  0  0  -0.242103  -0.411426  0  3.964563  0
O  O38  1  0.49106937  0.23326284  0.92532656  1  0  -0.603937  0  2.061979  0  0  -0.529839  0  2.316969  0  0  -0.559473  0  2.305611  0  0  -0.293235  -0.509879  0  2.324511  0
O  O39  1  0.00893184  0.07466909  0.76673268  1  0  -0.60394  0  2.062212  0  0  -0.52981  0  2.317202  0  0  -0.55947  0  2.30591  0  0  -0.293218  -0.509863  0  2.324753  0
O  O40  1  0.50894538  0.76672722  0.07466694  1  0  -0.603962  0  2.062133  0  0  -0.529791  0  2.317105  0  0  -0.559434  0  2.30577  0  0  -0.293202  -0.509833  0  2.324646  0
O  O41  1  0.99107189  0.92533032  0.23326681  1  0  -0.604015  0  2.061961  0  0  -0.529894  0  2.316956  0  0  -0.559554  0  2.305667  0  0  -0.293246  -0.509925  0  2.324492  0
O  O42  1  0.88107575  0.14133072  0.02833379  1  0  -0.698086  0  2.194845  0  0  -0.624114  0  2.471304  0  0  -0.654159  0  2.456043  0  0  -0.316832  -0.602747  0  2.481037  0
O  O43  1  0.61892440  0.97165481  0.85867948  1  0  -0.698195  0  2.194456  0  0  -0.624293  0  2.47102  0  0  -0.654325  0  2.455721  0  0  -0.31693  -0.602916  0  2.480735  0
O  O44  1  0.11893864  0.85866983  0.97166751  1  0  -0.698141  0  2.194845  0  0  -0.624141  0  2.471247  0  0  -0.654199  0  2.456002  0  0  -0.316801  -0.602776  0  2.480989  0
O  O45  1  0.38107644  0.02833784  0.14132443  1  0  -0.698227  0  2.195009  0  0  -0.624184  0  2.471378  0  0  -0.654227  0  2.456138  0  0  -0.316893  -0.602824  0  2.481129  0
