# generated using pymatgen
data_Zn4H4C24O13F4
_symmetry_space_group_name_H-M   'P 1'
_cell_length_a   15.96292211
_cell_length_b   15.96277206
_cell_length_c   16.86270633
_cell_angle_alpha   63.36714848
_cell_angle_beta   63.36691286
_cell_angle_gamma   90.47204015
_symmetry_Int_Tables_number   1
_chemical_formula_structural   Zn4H4C24O13F4
_chemical_formula_sum   'Zn8 H8 C48 O26 F8'
_cell_volume   3313.63949231
_cell_formula_units_Z   2
loop_
 _symmetry_equiv_pos_site_id
 _symmetry_equiv_pos_as_xyz
  1  'x, y, z'
loop_
 _atom_site_type_symbol
 _atom_site_label
 _atom_site_symmetry_multiplicity
 _atom_site_fract_x
 _atom_site_fract_y
 _atom_site_fract_z
 _atom_site_occupancy
 _atom_site_pbe_bader_charge
 _atom_site_pbe_bader_spin_density
 _atom_site_pbe_cm5_charge
 _atom_site_pbe_ddec_charge
 _atom_site_pbe_ddec_spin_density
 _atom_site_pbe_ddec_sum_bond_order
 _atom_site_pbe_magmom
Zn  Zn0  1  0.20568273  0.80846490  0.58782001  1  1.311318  0  0.68169  0.96694  0  2.33792  0
Zn  Zn1  1  0.79431678  0.19153653  0.41218557  1  1.311357  0  0.681767  0.967061  0  2.337698  0
Zn  Zn2  1  0.80846574  0.20568399  0.58781749  1  1.311276  0  0.681674  0.967022  0  2.337949  0
Zn  Zn3  1  0.19153803  0.79432036  0.41218089  1  1.311275  0  0.681678  0.966968  0  2.337959  0
Zn  Zn4  1  0.20997656  0.60860883  0.58727727  1  1.317413  0  0.683054  0.96825  0  2.353952  0
Zn  Zn5  1  0.79001875  0.39139261  0.41272415  1  1.317355  0  0.683033  0.968272  0  2.353839  0
Zn  Zn6  1  0.60860751  0.20998024  0.58727539  1  1.317368  0  0.683007  0.96823  0  2.354005  0
Zn  Zn7  1  0.39138952  0.79001975  0.41272591  1  1.317324  0  0.683018  0.968239  0  2.353945  0
H  H8  1  0.12021048  0.75126461  0.82564845  1  0.17064  0  0.114124  0.152187  0  1.017983  0
H  H9  1  0.87978771  0.24873174  0.17435627  1  0.170527  0  0.11414  0.152175  0  1.017945  0
H  H10  1  0.75126338  0.12020149  0.82564868  1  0.1701  0  0.114173  0.152266  0  1.017865  0
H  H11  1  0.24873031  0.87978832  0.17435893  1  0.170486  0  0.114137  0.15217  0  1.017843  0
H  H12  1  0.02704372  0.46514417  0.79685547  1  0.14918  0  0.111526  0.142652  0  1.012441  0
H  H13  1  0.97295391  0.53485001  0.20314685  1  0.149238  0  0.111535  0.142665  0  1.012437  0
H  H14  1  0.46514640  0.02704373  0.79685647  1  0.149191  0  0.111527  0.142656  0  1.012442  0
H  H15  1  0.53484816  0.97295480  0.20314412  1  0.149316  0  0.111568  0.142718  0  1.012349  0
C  C16  1  0.95087319  0.43972846  0.10927940  1  -0.005694  0  -0.005353  -0.119166  0  3.851096  0
C  C17  1  0.61943071  0.10925297  0.77568215  1  1.552642  0  0.232413  0.61742  0  4.11802  0
C  C18  1  0.89074257  0.38056266  0.22432190  1  1.553065  0  0.232429  0.617524  0  4.117964  0
C  C19  1  0.10925685  0.61943298  0.77567727  1  1.552748  0  0.232454  0.617493  0  4.117955  0
C  C20  1  0.38056406  0.89073831  0.22432142  1  1.553038  0  0.232482  0.617618  0  4.117744  0
C  C21  1  0.09051824  0.90948878  0.49999559  1  1.656413  0  0.243642  0.677153  0  4.217615  0
C  C22  1  0.90948249  0.09051994  0.49999453  1  1.655985  0  0.243615  0.677189  0  4.217825  0
C  C23  1  0.90819433  0.40855010  0.50010599  1  1.69787  0  0.244916  0.679639  0  4.207887  0
C  C24  1  0.04912697  0.56027008  0.89072179  1  -0.005944  0  -0.005282  -0.11901  0  3.85102  0
C  C25  1  0.09180440  0.59145642  0.49989242  1  1.698126  0  0.244959  0.679825  0  4.207737  0
C  C26  1  0.40940914  0.59057950  0.50000042  1  1.65563  0  0.245626  0.677215  0  4.214061  0
C  C27  1  0.59058492  0.40941977  0.49999533  1  1.655695  0  0.245522  0.677256  0  4.213996  0
C  C28  1  0.59145478  0.09180423  0.49989195  1  1.698094  0  0.244896  0.679602  0  4.207958  0
C  C29  1  0.40854513  0.90819867  0.50010335  1  1.69798  0  0.244894  0.679558  0  4.207967  0
C  C30  1  0.43973193  0.95087041  0.10927742  1  -0.005719  0  -0.005268  -0.119026  0  3.850984  0
C  C31  1  0.47291742  0.97289572  0.50015208  1  -0.206759  0  -0.00899  -0.10104  0  3.89107  0
C  C32  1  0.52708860  0.02710646  0.49983915  1  0.031208  0  -0.008854  -0.100947  0  3.891123  0
C  C33  1  0.97324724  0.02675866  0.49999934  1  -0.16273  0  -0.008813  -0.100138  0  3.905758  0
C  C34  1  0.02675398  0.97324930  0.50000037  1  0.049608  0  -0.0088  -0.100157  0  3.905723  0
C  C35  1  0.02710182  0.52709210  0.49984206  1  -0.207309  0  -0.008947  -0.101052  0  3.891137  0
C  C36  1  0.97289015  0.47291803  0.50016005  1  0.031764  0  -0.008954  -0.101035  0  3.891146  0
C  C37  1  0.52675405  0.47323393  0.49999789  1  0.049895  0  -0.008248  -0.100205  0  3.902621  0
C  C38  1  0.56026570  0.04912377  0.89072549  1  -0.006389  0  -0.005253  -0.119033  0  3.851005  0
C  C39  1  0.47323125  0.52675590  0.49999725  1  -0.159592  0  -0.008143  -0.099776  0  3.902582  0
C  C40  1  0.08760675  0.70131642  0.90754697  1  0.00088  0  -0.105745  -0.255315  0  3.982661  0
C  C41  1  0.91238934  0.29867994  0.09245568  1  -0.000743  0  -0.105745  -0.255253  0  3.98271  0
C  C42  1  0.70131198  0.08759594  0.90755236  1  0.001501  0  -0.105865  -0.255561  0  3.983266  0
C  C43  1  0.29868223  0.91239317  0.09245119  1  0.000827  0  -0.105708  -0.255207  0  3.982879  0
C  C44  1  0.99774564  0.42079038  0.87911334  1  0.105997  0  -0.101732  -0.24363  0  3.987938  0
C  C45  1  0.00225072  0.57920162  0.12089223  1  0.105697  0  -0.101636  -0.243579  0  3.987943  0
C  C46  1  0.42079446  0.99774798  0.87911155  1  0.106208  0  -0.101731  -0.243691  0  3.987905  0
C  C47  1  0.57920233  0.00224838  0.12088961  1  0.10569  0  -0.101613  -0.243602  0  3.988154  0
C  C48  1  0.08417635  0.73761512  0.96807192  1  0.460252  0  0.098158  0.199875  0  4.118537  0
C  C49  1  0.91582389  0.26237833  0.03193138  1  0.460312  0  0.09807  0.199732  0  4.118515  0
C  C50  1  0.73761437  0.08417127  0.96806784  1  0.460424  0  0.098203  0.199901  0  4.118848  0
C  C51  1  0.26238332  0.91582581  0.03193383  1  0.460378  0  0.098102  0.199788  0  4.118763  0
C  C52  1  0.95652741  0.32447709  0.92461893  1  0.423756  0  0.097577  0.19641  0  4.113812  0
C  C53  1  0.04347233  0.67551710  0.07538250  1  0.423538  0  0.097501  0.196342  0  4.113782  0
C  C54  1  0.32447767  0.95652898  0.92461737  1  0.423615  0  0.097582  0.196411  0  4.113703  0
C  C55  1  0.67551651  0.04346811  0.07538340  1  0.423761  0  0.097529  0.196422  0  4.114064  0
C  C56  1  0.99774233  0.53881678  0.06218684  1  0.039027  0  0.003269  0.080585  0  3.965979  0
C  C57  1  0.00225886  0.46118031  0.93781215  1  0.038616  0  0.003257  0.080499  0  3.965864  0
C  C58  1  0.53881815  0.99773288  0.06219076  1  0.038879  0  0.003234  0.080479  0  3.966174  0
C  C59  1  0.46117700  0.00225985  0.93781205  1  0.03844  0  0.00329  0.080662  0  3.965858  0
C  C60  1  0.95454280  0.39897850  0.04862063  1  0.017972  0  0.003071  0.080831  0  3.967355  0
C  C61  1  0.04545394  0.60101496  0.95138118  1  0.016854  0  0.003115  0.080845  0  3.967435  0
C  C62  1  0.39897989  0.95454412  0.04862034  1  0.016395  0  0.003025  0.080746  0  3.967287  0
C  C63  1  0.60101502  0.04544498  0.95138173  1  0.017425  0  0.003108  0.080925  0  3.967592  0
O  O64  1  0.24963662  0.75036179  0.50000221  1  -1.217962  0  -0.57532  -1.04228  0  2.554694  0
O  O65  1  0.70855453  0.10889658  0.72979415  1  -1.169129  0  -0.30769  -0.537065  0  2.334885  0
O  O66  1  0.84008246  0.42338990  0.27002702  1  -1.169684  0  -0.312325  -0.545003  0  2.343912  0
O  O67  1  0.15990948  0.57660936  0.72997438  1  -1.16975  0  -0.312326  -0.544866  0  2.344164  0
O  O68  1  0.42338792  0.84008315  0.27002376  1  -1.169662  0  -0.31235  -0.544985  0  2.343877  0
O  O69  1  0.57660794  0.15990958  0.72997756  1  -1.169672  0  -0.312314  -0.544887  0  2.344094  0
O  O70  1  0.89109600  0.29144394  0.27020570  1  -1.169173  0  -0.307594  -0.536939  0  2.335061  0
O  O71  1  0.10890021  0.70855823  0.72979087  1  -1.16914  0  -0.307678  -0.537071  0  2.334877  0
O  O72  1  0.29144202  0.89109615  0.27020747  1  -1.169139  0  -0.307689  -0.5371  0  2.335  0
O  O73  1  0.75036098  0.24964037  0.50000150  1  -1.217982  0  -0.575288  -1.042241  0  2.554589  0
O  O74  1  0.09341705  0.86285545  0.45453218  1  -1.13896  0  -0.300229  -0.526524  0  2.262076  0
O  O75  1  0.90658414  0.13715250  0.54547585  1  -1.138721  0  -0.300329  -0.526693  0  2.261648  0
O  O76  1  0.89084569  0.44679522  0.42630641  1  -1.148567  0  -0.298584  -0.52936  0  2.265614  0
O  O77  1  0.10915621  0.55320187  0.57369050  1  -1.148534  0  -0.298558  -0.52945  0  2.265545  0
O  O78  1  0.45063790  0.68121127  0.44798558  1  -1.1371  0  -0.298281  -0.523143  0  2.264553  0
O  O79  1  0.54936043  0.31878292  0.55201288  1  -1.137245  0  -0.298288  -0.523157  0  2.264459  0
O  O80  1  0.67927969  0.12458473  0.42631770  1  -1.145296  0  -0.298962  -0.528045  0  2.260521  0
O  O81  1  0.32072466  0.87542180  0.57367358  1  -1.145256  0  -0.298919  -0.527948  0  2.260787  0
O  O82  1  0.87541342  0.32071878  0.57368945  1  -1.145216  0  -0.298996  -0.528121  0  2.260321  0
O  O83  1  0.12458718  0.67928411  0.42631090  1  -1.145412  0  -0.299012  -0.52814  0  2.260289  0
O  O84  1  0.13715561  0.90659582  0.54545878  1  -1.13907  0  -0.300246  -0.526537  0  2.261986  0
O  O85  1  0.86285622  0.09341796  0.45454051  1  -1.138982  0  -0.30013  -0.526457  0  2.262749  0
O  O86  1  0.55319852  0.10915502  0.57369554  1  -1.148562  0  -0.298612  -0.529416  0  2.265393  0
O  O87  1  0.44680618  0.89084208  0.42629959  1  -1.148674  0  -0.298631  -0.529404  0  2.265336  0
O  O88  1  0.31878474  0.54936531  0.55201148  1  -1.137288  0  -0.298236  -0.523004  0  2.26489  0
O  O89  1  0.68120669  0.45063467  0.44799160  1  -1.137185  0  -0.298203  -0.523037  0  2.265044  0
F  F90  1  0.95364153  0.28696479  0.86804560  1  -0.617114  0  -0.091295  -0.116193  0  1.369496  0
F  F91  1  0.04635890  0.71302940  0.13195434  1  -0.617009  0  -0.091379  -0.116269  0  1.369377  0
F  F92  1  0.28696885  0.95363817  0.86804597  1  -0.617065  0  -0.091312  -0.116209  0  1.369553  0
F  F93  1  0.71302687  0.04635674  0.13195210  1  -0.617179  0  -0.091443  -0.116338  0  1.369642  0
F  F94  1  0.12006442  0.83325007  0.92674812  1  -0.617084  0  -0.089178  -0.11655  0  1.38451  0
F  F95  1  0.87993965  0.16674194  0.07325240  1  -0.617224  0  -0.089119  -0.116472  0  1.384441  0
F  F96  1  0.83324628  0.12007036  0.92674459  1  -0.617402  0  -0.089202  -0.116527  0  1.384558  0
F  F97  1  0.16674556  0.87994196  0.07325132  1  -0.617243  0  -0.089189  -0.116561  0  1.384413  0
