# generated using pymatgen
data_ZnH10C5(NO3)2
_symmetry_space_group_name_H-M   'P 1'
_cell_length_a   8.20285844
_cell_length_b   8.68633133
_cell_length_c   13.28075477
_cell_angle_alpha   73.53781517
_cell_angle_beta   86.57366954
_cell_angle_gamma   89.56988747
_symmetry_Int_Tables_number   1
_chemical_formula_structural   ZnH10C5(NO3)2
_chemical_formula_sum   'Zn4 H40 C20 N8 O24'
_cell_volume   905.83281951
_cell_formula_units_Z   4
loop_
 _symmetry_equiv_pos_site_id
 _symmetry_equiv_pos_as_xyz
  1  'x, y, z'
loop_
 _atom_site_type_symbol
 _atom_site_label
 _atom_site_symmetry_multiplicity
 _atom_site_fract_x
 _atom_site_fract_y
 _atom_site_fract_z
 _atom_site_occupancy
 _atom_site_pbe_bader_spin_density
 _atom_site_pbe_cm5_charge
 _atom_site_pbe_ddec_charge
 _atom_site_pbe_ddec_spin_density
 _atom_site_pbe_ddec_sum_bond_order
 _atom_site_pbe_magmom
Zn  Zn0  1  0.06513765  0.72301472  0.66177487  1  0  0.67597  0.874145  0  2.237946  0
Zn  Zn1  1  0.93486651  0.27698470  0.33822488  1  0  0.675996  0.874204  0  2.237891  0
Zn  Zn2  1  0.59774672  0.77393460  0.33462152  1  0  0.674204  0.87529  0  2.233749  0
Zn  Zn3  1  0.40225379  0.22606603  0.66537739  1  0  0.674181  0.875216  0  2.233789  0
H  H4  1  0.33770379  0.67209115  0.51804023  1  0  0.113698  0.026888  0  1.020641  0
H  H5  1  0.66229793  0.32790827  0.48195885  1  0  0.113705  0.026911  0  1.020575  0
H  H6  1  0.51074134  0.84928469  0.73575374  1  0  0.10774  0.018216  0  1.002938  0
H  H7  1  0.48926042  0.15071835  0.26424318  1  0  0.107712  0.018212  0  1.002916  0
H  H8  1  0.83911765  0.82447128  0.47736877  1  0  0.112381  0.023104  0  1.02448  0
H  H9  1  0.16088406  0.17552695  0.52262977  1  0  0.112395  0.023134  0  1.02444  0
H  H10  1  0.94961337  0.35376567  0.74318121  1  0  0.10965  0.01964  0  0.996539  0
H  H11  1  0.05038836  0.64623495  0.25681765  1  0  0.109633  0.019618  0  0.996552  0
H  H12  1  0.69075095  0.52371890  0.93627674  1  0  0.099593  0.058384  0  1.043196  0
H  H13  1  0.30924472  0.47628770  0.06372351  1  0  0.099612  0.058369  0  1.043311  0
H  H14  1  0.54258378  0.63076298  0.99374844  1  0  0.104786  0.067568  0  1.004092  0
H  H15  1  0.45741313  0.36924720  0.00625262  1  0  0.10479  0.067601  0  1.004086  0
H  H16  1  0.73958220  0.49558502  0.12623399  1  0  0.093178  0.143013  0  1.020277  0
H  H17  1  0.26041341  0.50441321  0.87376403  1  0  0.093181  0.143001  0  1.020289  0
H  H18  1  0.76050296  0.70784206  0.09637061  1  0  0.087494  0.127995  0  1.025242  0
H  H19  1  0.23950239  0.29215491  0.90363556  1  0  0.087467  0.127914  0  1.025294  0
H  H20  1  0.90642771  0.59363265  0.04237123  1  0  0.093061  0.13825  0  1.009742  0
H  H21  1  0.09356909  0.40636317  0.95762793  1  0  0.093072  0.138253  0  1.009672  0
H  H22  1  0.07857647  0.00764592  0.69073524  1  0  0.301058  0.276021  0  0.992681  0
H  H23  1  0.92142403  0.99235349  0.30926464  1  0  0.301047  0.276001  0  0.992707  0
H  H24  1  0.93550995  0.01555383  0.60556137  1  0  0.299589  0.274467  0  0.996751  0
H  H25  1  0.06448932  0.98444559  0.39443856  1  0  0.29957  0.274508  0  0.996714  0
H  H26  1  0.76374171  0.00756563  0.73775686  1  0  0.317503  0.27419  0  0.984888  0
H  H27  1  0.23625759  0.99243619  0.26224187  1  0  0.317506  0.274185  0  0.984904  0
H  H28  1  0.27482651  0.99000344  0.04837657  1  0  0.099426  0.062703  0  1.026364  0
H  H29  1  0.72517277  0.00999597  0.95162335  1  0  0.099433  0.062714  0  1.026346  0
H  H30  1  0.41062587  0.90346357  0.97085487  1  0  0.103948  0.073378  0  1.002733  0
H  H31  1  0.58937341  0.09653584  0.02914506  1  0  0.103961  0.073409  0  1.002719  0
H  H32  1  0.15355285  0.99160624  0.87892676  1  0  0.094758  0.143417  0  1.017248  0
H  H33  1  0.84644764  0.00839197  0.12107333  1  0  0.094769  0.143435  0  1.017234  0
H  H34  1  0.17183790  0.77907475  0.90996518  1  0  0.09068  0.132942  0  1.013206  0
H  H35  1  0.82816260  0.22092467  0.09003545  1  0  0.090678  0.13293  0  1.013185  0
H  H36  1  0.03555333  0.86589534  0.98765003  1  0  0.090346  0.12625  0  1.016685  0
H  H37  1  0.96444595  0.13410408  0.01234914  1  0  0.090347  0.126244  0  1.016687  0
H  H38  1  0.44591697  0.48805329  0.39080235  1  0  0.300103  0.275572  0  0.992468  0
H  H39  1  0.55408354  0.51194733  0.60919656  1  0  0.3001  0.275572  0  0.992452  0
H  H40  1  0.60276651  0.48341968  0.30680732  1  0  0.301184  0.276248  0  0.989526  0
H  H41  1  0.39723401  0.51658214  0.69319137  1  0  0.301162  0.27618  0  0.989545  0
H  H42  1  0.30167890  0.50272429  0.25400710  1  0  0.320685  0.276455  0  0.977277  0
H  H43  1  0.69832036  0.49727272  0.74599401  1  0  0.320715  0.276463  0  0.977265  0
C  C44  1  0.27737987  0.77540861  0.46539009  1  0  0.149009  0.50236  0  4.152989  0
C  C45  1  0.72262307  0.22459080  0.53461046  1  0  0.149027  0.502384  0  4.152752  0
C  C46  1  0.38550207  0.86088204  0.70767665  1  0  0.152638  0.507641  0  4.177552  0
C  C47  1  0.61449846  0.13912098  0.29232258  1  0  0.152683  0.507666  0  4.177508  0
C  C48  1  0.76994044  0.72192624  0.53065082  1  0  0.146231  0.500907  0  4.161482  0
C  C49  1  0.23006127  0.27807199  0.46934773  1  0  0.146275  0.500954  0  4.161418  0
C  C50  1  0.07792325  0.36220982  0.71082455  1  0  0.155092  0.509799  0  4.173122  0
C  C51  1  0.92207725  0.63778960  0.28917533  1  0  0.155112  0.50981  0  4.173162  0
C  C52  1  0.83496916  0.77826493  0.82288761  1  0  0.322306  0.625948  0  4.216786  0
C  C53  1  0.16502407  0.22174285  0.17711403  1  0  0.322335  0.625928  0  4.216796  0
C  C54  1  0.67244934  0.62274479  0.97165096  1  0  -0.068818  0.094101  0  3.865721  0
C  C55  1  0.32754511  0.37726180  0.02835085  1  0  -0.06887  0.09398  0  3.865873  0
C  C56  1  0.77678164  0.60517552  0.06410786  1  0  -0.257554  -0.415908  0  3.918494  0
C  C57  1  0.22321642  0.39482508  0.93589340  1  0  -0.257537  -0.415774  0  3.918344  0
C  C58  1  0.40087095  0.72750931  0.17007599  1  0  0.32082  0.619119  0  4.224843  0
C  C59  1  0.59912953  0.27248772  0.82992357  1  0  0.320897  0.619168  0  4.224821  0
C  C60  1  0.29031320  0.89017932  0.01342843  1  0  -0.068507  0.094199  0  3.846345  0
C  C61  1  0.70968486  0.10982010  0.98657154  1  0  -0.068546  0.09413  0  3.846411  0
C  C62  1  0.15475301  0.88007726  0.94375580  1  0  -0.254216  -0.404701  0  3.926881  0
C  C63  1  0.84524627  0.11992216  0.05624413  1  0  -0.254222  -0.404694  0  3.926888  0
N  N64  1  0.98183477  0.94490109  0.67481625  1  0  -0.52011  -0.446881  0  3.436176  0
N  N65  1  0.01816450  0.05509833  0.32518367  1  0  -0.520105  -0.446963  0  3.43631  0
N  N66  1  0.85782334  0.92722814  0.75555468  1  0  -0.348317  -0.281432  0  3.557845  0
N  N67  1  0.14217715  0.07277007  0.24444617  1  0  -0.348314  -0.281399  0  3.55785  0
N  N68  1  0.50798147  0.55418808  0.32160196  1  0  -0.516743  -0.443408  0  3.423089  0
N  N69  1  0.49201780  0.44581015  0.67839743  1  0  -0.516701  -0.443286  0  3.422977  0
N  N70  1  0.40050872  0.57910358  0.23966136  1  0  -0.349508  -0.286505  0  3.572218  0
N  N71  1  0.59949055  0.42089464  0.76033803  1  0  -0.349576  -0.28658  0  3.57223  0
O  O72  1  0.14596572  0.82530862  0.50130218  1  0  -0.314299  -0.510262  0  2.359787  0
O  O73  1  0.85404215  0.17469679  0.49869860  1  0  -0.314341  -0.510292  0  2.359632  0
O  O74  1  0.34229884  0.83599764  0.37380470  1  0  -0.31417  -0.516983  0  2.335439  0
O  O75  1  0.65770287  0.16400059  0.62619460  1  0  -0.31414  -0.516963  0  2.335374  0
O  O76  1  0.30683183  0.73169660  0.71787141  1  0  -0.314089  -0.52017  0  2.362871  0
O  O77  1  0.69316746  0.26830520  0.28213035  1  0  -0.314125  -0.52023  0  2.36284  0
O  O78  1  0.33034875  0.00033791  0.66831693  1  0  -0.315864  -0.513545  0  2.446937  0
O  O79  1  0.66965178  0.99966512  0.33168154  1  0  -0.315855  -0.513526  0  2.446912  0
O  O80  1  0.81829854  0.66215715  0.62215772  1  0  -0.317494  -0.521181  0  2.33038  0
O  O81  1  0.18170319  0.33784347  0.37784190  1  0  -0.317512  -0.521229  0  2.330411  0
O  O82  1  0.64554420  0.67208998  0.49534695  1  0  -0.31508  -0.513065  0  2.360645  0
O  O83  1  0.35445629  0.32790944  0.50465294  1  0  -0.315108  -0.513084  0  2.360645  0
O  O84  1  0.15403347  0.23142731  0.72237989  1  0  -0.314133  -0.516177  0  2.367764  0
O  O85  1  0.84596583  0.76857452  0.27761884  1  0  -0.314113  -0.51616  0  2.367692  0
O  O86  1  0.13936469  0.49962027  0.66550004  1  0  -0.317775  -0.513609  0  2.450138  0
O  O87  1  0.86063827  0.50038155  0.33449931  1  0  -0.317798  -0.513626  0  2.450242  0
O  O88  1  0.92507345  0.66198446  0.82388501  1  0  -0.290267  -0.530423  0  2.240525  0
O  O89  1  0.07492213  0.33801133  0.17611796  1  0  -0.290265  -0.530364  0  2.240763  0
O  O90  1  0.70424788  0.77411644  0.88993857  1  0  -0.175192  -0.279526  0  2.505049  0
O  O91  1  0.29575267  0.22588896  0.11006248  1  0  -0.175194  -0.27951  0  2.504974  0
O  O92  1  0.28759597  0.73951838  0.09918682  1  0  -0.173949  -0.2753  0  2.485697  0
O  O93  1  0.71240453  0.26048104  0.90081306  1  0  -0.173968  -0.275295  0  2.48572  0
O  O94  1  0.49826161  0.83686240  0.17019014  1  0  -0.291044  -0.529136  0  2.239213  0
O  O95  1  0.50173890  0.16313823  0.82980801  1  0  -0.29107  -0.529121  0  2.239179  0
