# generated using pymatgen
data_Gd2H22C18S9N6O17
_symmetry_space_group_name_H-M   'P 1'
_cell_length_a   9.58336664
_cell_length_b   13.23850025
_cell_length_c   14.93690000
_cell_angle_alpha   65.48740301
_cell_angle_beta   82.05168224
_cell_angle_gamma   79.99498772
_symmetry_Int_Tables_number   1
_chemical_formula_structural   Gd2H22C18S9N6O17
_chemical_formula_sum   'Gd4 H44 C36 S18 N12 O34'
_cell_volume   1693.37454085
_cell_formula_units_Z   2
loop_
 _symmetry_equiv_pos_site_id
 _symmetry_equiv_pos_as_xyz
  1  'x, y, z'
loop_
 _atom_site_type_symbol
 _atom_site_label
 _atom_site_symmetry_multiplicity
 _atom_site_fract_x
 _atom_site_fract_y
 _atom_site_fract_z
 _atom_site_occupancy
 _atom_site_hle17_bader_spin_density
 _atom_site_hle17_ddec_charge
 _atom_site_hle17_ddec_spin_density
 _atom_site_hle17_ddec_sum_bond_order
 _atom_site_hle17_magmom
 _atom_site_hse06_10hf_bader_spin_density
 _atom_site_hse06_10hf_ddec_charge
 _atom_site_hse06_10hf_ddec_spin_density
 _atom_site_hse06_10hf_ddec_sum_bond_order
 _atom_site_hse06_10hf_magmom
 _atom_site_hse06_bader_spin_density
 _atom_site_hse06_ddec_charge
 _atom_site_hse06_ddec_spin_density
 _atom_site_hse06_ddec_sum_bond_order
 _atom_site_hse06_magmom
 _atom_site_pbe_bader_charge
 _atom_site_pbe_bader_spin_density
 _atom_site_pbe_cm5_charge
 _atom_site_pbe_ddec_charge
 _atom_site_pbe_ddec_spin_density
 _atom_site_pbe_ddec_sum_bond_order
 _atom_site_pbe_magmom
Gd  Gd0  1  0.83539130  0.44815057  0.45905610  1  0  2.228933  0  1.720815  0  0  2.145741  0  2.061547  0  0  2.1932  0  2.013536  0  2.197014  0  1.456731  2.10848  0  2.100653  0
Gd  Gd1  1  0.16460920  0.55184963  0.54094506  1  0  2.228873  0  1.720908  0  0  2.14576  0  2.06153  0  0  2.193216  0  2.013529  0  2.19703  0  1.456743  2.108514  0  2.100616  0
Gd  Gd2  1  0.70756607  0.96136306  0.55020615  1  0  2.221473  0  1.73359  0  0  2.127174  0  2.083961  0  0  2.180648  0  2.033173  0  2.203377  0  1.463837  2.083333  0  2.128669  0
Gd  Gd3  1  0.29243375  0.03864132  0.44979085  1  0  2.221422  0  1.733645  0  0  2.127083  0  2.084061  0  0  2.18057  0  2.033237  0  2.203467  0  1.463775  2.083231  0  2.128779  0
H  H4  1  0.98379251  0.10398454  0.26088747  1  0  0.141577  0  0.927108  0  0  0.152234  0  0.98947  0  0  0.154366  0  0.989062  0  0.07002  0  0.11379  0.150796  0  0.9897  0
H  H5  1  0.01620419  0.89601314  0.73911160  1  0  0.141708  0  0.92705  0  0  0.152322  0  0.989416  0  0  0.154456  0  0.989001  0  0.069957  0  0.11382  0.150889  0  0.989645  0
H  H6  1  0.09356113  0.98557260  0.24911344  1  0  0.135064  0  0.945749  0  0  0.139497  0  1.019318  0  0  0.142338  0  1.017969  0  0.128216  0  0.106838  0.13765  0  1.019999  0
H  H7  1  0.90644162  0.01442676  0.75088715  1  0  0.13507  0  0.945771  0  0  0.139476  0  1.019352  0  0  0.142313  0  1.018  0  0.128237  0  0.106848  0.137633  0  1.020033  0
H  H8  1  0.07527433  0.22892858  0.77555198  1  0  0.132295  0  0.951185  0  0  0.134533  0  1.027416  0  0  0.137301  0  1.026558  0  0.129852  0  0.104466  0.132305  0  1.028541  0
H  H9  1  0.92472384  0.77106660  0.22444922  1  0  0.132306  0  0.951194  0  0  0.134549  0  1.027434  0  0  0.137313  0  1.026584  0  0.129631  0  0.104489  0.132313  0  1.028563  0
H  H10  1  0.96982932  0.35065774  0.78274845  1  0  0.139721  0  0.933725  0  0  0.145486  0  1.003225  0  0  0.148621  0  1.001449  0  0.125699  0  0.110169  0.143452  0  1.004287  0
H  H11  1  0.03016885  0.64933744  0.21725342  1  0  0.139666  0  0.933754  0  0  0.145423  0  1.003287  0  0  0.148594  0  1.001477  0  0.12564  0  0.110136  0.143391  0  1.00435  0
H  H12  1  0.54326349  0.39686072  0.76052002  1  0  0.135119  0  0.945422  0  0  0.139608  0  1.018914  0  0  0.141919  0  1.018731  0  0.119325  0  0.108046  0.138123  0  1.018797  0
H  H13  1  0.45673953  0.60313697  0.23947781  1  0  0.135144  0  0.945417  0  0  0.139586  0  1.01894  0  0  0.141908  0  1.018764  0  0.119327  0  0.108044  0.1381  0  1.018823  0
H  H14  1  0.46413717  0.53713319  0.69736310  1  0  0.14257  0  0.926926  0  0  0.153216  0  0.988302  0  0  0.156634  0  0.985778  0  0.128699  0  0.11283  0.151027  0  0.989776  0
H  H15  1  0.53586361  0.46286533  0.30262994  1  0  0.142576  0  0.926942  0  0  0.153209  0  0.988304  0  0  0.156639  0  0.985785  0  0.128499  0  0.112828  0.151019  0  0.98978  0
H  H16  1  0.47928176  0.25715504  0.26275678  1  0  0.127437  0  0.957157  0  0  0.13198  0  1.032356  0  0  0.134792  0  1.031204  0  0.140862  0  0.106754  0.129781  0  1.03363  0
H  H17  1  0.52071975  0.74285186  0.73723847  1  0  0.127469  0  0.95707  0  0  0.131997  0  1.032285  0  0  0.13481  0  1.031125  0  0.140902  0  0.106742  0.129799  0  1.033564  0
H  H18  1  0.55613661  0.15710286  0.21300590  1  0  0.144166  0  0.923659  0  0  0.151905  0  0.989654  0  0  0.154536  0  0.988596  0  0.13083  0  0.111093  0.15012  0  0.990423  0
H  H19  1  0.44385831  0.84290571  0.78698865  1  0  0.144182  0  0.923662  0  0  0.151979  0  0.989606  0  0  0.154599  0  0.988556  0  0.131104  0  0.111165  0.150194  0  0.990375  0
H  H20  1  0.41140167  0.20369681  0.68524046  1  0  0.145659  0  0.926406  0  0  0.158694  0  0.981894  0  0  0.162023  0  0.979578  0  0.118288  0  0.120136  0.156132  0  0.983887  0
H  H21  1  0.58860488  0.79630506  0.31476021  1  0  0.145628  0  0.926462  0  0  0.158714  0  0.981908  0  0  0.162044  0  0.979588  0  0.118213  0  0.120134  0.156151  0  0.9839  0
H  H22  1  0.57981930  0.24046363  0.68897559  1  0  0.153231  0  0.923972  0  0  0.161937  0  0.986682  0  0  0.165553  0  0.984668  0  0.150016  0  0.117264  0.159452  0  0.988144  0
H  H23  1  0.42019179  0.75952987  0.31103177  1  0  0.153283  0  0.92391  0  0  0.161999  0  0.986612  0  0  0.165619  0  0.984596  0  0.150122  0  0.117286  0.159512  0  0.988071  0
H  H24  1  0.21442244  0.15238519  0.16541952  1  0  0.142529  0  0.941019  0  0  0.153655  0  1.00391  0  0  0.156339  0  1.002138  0  0.133943  0  0.108322  0.151825  0  1.00516  0
H  H25  1  0.78557110  0.84761249  0.83458117  1  0  0.142528  0  0.940968  0  0  0.153625  0  1.003899  0  0  0.156305  0  1.002118  0  0.13388  0  0.108256  0.151796  0  1.005146  0
H  H26  1  0.33291606  0.25304100  0.14212656  1  0  0.136045  0  0.960304  0  0  0.139492  0  1.037259  0  0  0.142141  0  1.036135  0  0.144254  0  0.105441  0.137554  0  1.038342  0
H  H27  1  0.66708541  0.74695334  0.85787466  1  0  0.1361  0  0.960259  0  0  0.139546  0  1.037221  0  0  0.14219  0  1.036088  0  0.144242  0  0.105443  0.137608  0  1.038297  0
H  H28  1  0.83673557  0.54381076  0.22750998  1  0  0.409345  0  0.903948  0  0  0.369305  0  0.982941  0  0  0.380464  0  0.966856  0  0.645348  0  0.292056  0.361564  0  0.993983  0
H  H29  1  0.16326535  0.45618693  0.77249139  1  0  0.409366  0  0.903916  0  0  0.369339  0  0.982894  0  0  0.380498  0  0.966807  0  0.645334  0  0.292066  0.361597  0  0.993936  0
H  H30  1  0.66998912  0.64319317  0.30673162  1  0  0.395375  0  0.929504  0  0  0.357083  0  1.006991  0  0  0.367336  0  0.992399  0  0.646079  0  0.290353  0.349816  0  1.017305  0
H  H31  1  0.33001610  0.35681038  0.69326722  1  0  0.395392  0  0.929492  0  0  0.357096  0  1.006991  0  0  0.367348  0  0.992399  0  0.646105  0  0.290357  0.349827  0  1.017305  0
H  H32  1  0.94163629  0.42901535  0.26564428  1  0  0.441314  0  0.86194  0  0  0.412178  0  0.922808  0  0  0.423124  0  0.906675  0  0.65902  0  0.297483  0.404577  0  0.933936  0
H  H33  1  0.05836238  0.57098317  0.73435497  1  0  0.441308  0  0.861945  0  0  0.412182  0  0.922798  0  0  0.423129  0  0.906664  0  0.659012  0  0.297484  0.404582  0  0.933926  0
H  H34  1  0.56537083  0.80665043  0.49604594  1  0  0.439875  0  0.854594  0  0  0.410847  0  0.913627  0  0  0.421379  0  0.898278  0  0.64472  0  0.30589  0.403255  0  0.924702  0
H  H35  1  0.43462560  0.19334893  0.50395321  1  0  0.439917  0  0.854535  0  0  0.410894  0  0.913559  0  0  0.421426  0  0.89821  0  0.644798  0  0.305923  0.403302  0  0.924635  0
H  H36  1  0.56233369  0.58931048  0.40186700  1  0  0.43587  0  0.870311  0  0  0.405547  0  0.932955  0  0  0.416542  0  0.917187  0  0.669142  0  0.296621  0.398039  0  0.943711  0
H  H37  1  0.43767076  0.41069139  0.59813185  1  0  0.435907  0  0.870235  0  0  0.405576  0  0.932888  0  0  0.416569  0  0.917124  0  0.669156  0  0.296658  0.398069  0  0.943643  0
H  H38  1  0.74653344  0.28317629  0.39463076  1  0  0.446651  0  0.8216  0  0  0.420771  0  0.886309  0  0  0.430536  0  0.871848  0  0.64913  0  0.316645  0.413806  0  0.896634  0
H  H39  1  0.25346455  0.71682642  0.60537037  1  0  0.446619  0  0.821608  0  0  0.420674  0  0.886433  0  0  0.43045  0  0.871959  0  0.649015  0  0.316623  0.413711  0  0.896751  0
H  H40  1  0.04384068  0.23414020  0.48529030  1  0  0.444214  0  0.849701  0  0  0.415557  0  0.909147  0  0  0.425913  0  0.894023  0  0.647248  0  0.310641  0.408242  0  0.919826  0
H  H41  1  0.95615616  0.76585665  0.51471241  1  0  0.444093  0  0.849873  0  0  0.415462  0  0.909269  0  0  0.425818  0  0.894145  0  0.647275  0  0.310631  0.408153  0  0.919936  0
H  H42  1  0.05360589  0.30944200  0.37293360  1  0  0.43044  0  0.862552  0  0  0.400779  0  0.931691  0  0  0.411754  0  0.915264  0  0.628115  0  0.309345  0.392949  0  0.943375  0
H  H43  1  0.94639585  0.69055066  0.62707088  1  0  0.430488  0  0.862552  0  0  0.400836  0  0.931615  0  0  0.411812  0  0.915186  0  0.62802  0  0.309395  0.393007  0  0.943297  0
H  H44  1  0.70310099  0.72450613  0.54454026  1  0  0.460491  0  0.799635  0  0  0.435799  0  0.858541  0  0  0.445127  0  0.844813  0  0.663101  0  0.321271  0.428918  0  0.8687  0
H  H45  1  0.29689741  0.27549407  0.45546041  1  0  0.460505  0  0.799581  0  0  0.435811  0  0.858513  0  0  0.445139  0  0.844784  0  0.663084  0  0.32129  0.428929  0  0.868673  0
H  H46  1  0.65682732  0.26433744  0.49245567  1  0  0.448358  0  0.841564  0  0  0.419343  0  0.900234  0  0  0.430268  0  0.884398  0  0.629925  0  0.308606  0.41166  0  0.911363  0
H  H47  1  0.34316883  0.73566360  0.50754623  1  0  0.448332  0  0.841612  0  0  0.419328  0  0.900265  0  0  0.430254  0  0.884425  0  0.629975  0  0.308604  0.411643  0  0.911396  0
C  C48  1  0.99680099  0.95716112  0.39510498  1  0  0.811026  0  3.755981  0  0  0.765375  0  4.050076  0  0  0.800647  0  4.037863  0  1.613146  0  0.250413  0.741267  0  4.057334  0
C  C49  1  0.00319846  0.04283908  0.60489493  1  0  0.811097  0  3.756073  0  0  0.765374  0  4.050231  0  0  0.800645  0  4.038013  0  1.613404  0  0.250358  0.741271  0  4.057489  0
C  C50  1  0.99430805  0.01283439  0.28382550  1  0  -0.309718  0  3.593201  0  0  -0.341894  0  3.841872  0  0  -0.346231  0  3.846201  0  -0.074841  0  -0.141728  -0.339039  0  3.839118  0
C  C51  1  0.00569392  0.98716329  0.71617377  1  0  -0.309953  0  3.593315  0  0  -0.342066  0  3.842054  0  0  -0.34639  0  3.846357  0  -0.074848  0  -0.141786  -0.339231  0  3.839324  0
C  C52  1  0.87788200  0.05649143  0.11644586  1  0  0.069545  0  3.805485  0  0  0.069792  0  4.112212  0  0  0.080012  0  4.126555  0  0.320166  0  0.108575  0.062786  0  4.102613  0
C  C53  1  0.12210856  0.94349873  0.88355786  1  0  0.069509  0  3.805649  0  0  0.069743  0  4.11237  0  0  0.079981  0  4.126692  0  0.320502  0  0.108576  0.062738  0  4.102769  0
C  C54  1  0.87168129  0.14879022  0.94117589  1  0  0.080909  0  3.799387  0  0  0.081772  0  4.103041  0  0  0.092193  0  4.117076  0  0.326348  0  0.108582  0.074886  0  4.093214  0
C  C55  1  0.12831207  0.85121500  0.05882807  1  0  0.080964  0  3.799383  0  0  0.081826  0  4.103006  0  0  0.092248  0  4.117039  0  0.326473  0  0.108604  0.074939  0  4.093182  0
C  C56  1  0.97270633  0.28223443  0.75894679  1  0  -0.303375  0  3.607799  0  0  -0.332931  0  3.855693  0  0  -0.337829  0  3.860281  0  -0.141674  0  -0.144917  -0.32985  0  3.8535  0
C  C57  1  0.02729276  0.71776158  0.24105402  1  0  -0.303366  0  3.607765  0  0  -0.332989  0  3.855763  0  0  -0.337918  0  3.860331  0  -0.141255  0  -0.144926  -0.329897  0  3.853563  0
C  C58  1  0.95343823  0.32885183  0.64989502  1  0  0.755022  0  3.813979  0  0  0.712525  0  4.107582  0  0  0.746418  0  4.098397  0  1.572321  0  0.219358  0.689706  0  4.112678  0
C  C59  1  0.04656255  0.67114670  0.35010605  1  0  0.755078  0  3.813831  0  0  0.712625  0  4.107395  0  0  0.746525  0  4.098198  0  1.572322  0  0.219368  0.689803  0  4.112492  0
C  C60  1  0.64337408  0.48490818  0.61483373  1  0  0.701373  0  3.860937  0  0  0.654365  0  4.161624  0  0  0.687057  0  4.15504  0  1.580851  0  0.204001  0.632347  0  4.165176  0
C  C61  1  0.35662931  0.51509370  0.38516521  1  0  0.701338  0  3.860853  0  0  0.654364  0  4.161517  0  0  0.687073  0  4.154931  0  1.580908  0  0.203996  0.632343  0  4.165074  0
C  C62  1  0.56571055  0.48180800  0.71173982  1  0  -0.301161  0  3.585958  0  0  -0.330928  0  3.835246  0  0  -0.335327  0  3.839295  0  -0.172627  0  -0.14701  -0.328277  0  3.832758  0
C  C63  1  0.43429009  0.51819137  0.28825895  1  0  -0.301276  0  3.58614  0  0  -0.330913  0  3.835237  0  0  -0.33538  0  3.839381  0  -0.172415  0  -0.147004  -0.328258  0  3.832751  0
C  C64  1  0.64409775  0.44307458  0.89581873  1  0  0.065418  0  3.818292  0  0  0.062566  0  4.134552  0  0  0.072126  0  4.14929  0  0.35923  0  0.108194  0.056023  0  4.124728  0
C  C65  1  0.35590143  0.55692729  0.10417858  1  0  0.065277  0  3.818519  0  0  0.062428  0  4.134775  0  0  0.071987  0  4.149519  0  0.359271  0  0.108171  0.055885  0  4.12495  0
C  C66  1  0.66194943  0.34527700  0.06931743  1  0  0.071444  0  3.813909  0  0  0.068105  0  4.124833  0  0  0.078172  0  4.139699  0  0.345818  0  0.108666  0.061771  0  4.114471  0
C  C67  1  0.33805662  0.65472152  0.93068117  1  0  0.071376  0  3.813982  0  0  0.068123  0  4.124781  0  0  0.078185  0  4.139664  0  0.345846  0  0.108676  0.061789  0  4.114418  0
C  C68  1  0.57818596  0.20468053  0.25354223  1  0  -0.317707  0  3.637221  0  0  -0.344913  0  3.882642  0  0  -0.349807  0  3.887237  0  -0.181325  0  -0.146236  -0.341602  0  3.879867  0
C  C69  1  0.42181491  0.79532385  0.74645467  1  0  -0.317803  0  3.63728  0  0  -0.345079  0  3.882849  0  0  -0.349953  0  3.887423  0  -0.181786  0  -0.146287  -0.341768  0  3.880067  0
C  C70  1  0.62636840  0.12509139  0.35365992  1  0  0.729264  0  3.865934  0  0  0.680563  0  4.173881  0  0  0.714378  0  4.164774  0  1.574939  0  0.210681  0.657854  0  4.178525  0
C  C71  1  0.37363169  0.87491133  0.64633767  1  0  0.729243  0  3.866046  0  0  0.68054  0  4.174001  0  0  0.714354  0  4.164893  0  1.575005  0  0.210677  0.657832  0  4.17864  0
C  C72  1  0.58746918  0.09490921  0.65976870  1  0  0.730417  0  3.836857  0  0  0.68215  0  4.135863  0  0  0.71582  0  4.127515  0  1.576045  0  0.212042  0.659585  0  4.140115  0
C  C73  1  0.41253701  0.90508848  0.34023355  1  0  0.730467  0  3.836968  0  0  0.68227  0  4.135871  0  0  0.715938  0  4.127528  0  1.575596  0  0.212061  0.659702  0  4.140126  0
C  C74  1  0.51847809  0.16980581  0.71060733  1  0  -0.306875  0  3.610818  0  0  -0.33513  0  3.857074  0  0  -0.339883  0  3.860657  0  -0.167101  0  -0.145291  -0.332189  0  3.854851  0
C  C75  1  0.48153006  0.83019271  0.28939577  1  0  -0.306916  0  3.610882  0  0  -0.335251  0  3.85708  0  0  -0.340006  0  3.860673  0  -0.166776  0  -0.145321  -0.332293  0  3.854833  0
C  C76  1  0.38989010  0.18696354  0.87596849  1  0  0.067999  0  3.81685  0  0  0.054069  0  4.137501  0  0  0.065051  0  4.151094  0  0.31094  0  0.111961  0.047414  0  4.127162  0
C  C77  1  0.61010555  0.81303414  0.12403335  1  0  0.067912  0  3.81674  0  0  0.053961  0  4.13742  0  0  0.064956  0  4.150991  0  0.311164  0  0.111922  0.047306  0  4.127086  0
C  C78  1  0.23598261  0.28677126  0.96132460  1  0  0.11729  0  3.755063  0  0  0.105067  0  4.069363  0  0  0.118984  0  4.079572  0  0.362466  0  0.133837  0.096344  0  4.062614  0
C  C79  1  0.76401514  0.71322643  0.03867572  1  0  0.11729  0  3.755129  0  0  0.105057  0  4.069461  0  0  0.118973  0  4.079674  0  0.362482  0  0.133818  0.096333  0  4.062714  0
C  C80  1  0.22043032  0.23948577  0.15276715  1  0  -0.328214  0  3.610524  0  0  -0.356358  0  3.854236  0  0  -0.361491  0  3.859105  0  -0.201723  0  -0.152827  -0.352922  0  3.851084  0
C  C81  1  0.77956849  0.76051192  0.84723307  1  0  -0.328263  0  3.61069  0  0  -0.356375  0  3.854363  0  0  -0.361455  0  3.859175  0  -0.201262  0  -0.152771  -0.352925  0  3.851189  0
C  C82  1  0.14916215  0.26109912  0.24123001  1  0  0.755294  0  3.852189  0  0  0.709635  0  4.148342  0  0  0.743461  0  4.139231  0  1.619199  0  0.223302  0.686528  0  4.153655  0
C  C83  1  0.85082989  0.73890778  0.75876475  1  0  0.755381  0  3.851886  0  0  0.709741  0  4.148059  0  0  0.743534  0  4.138956  0  1.618573  0  0.22341  0.686627  0  4.153367  0
S  S84  1  0.84435549  0.98123586  0.24250281  1  0  0.083315  0  2.44206  0  0  0.080132  0  2.784516  0  0  0.077533  0  2.783516  0  0.164779  0  0.045243  0.081851  0  2.784944  0
S  S85  1  0.15564162  0.01875931  0.75750317  1  0  0.083389  0  2.442043  0  0  0.080211  0  2.784475  0  0  0.077605  0  2.783463  0  0.164629  0  0.045243  0.081936  0  2.784911  0
S  S86  1  0.74928193  0.08031919  0.03533556  1  0  0.057127  0  2.56532  0  0  0.048549  0  2.915721  0  0  0.049557  0  2.91605  0  0.23837  0  0.074262  0.047515  0  2.915541  0
S  S87  1  0.25071212  0.91968184  0.96466318  1  0  0.057139  0  2.565195  0  0  0.048567  0  2.915603  0  0  0.049567  0  2.915926  0  0.238327  0  0.074258  0.047533  0  2.915425  0
S  S88  1  0.82783504  0.20053719  0.81998614  1  0  0.065435  0  2.518615  0  0  0.056818  0  2.878847  0  0  0.053211  0  2.879746  0  0.186028  0  0.032549  0.058729  0  2.878431  0
S  S89  1  0.17216468  0.79946133  0.18001369  1  0  0.065478  0  2.518565  0  0  0.056873  0  2.878818  0  0  0.053268  0  2.879725  0  0.185943  0  0.032575  0.058781  0  2.878397  0
S  S90  1  0.68011058  0.52642949  0.77190507  1  0  0.090673  0  2.446145  0  0  0.088001  0  2.793248  0  0  0.086315  0  2.790743  0  0.157927  0  0.044308  0.089164  0  2.795132  0
S  S91  1  0.31988489  0.47357573  0.22809335  1  0  0.090774  0  2.446245  0  0  0.088058  0  2.793352  0  0  0.08639  0  2.790879  0  0.157969  0  0.044324  0.089218  0  2.795237  0
S  S92  1  0.77728769  0.41888430  0.97315842  1  0  0.095325  0  2.557041  0  0  0.095975  0  2.890117  0  0  0.098037  0  2.889668  0  0.257287  0  0.097791  0.093571  0  2.891103  0
S  S93  1  0.22271437  0.58111924  0.02683735  1  0  0.095382  0  2.557203  0  0  0.096029  0  2.890195  0  0  0.098093  0  2.889747  0  0.257391  0  0.097817  0.093619  0  2.891195  0
S  S94  1  0.71794610  0.28974753  0.18787303  1  0  0.095582  0  2.447323  0  0  0.086495  0  2.789101  0  0  0.084678  0  2.787109  0  0.176877  0  0.040288  0.086783  0  2.79155  0
S  S95  1  0.28205729  0.71025434  0.81212457  1  0  0.095594  0  2.447321  0  0  0.086503  0  2.789081  0  0  0.084686  0  2.787082  0  0.17684  0  0.040291  0.086795  0  2.791528  0
S  S96  1  0.50757573  0.09162568  0.84226765  1  0  0.066451  0  2.576537  0  0  0.05466  0  2.952685  0  0  0.051364  0  2.950471  0  0.18571  0  0.034594  0.057873  0  2.952721  0
S  S97  1  0.49243187  0.90837619  0.15773493  1  0  0.066512  0  2.576471  0  0  0.05473  0  2.952647  0  0  0.051428  0  2.95043  0  0.185747  0  0.034586  0.057938  0  2.95268  0
S  S98  1  0.34951083  0.16131234  0.99897935  1  0  0.132083  0  2.616559  0  0  0.122194  0  2.984601  0  0  0.123235  0  2.981715  0  0.308877  0  0.124137  0.119156  0  2.987482  0
S  S99  1  0.65048679  0.83868619  0.00102268  1  0  0.132071  0  2.616657  0  0  0.122191  0  2.984696  0  0  0.123223  0  2.981809  0  0.308766  0  0.124154  0.119155  0  2.987574  0
S  S100  1  0.13282105  0.33448037  0.04311217  1  0  0.116112  0  2.514541  0  0  0.100142  0  2.873202  0  0  0.096124  0  2.871017  0  0.261123  0  0.057288  0.102624  0  2.87453  0
S  S101  1  0.86717959  0.66551899  0.95688794  1  0  0.116136  0  2.514554  0  0  0.100182  0  2.873207  0  0  0.096152  0  2.871005  0  0.261098  0  0.057321  0.102662  0  2.87453  0
N  N102  1  0.99510344  0.09982781  0.07266448  1  0  -0.23091  0  3.076064  0  0  -0.214037  0  3.381838  0  0  -0.224121  0  3.400313  0  -0.666167  0  -0.225371  -0.207388  0  3.369114  0
N  N103  1  0.00488868  0.90016569  0.92734055  1  0  -0.230977  0  3.076516  0  0  -0.214089  0  3.382265  0  0  -0.224181  0  3.400735  0  -0.666224  0  -0.225446  -0.207442  0  3.36954  0
N  N104  1  0.99183080  0.15253505  0.97211543  1  0  -0.219086  0  3.051106  0  0  -0.203077  0  3.352251  0  0  -0.213356  0  3.371349  0  -0.696371  0  -0.225959  -0.195728  0  3.338795  0
N  N105  1  0.00816787  0.84746347  0.02789052  1  0  -0.219085  0  3.051449  0  0  -0.203068  0  3.352595  0  0  -0.213346  0  3.371691  0  -0.696573  0  -0.225919  -0.19572  0  3.339141  0
N  N106  1  0.53045762  0.39498621  0.94103847  1  0  -0.210598  0  3.0174  0  0  -0.198268  0  3.317082  0  0  -0.207644  0  3.335274  0  -0.698157  0  -0.227388  -0.191333  0  3.30405  0
N  N107  1  0.46954275  0.60501483  0.05896105  1  0  -0.210495  0  3.017448  0  0  -0.198171  0  3.317152  0  0  -0.207537  0  3.335324  0  -0.698567  0  -0.227378  -0.191236  0  3.304118  0
N  N108  1  0.54050555  0.33866809  0.04114195  1  0  -0.232595  0  3.045961  0  0  -0.210425  0  3.34489  0  0  -0.221303  0  3.363306  0  -0.686351  0  -0.224486  -0.202676  0  3.331471  0
N  N109  1  0.45949889  0.66133379  0.95885690  1  0  -0.232625  0  3.046003  0  0  -0.210501  0  3.344958  0  0  -0.22137  0  3.363347  0  -0.68611  0  -0.224518  -0.202752  0  3.331538  0
N  N110  1  0.32223230  0.28169108  0.81611484  1  0  -0.227243  0  3.145423  0  0  -0.180251  0  3.404465  0  0  -0.190218  0  3.419263  0  -0.731808  0  -0.215829  -0.17306  0  3.393852  0
N  N111  1  0.67776953  0.71830744  0.18388548  1  0  -0.227213  0  3.14537  0  0  -0.180215  0  3.404404  0  0  -0.190185  0  3.419196  0  -0.731859  0  -0.215823  -0.173025  0  3.393794  0
N  N112  1  0.23576115  0.33900297  0.86465309  1  0  -0.220722  0  3.095729  0  0  -0.184659  0  3.363822  0  0  -0.195645  0  3.375884  0  -0.730828  0  -0.210262  -0.177353  0  3.355155  0
N  N113  1  0.76423752  0.66099555  0.13534683  1  0  -0.220704  0  3.095856  0  0  -0.184636  0  3.36394  0  0  -0.195622  0  3.376006  0  -0.73086  0  -0.210248  -0.177329  0  3.355271  0
O  O114  1  0.89034414  0.90753061  0.44541354  1  0  -0.756948  0  2.043989  0  0  -0.702836  0  2.286671  0  0  -0.728707  0  2.273194  0  -1.212991  0  -0.385099  -0.684185  0  2.295734  0
O  O115  1  0.10965911  0.09247210  0.55458979  1  0  -0.757089  0  2.043894  0  0  -0.702894  0  2.286581  0  0  -0.728774  0  2.27311  0  -1.213055  0  -0.385104  -0.68424  0  2.295645  0
O  O116  1  0.10401059  0.96191395  0.43230133  1  0  -0.702785  0  2.048919  0  0  -0.665954  0  2.306298  0  0  -0.691965  0  2.295465  0  -1.191633  0  -0.386979  -0.646632  0  2.312725  0
O  O117  1  0.89599610  0.03808709  0.56769897  1  0  -0.702713  0  2.049095  0  0  -0.665871  0  2.306487  0  0  -0.691877  0  2.295658  0  -1.191793  0  -0.386875  -0.646549  0  2.31291  0
O  O118  1  0.86505387  0.29102427  0.61981087  1  0  -0.665728  0  1.958423  0  0  -0.617758  0  2.185969  0  0  -0.642132  0  2.178699  0  -1.182191  0  -0.360349  -0.600776  0  2.190465  0
O  O119  1  0.13494663  0.70897593  0.38018828  1  0  -0.665736  0  1.95841  0  0  -0.61776  0  2.185898  0  0  -0.642136  0  2.17862  0  -1.182194  0  -0.36034  -0.600778  0  2.190396  0
O  O120  1  0.02205414  0.40800563  0.58956455  1  0  -0.783665  0  2.096745  0  0  -0.742462  0  2.35345  0  0  -0.768978  0  2.342882  0  -1.207825  0  -0.418498  -0.723023  0  2.359196  0
O  O121  1  0.97794770  0.59199290  0.41043710  1  0  -0.783701  0  2.096679  0  0  -0.7425  0  2.353371  0  0  -0.769021  0  2.342799  0  -1.207986  0  -0.418506  -0.72306  0  2.359119  0
O  O122  1  0.74643027  0.54144146  0.57764453  1  0  -0.675501  0  2.001924  0  0  -0.629806  0  2.237646  0  0  -0.653646  0  2.229297  0  -1.181828  0  -0.341152  -0.612904  0  2.242414  0
O  O123  1  0.25357367  0.45855706  0.42235559  1  0  -0.675493  0  2.001875  0  0  -0.629795  0  2.237542  0  0  -0.653648  0  2.229215  0  -1.181865  0  -0.341139  -0.612897  0  2.242319  0
O  O124  1  0.60551935  0.42726475  0.57345666  1  0  -0.683931  0  2.019014  0  0  -0.623373  0  2.241688  0  0  -0.650843  0  2.23515  0  -1.184338  0  -0.343865  -0.604315  0  2.245549  0
O  O125  1  0.39448312  0.57273628  0.42654334  1  0  -0.683821  0  2.018903  0  0  -0.623399  0  2.241685  0  0  -0.650864  0  2.235138  0  -1.184373  0  -0.34389  -0.604339  0  2.245549  0
O  O126  1  0.73771266  0.13414244  0.38472357  1  0  -0.659568  0  1.990286  0  0  -0.610427  0  2.222681  0  0  -0.634296  0  2.213485  0  -1.179293  0  -0.327275  -0.593564  0  2.22858  0
O  O127  1  0.26228652  0.86585944  0.61527240  1  0  -0.659562  0  1.990247  0  0  -0.610417  0  2.222671  0  0  -0.634294  0  2.213486  0  -1.179152  0  -0.32728  -0.593549  0  2.228563  0
O  O128  1  0.54977727  0.04736251  0.40782232  1  0  -0.798198  0  2.122406  0  0  -0.755352  0  2.385303  0  0  -0.783353  0  2.377792  0  -1.210123  0  -0.419871  -0.734226  0  2.389411  0
O  O129  1  0.45022176  0.95264020  0.59217537  1  0  -0.798119  0  2.122323  0  0  -0.755317  0  2.385324  0  0  -0.783315  0  2.37781  0  -1.210253  0  -0.419911  -0.734191  0  2.389429  0
O  O130  1  0.59107925  0.13870187  0.56450944  1  0  -0.726118  0  2.07276  0  0  -0.660531  0  2.291082  0  0  -0.688094  0  2.28166  0  -1.185684  0  -0.353744  -0.640977  0  2.297156  0
O  O131  1  0.40892400  0.86130084  0.43549256  1  0  -0.726138  0  2.072947  0  0  -0.660555  0  2.29121  0  0  -0.688117  0  2.281787  0  -1.185772  0  -0.35374  -0.641001  0  2.297289  0
O  O132  1  0.63789531  0.99495937  0.70660586  1  0  -0.639361  0  1.981071  0  0  -0.59577  0  2.219761  0  0  -0.620694  0  2.212807  0  -1.173169  0  -0.335306  -0.578093  0  2.223427  0
O  O133  1  0.36210927  0.00504166  0.29339195  1  0  -0.639425  0  1.980982  0  0  -0.595828  0  2.219618  0  0  -0.620763  0  2.21267  0  -1.173116  0  -0.335282  -0.578153  0  2.223289  0
O  O134  1  0.05080245  0.34134883  0.22732339  1  0  -0.634676  0  1.978566  0  0  -0.578751  0  2.20155  0  0  -0.603864  0  2.191228  0  -1.192965  0  -0.308088  -0.561147  0  2.208305  0
O  O135  1  0.94919590  0.65865807  0.77266612  1  0  -0.634675  0  1.978298  0  0  -0.578811  0  2.201318  0  0  -0.603912  0  2.191007  0  -1.192828  0  -0.308176  -0.561202  0  2.208079  0
O  O136  1  0.19470743  0.19644492  0.32527967  1  0  -0.761946  0  2.06916  0  0  -0.714369  0  2.328923  0  0  -0.741661  0  2.317097  0  -1.212758  0  -0.423671  -0.694346  0  2.33626  0
O  O137  1  0.80527919  0.80356281  0.67472128  1  0  -0.76211  0  2.069402  0  0  -0.71444  0  2.328955  0  0  -0.7418  0  2.317325  0  -1.212633  0  -0.423751  -0.694465  0  2.336401  0
O  O138  1  0.66524960  0.59705382  0.37998739  1  0  -0.928742  0  1.938361  0  0  -0.888212  0  2.145177  0  0  -0.908173  0  2.114157  0  -1.328173  0  -0.676002  -0.873489  0  2.165953  0
O  O139  1  0.33475590  0.40294806  0.62001070  1  0  -0.928772  0  1.938295  0  0  -0.888249  0  2.145098  0  0  -0.908204  0  2.114084  0  -1.328202  0  -0.676038  -0.873526  0  2.165876  0
O  O140  1  0.87670310  0.48216548  0.28838581  1  0  -0.92915  0  1.892627  0  0  -0.880974  0  2.091765  0  0  -0.901598  0  2.059589  0  -1.307172  0  -0.659724  -0.865822  0  2.11322  0
O  O141  1  0.12329662  0.51783304  0.71161469  1  0  -0.929155  0  1.892581  0  0  -0.881005  0  2.091693  0  0  -0.901627  0  2.05951  0  -1.307166  0  -0.65973  -0.865853  0  2.113147  0
O  O142  1  0.02164121  0.31237139  0.43737999  1  0  -0.899347  0  1.901526  0  0  -0.857979  0  2.095063  0  0  -0.876063  0  2.061667  0  -1.260054  0  -0.640564  -0.844637  0  2.118443  0
O  O143  1  0.97835063  0.68762378  0.56262311  1  0  -0.899295  0  1.901729  0  0  -0.857966  0  2.095227  0  0  -0.876043  0  2.06183  0  -1.259965  0  -0.640607  -0.844623  0  2.118606  0
O  O144  1  0.70156884  0.32361091  0.43547569  1  0  -0.894065  0  1.849575  0  0  -0.858486  0  2.043193  0  0  -0.876628  0  2.010594  0  -1.254249  0  -0.634774  -0.84503  0  2.065759  0
O  O145  1  0.29842718  0.67639097  0.56452525  1  0  -0.893988  0  1.849571  0  0  -0.858337  0  2.043314  0  0  -0.876494  0  2.010687  0  -1.254194  0  -0.634744  -0.844901  0  2.065922  0
O  O146  1  0.64324542  0.79486506  0.53796518  1  0  -0.886842  0  1.84036  0  0  -0.845359  0  2.028575  0  0  -0.863609  0  1.997582  0  -1.287207  0  -0.622391  -0.831985  0  2.051224  0
O  O147  1  0.35675390  0.20513597  0.46203242  1  0  -0.886901  0  1.840291  0  0  -0.845406  0  2.028527  0  0  -0.863664  0  1.997528  0  -1.287243  0  -0.622445  -0.832036  0  2.051176  0
