# generated using pymatgen
data_CuH3C4IN2
_symmetry_space_group_name_H-M   'P 1'
_cell_length_a   9.99475007
_cell_length_b   9.99463617
_cell_length_c   11.94964297
_cell_angle_alpha   90.00009099
_cell_angle_beta   90.00017068
_cell_angle_gamma   89.98978311
_symmetry_Int_Tables_number   1
_chemical_formula_structural   CuH3C4IN2
_chemical_formula_sum   'Cu8 H24 C32 I8 N16'
_cell_volume   1193.69630836
_cell_formula_units_Z   8
loop_
 _symmetry_equiv_pos_site_id
 _symmetry_equiv_pos_as_xyz
  1  'x, y, z'
loop_
 _atom_site_type_symbol
 _atom_site_label
 _atom_site_symmetry_multiplicity
 _atom_site_fract_x
 _atom_site_fract_y
 _atom_site_fract_z
 _atom_site_occupancy
 _atom_site_pbe_bader_spin_density
 _atom_site_pbe_cm5_charge
 _atom_site_pbe_ddec_charge
 _atom_site_pbe_ddec_spin_density
 _atom_site_pbe_ddec_sum_bond_order
 _atom_site_pbe_magmom
Cu  Cu0  1  0.59919226  0.02093966  0.87445869  1  0  0.386782  0.220128  0  2.682464  0
Cu  Cu1  1  0.40081184  0.97906179  0.37445921  1  0  0.386764  0.220126  0  2.68246  0
Cu  Cu2  1  0.47904775  0.09933218  0.62450719  1  0  0.386532  0.220072  0  2.682516  0
Cu  Cu3  1  0.52095446  0.90067180  0.12451041  1  0  0.386565  0.220091  0  2.682524  0
Cu  Cu4  1  0.90067098  0.52094799  0.87549290  1  0  0.38659  0.220087  0  2.682635  0
Cu  Cu5  1  0.09933312  0.47905146  0.37549200  1  0  0.386561  0.220067  0  2.682593  0
Cu  Cu6  1  0.02093782  0.59918765  0.12554058  1  0  0.386762  0.220106  0  2.68243  0
Cu  Cu7  1  0.97906540  0.40080933  0.62554068  1  0  0.386801  0.220164  0  2.682383  0
H  H8  1  0.87224919  0.92265596  0.83433961  1  0  0.101965  0.089725  0  1.043299  0
H  H9  1  0.12775177  0.07734342  0.33434074  1  0  0.101938  0.089686  0  1.043322  0
H  H10  1  0.57700177  0.37243690  0.58430797  1  0  0.102045  0.090177  0  1.043029  0
H  H11  1  0.42299830  0.62757201  0.08431142  1  0  0.10206  0.090179  0  1.042978  0
H  H12  1  0.62757340  0.42298782  0.91569370  1  0  0.102087  0.09019  0  1.043092  0
H  H13  1  0.37242984  0.57701271  0.41569612  1  0  0.102067  0.090164  0  1.043144  0
H  H14  1  0.92265996  0.87225280  0.16565690  1  0  0.101962  0.089653  0  1.043425  0
H  H15  1  0.07734140  0.12774325  0.66565773  1  0  0.102009  0.089694  0  1.043469  0
H  H16  1  0.99600418  0.82932572  0.67031806  1  0  0.10174  0.120803  0  1.012418  0
H  H17  1  0.00399719  0.17067335  0.17031902  1  0  0.101745  0.120808  0  1.012396  0
H  H18  1  0.67053457  0.49603771  0.42029657  1  0  0.101551  0.120722  0  1.012451  0
H  H19  1  0.32945969  0.50396983  0.92030021  1  0  0.101584  0.120747  0  1.01248  0
H  H20  1  0.50397237  0.32945488  0.07970365  1  0  0.101623  0.120771  0  1.012487  0
H  H21  1  0.49602769  0.67054602  0.57970877  1  0  0.101609  0.12077  0  1.012481  0
H  H22  1  0.82932422  0.99601066  0.32967515  1  0  0.101721  0.120755  0  1.012403  0
H  H23  1  0.17067372  0.00399071  0.82967772  1  0  0.101695  0.1207  0  1.012437  0
H  H24  1  0.67238573  0.98863482  0.46925569  1  0  0.106507  0.083934  0  1.061359  0
H  H25  1  0.32761070  0.01135981  0.96925615  1  0  0.106515  0.083928  0  1.06138  0
H  H26  1  0.51157261  0.17231405  0.21926588  1  0  0.106371  0.084058  0  1.061109  0
H  H27  1  0.48842794  0.82768811  0.71927035  1  0  0.106333  0.084024  0  1.061185  0
H  H28  1  0.82768450  0.48843250  0.28073527  1  0  0.106391  0.084074  0  1.06107  0
H  H29  1  0.17231326  0.51156678  0.78073518  1  0  0.106388  0.084086  0  1.06114  0
H  H30  1  0.98862905  0.67238906  0.53073972  1  0  0.106539  0.084006  0  1.061403  0
H  H31  1  0.01136883  0.32761074  0.03074174  1  0  0.106535  0.083996  0  1.061321  0
C  C32  1  0.83451613  0.93492882  0.74924916  1  0  0.041977  0.065514  0  3.919719  0
C  C33  1  0.16548352  0.06506739  0.24925121  1  0  0.041972  0.065505  0  3.919712  0
C  C34  1  0.56485061  0.33464764  0.49923007  1  0  0.041846  0.064564  0  3.919836  0
C  C35  1  0.43515093  0.66535805  0.99923001  1  0  0.041869  0.064657  0  3.919754  0
C  C36  1  0.66535954  0.43514111  0.00077018  1  0  0.041821  0.064602  0  3.919858  0
C  C37  1  0.33464124  0.56485863  0.50077308  1  0  0.041863  0.064635  0  3.919931  0
C  C38  1  0.93493291  0.83452055  0.25074562  1  0  0.04194  0.06559  0  3.919669  0
C  C39  1  0.06506875  0.16547867  0.75074396  1  0  0.041905  0.065459  0  3.919722  0
C  C40  1  0.90222718  0.88264166  0.65755693  1  0  -0.069632  -0.116082  0  3.922083  0
C  C41  1  0.09777215  0.11735538  0.15755805  1  0  -0.069614  -0.115992  0  3.922027  0
C  C42  1  0.61722091  0.40227216  0.40753037  1  0  -0.069623  -0.115861  0  3.922903  0
C  C43  1  0.38277830  0.59773236  0.90753511  1  0  -0.069653  -0.115925  0  3.922904  0
C  C44  1  0.59773386  0.38277314  0.09247071  1  0  -0.069717  -0.116006  0  3.923047  0
C  C45  1  0.40226623  0.61722878  0.59247385  1  0  -0.0697  -0.116026  0  3.923016  0
C  C46  1  0.88264159  0.90223061  0.34243537  1  0  -0.069641  -0.116122  0  3.921959  0
C  C47  1  0.11735739  0.09776577  0.84243710  1  0  -0.069582  -0.11594  0  3.921756  0
C  C48  1  0.72563220  0.97321387  0.54782546  1  0  0.047624  0.026342  0  3.877069  0
C  C49  1  0.27436374  0.02678196  0.04782522  1  0  0.047565  0.026293  0  3.877088  0
C  C50  1  0.52679599  0.22561636  0.29783732  1  0  0.047739  0.026636  0  3.876255  0
C  C51  1  0.47320384  0.77438295  0.79783917  1  0  0.047816  0.026729  0  3.876166  0
C  C52  1  0.77438274  0.47320501  0.20216548  1  0  0.047721  0.02659  0  3.876133  0
C  C53  1  0.22561775  0.52679412  0.70216806  1  0  0.047705  0.026474  0  3.876269  0
C  C54  1  0.97321007  0.72563592  0.45217254  1  0  0.047553  0.026198  0  3.87703  0
C  C55  1  0.02678930  0.27436367  0.95217092  1  0  0.047511  0.026119  0  3.877141  0
C  C56  1  0.84778050  0.90399887  0.55128174  1  0  0.004617  0.057437  0  3.985961  0
C  C57  1  0.15221745  0.09599898  0.05128212  1  0  0.004666  0.057401  0  3.986067  0
C  C58  1  0.59593040  0.34781174  0.30128529  1  0  0.004746  0.057273  0  3.985501  0
C  C59  1  0.40406643  0.65219157  0.80128932  1  0  0.00476  0.057254  0  3.985417  0
C  C60  1  0.65218874  0.40406781  0.19871581  1  0  0.004759  0.057427  0  3.98532  0
C  C61  1  0.34780873  0.59593432  0.69871878  1  0  0.004739  0.05755  0  3.985138  0
C  C62  1  0.90399584  0.84778761  0.44870883  1  0  0.00474  0.057563  0  3.985862  0
C  C63  1  0.09600352  0.15221598  0.94871141  1  0  0.004694  0.05754  0  3.985864  0
I  I64  1  0.72249751  0.05516527  0.06488238  1  0  -0.222713  -0.396291  0  1.919831  0
I  I65  1  0.27750349  0.94483560  0.56488146  1  0  -0.222717  -0.396303  0  1.919782  0
I  I66  1  0.44488115  0.22275761  0.81487275  1  0  -0.222589  -0.396184  0  1.919678  0
I  I67  1  0.55511773  0.77723873  0.31487422  1  0  -0.222598  -0.396209  0  1.919705  0
I  I68  1  0.77724780  0.55511414  0.68513144  1  0  -0.2226  -0.396195  0  1.919731  0
I  I69  1  0.22275963  0.44488395  0.18512828  1  0  -0.222576  -0.396154  0  1.919662  0
I  I70  1  0.05516123  0.72249650  0.93511719  1  0  -0.222708  -0.396289  0  1.919806  0
I  I71  1  0.94483908  0.27750306  0.43511562  1  0  -0.222708  -0.396297  0  1.919802  0
N  N72  1  0.71706473  0.99915773  0.74114756  1  0  -0.250896  -0.07688  0  3.553991  0
N  N73  1  0.28293589  0.00084047  0.24114898  1  0  -0.250895  -0.076915  0  3.554082  0
N  N74  1  0.50071539  0.21716833  0.49115268  1  0  -0.251097  -0.076759  0  3.553753  0
N  N75  1  0.49928512  0.78283634  0.99115628  1  0  -0.251125  -0.076815  0  3.553694  0
N  N76  1  0.78283851  0.49927806  0.00884928  1  0  -0.251202  -0.076931  0  3.553677  0
N  N77  1  0.21716529  0.50072171  0.50885012  1  0  -0.251186  -0.076925  0  3.553818  0
N  N78  1  0.99916211  0.71706583  0.25884963  1  0  -0.250932  -0.076911  0  3.553988  0
N  N79  1  0.00084057  0.28293240  0.75884964  1  0  -0.250939  -0.076882  0  3.553879  0
N  N80  1  0.66096674  0.01572914  0.63913374  1  0  -0.247793  -0.074706  0  3.578285  0
N  N81  1  0.33903253  0.98426987  0.13913495  1  0  -0.247784  -0.074662  0  3.578226  0
N  N82  1  0.48431561  0.16096755  0.38915962  1  0  -0.247725  -0.074641  0  3.578524  0
N  N83  1  0.51568454  0.83903493  0.88916166  1  0  -0.247779  -0.074721  0  3.578367  0
N  N84  1  0.83903373  0.51568194  0.11084404  1  0  -0.247632  -0.074496  0  3.578532  0
N  N85  1  0.16096743  0.48431801  0.61084388  1  0  -0.247652  -0.074499  0  3.578601  0
N  N86  1  0.01572800  0.66096647  0.36086229  1  0  -0.247758  -0.074653  0  3.578146  0
N  N87  1  0.98427305  0.33903195  0.86086232  1  0  -0.247723  -0.074571  0  3.578205  0
