# generated using pymatgen
data_ZnH12C6S2(NO)4
_symmetry_space_group_name_H-M   'P 1'
_cell_length_a   8.21745451
_cell_length_b   11.08836785
_cell_length_c   13.53500000
_cell_angle_alpha   90.00000000
_cell_angle_beta   90.00000000
_cell_angle_gamma   90.00000000
_symmetry_Int_Tables_number   1
_chemical_formula_structural   ZnH12C6S2(NO)4
_chemical_formula_sum   'Zn4 H48 C24 S8 N16 O16'
_cell_volume   1233.28427305
_cell_formula_units_Z   4
loop_
 _symmetry_equiv_pos_site_id
 _symmetry_equiv_pos_as_xyz
  1  'x, y, z'
loop_
 _atom_site_type_symbol
 _atom_site_label
 _atom_site_symmetry_multiplicity
 _atom_site_fract_x
 _atom_site_fract_y
 _atom_site_fract_z
 _atom_site_occupancy
 _atom_site_hle17_bader_spin_density
 _atom_site_hle17_ddec_charge
 _atom_site_hle17_ddec_spin_density
 _atom_site_hle17_ddec_sum_bond_order
 _atom_site_hle17_magmom
 _atom_site_hse06_10hf_bader_spin_density
 _atom_site_hse06_10hf_ddec_charge
 _atom_site_hse06_10hf_ddec_spin_density
 _atom_site_hse06_10hf_ddec_sum_bond_order
 _atom_site_hse06_10hf_magmom
 _atom_site_hse06_bader_spin_density
 _atom_site_hse06_ddec_charge
 _atom_site_hse06_ddec_spin_density
 _atom_site_hse06_ddec_sum_bond_order
 _atom_site_hse06_magmom
 _atom_site_pbe_bader_charge
 _atom_site_pbe_bader_spin_density
 _atom_site_pbe_cm5_charge
 _atom_site_pbe_ddec_charge
 _atom_site_pbe_ddec_spin_density
 _atom_site_pbe_ddec_sum_bond_order
 _atom_site_pbe_magmom
Zn  Zn0  1  0.24173788  0.08156566  0.16516439  1  0  0.809692  0  2.110756  0  0  0.650729  0  2.585318  0  0  0.693874  0  2.536614  0  1.057685  0  0.522367  0.620845  0  2.618661  0
Zn  Zn1  1  0.25826246  0.91843544  0.66516291  1  0  0.809732  0  2.110691  0  0  0.65077  0  2.58527  0  0  0.693913  0  2.536561  0  1.0577  0  0.522372  0.620881  0  2.618606  0
Zn  Zn2  1  0.74173699  0.41843489  0.83483413  1  0  0.809713  0  2.110804  0  0  0.650738  0  2.58538  0  0  0.693878  0  2.536675  0  1.05768  0  0.522379  0.620849  0  2.618716  0
Zn  Zn3  1  0.75826401  0.58156620  0.33483487  1  0  0.809708  0  2.110758  0  0  0.650761  0  2.585315  0  0  0.693903  0  2.536609  0  1.057673  0  0.522389  0.620868  0  2.618656  0
H  H4  1  0.78520423  0.19551660  0.29581899  1  0  0.343806  0  0.903922  0  0  0.324479  0  0.967037  0  0  0.332659  0  0.960521  0  0.508684  0  0.30289  0.31871  0  0.971686  0
H  H5  1  0.71479556  0.80448179  0.79582047  1  0  0.343823  0  0.903985  0  0  0.324493  0  0.967092  0  0  0.332672  0  0.960575  0  0.508655  0  0.302902  0.318726  0  0.971738  0
H  H6  1  0.28520267  0.30448575  0.70417953  1  0  0.343806  0  0.9039  0  0  0.324464  0  0.967033  0  0  0.332642  0  0.960519  0  0.508331  0  0.302893  0.3187  0  0.971675  0
H  H7  1  0.21479888  0.69551625  0.20418027  1  0  0.343808  0  0.90399  0  0  0.324478  0  0.967101  0  0  0.332658  0  0.960583  0  0.508666  0  0.302894  0.318708  0  0.971749  0
H  H8  1  0.99656651  0.18313335  0.28403177  1  0  0.337415  0  0.91288  0  0  0.315356  0  0.985244  0  0  0.322973  0  0.97871  0  0.516604  0  0.295905  0.309956  0  0.989961  0
H  H9  1  0.50343814  0.81686504  0.78403325  1  0  0.337422  0  0.91288  0  0  0.315362  0  0.985246  0  0  0.322979  0  0.978712  0  0.516646  0  0.295908  0.309962  0  0.989962  0
H  H10  1  0.49656131  0.31686719  0.71596749  1  0  0.337503  0  0.912779  0  0  0.315427  0  0.98518  0  0  0.323045  0  0.978642  0  0.516678  0  0.295935  0.310028  0  0.989891  0
H  H11  1  0.00343537  0.68313300  0.21596897  1  0  0.337449  0  0.91282  0  0  0.315386  0  0.985197  0  0  0.323004  0  0.978661  0  0.516636  0  0.295916  0.309985  0  0.989915  0
H  H12  1  0.62142358  0.01517987  0.26194163  1  0  0.346834  0  0.902977  0  0  0.326038  0  0.966817  0  0  0.335075  0  0.959069  0  0.528349  0  0.300729  0.319654  0  0.972342  0
H  H13  1  0.87857864  0.98481852  0.76194385  1  0  0.346764  0  0.903014  0  0  0.326005  0  0.966841  0  0  0.335041  0  0.959096  0  0.528324  0  0.300723  0.319622  0  0.972365  0
H  H14  1  0.12141960  0.48482338  0.73805689  1  0  0.346804  0  0.903009  0  0  0.326037  0  0.966845  0  0  0.335074  0  0.959097  0  0.52832  0  0.300714  0.319653  0  0.97237  0
H  H15  1  0.37857952  0.51517862  0.23805837  1  0  0.346775  0  0.902986  0  0  0.326025  0  0.966806  0  0  0.33506  0  0.959064  0  0.528332  0  0.300717  0.319642  0  0.97233  0
H  H16  1  0.72860276  0.88834625  0.21524344  1  0  0.345964  0  0.903001  0  0  0.325599  0  0.968229  0  0  0.333119  0  0.962489  0  0.523416  0  0.298346  0.320291  0  0.972358  0
H  H17  1  0.77140068  0.11165485  0.71524566  1  0  0.345961  0  0.903003  0  0  0.325633  0  0.968213  0  0  0.333152  0  0.962478  0  0.523416  0  0.298357  0.320329  0  0.972338  0
H  H18  1  0.22860242  0.61165630  0.78475656  1  0  0.345986  0  0.903173  0  0  0.325669  0  0.96836  0  0  0.333186  0  0.962623  0  0.523376  0  0.298346  0.320362  0  0.972488  0
H  H19  1  0.27139791  0.38834660  0.28475803  1  0  0.345918  0  0.903028  0  0  0.325598  0  0.96823  0  0  0.333117  0  0.962492  0  0.523405  0  0.298342  0.320291  0  0.972358  0
H  H20  1  0.24583282  0.09880625  0.84755818  1  0  0.332976  0  0.900762  0  0  0.312329  0  0.971129  0  0  0.320044  0  0.964999  0  0.454678  0  0.296226  0.306861  0  0.975549  0
H  H21  1  0.25416630  0.90119034  0.34755818  1  0  0.332973  0  0.900784  0  0  0.312324  0  0.971162  0  0  0.320039  0  0.965026  0  0.454684  0  0.296236  0.306855  0  0.975585  0
H  H22  1  0.74583315  0.40119160  0.15244256  1  0  0.332967  0  0.900764  0  0  0.312322  0  0.97114  0  0  0.320038  0  0.965004  0  0.454686  0  0.296235  0.306854  0  0.97556  0
H  H23  1  0.75416907  0.59880860  0.65244108  1  0  0.333006  0  0.900781  0  0  0.312355  0  0.971156  0  0  0.320071  0  0.965024  0  0.454697  0  0.296262  0.306886  0  0.975577  0
H  H24  1  0.30671907  0.05842248  0.96679128  1  0  0.342179  0  0.924557  0  0  0.320388  0  0.991553  0  0  0.328879  0  0.984212  0  0.521569  0  0.298301  0.314413  0  0.996736  0
H  H25  1  0.19327883  0.94157681  0.46679054  1  0  0.342202  0  0.924555  0  0  0.320416  0  0.991545  0  0  0.328907  0  0.984205  0  0.521575  0  0.298311  0.314441  0  0.99673  0
H  H26  1  0.80672062  0.44157806  0.03320872  1  0  0.342202  0  0.924535  0  0  0.320414  0  0.991531  0  0  0.328906  0  0.98419  0  0.521564  0  0.298311  0.314437  0  0.996718  0
H  H27  1  0.69327917  0.55842213  0.53320798  1  0  0.342193  0  0.924554  0  0  0.320403  0  0.991549  0  0  0.328896  0  0.984207  0  0.521556  0  0.29829  0.314426  0  0.996736  0
H  H28  1  0.08909328  0.26781850  0.82125379  1  0  0.345793  0  0.882113  0  0  0.326737  0  0.945702  0  0  0.334201  0  0.939764  0  0.477791  0  0.31128  0.321442  0  0.950029  0
H  H29  1  0.41090583  0.73217899  0.32125379  1  0  0.345789  0  0.882143  0  0  0.326729  0  0.945732  0  0  0.334195  0  0.939793  0  0.477779  0  0.311279  0.321429  0  0.950064  0
H  H30  1  0.58909362  0.23218025  0.17874621  1  0  0.345796  0  0.882138  0  0  0.326737  0  0.945727  0  0  0.334201  0  0.939789  0  0.477792  0  0.31128  0.321436  0  0.950059  0
H  H31  1  0.91090739  0.76781995  0.67874547  1  0  0.345776  0  0.882083  0  0  0.326714  0  0.945683  0  0  0.334179  0  0.939744  0  0.477808  0  0.31127  0.321415  0  0.950014  0
H  H32  1  0.04955549  0.36701524  0.91856003  1  0  0.343267  0  0.895062  0  0  0.322182  0  0.961619  0  0  0.32984  0  0.955204  0  0.528369  0  0.303701  0.316774  0  0.966184  0
H  H33  1  0.45044363  0.63298315  0.41856003  1  0  0.343239  0  0.895091  0  0  0.322152  0  0.961646  0  0  0.32981  0  0.955231  0  0.528349  0  0.303669  0.316745  0  0.966211  0
H  H34  1  0.54955583  0.13298440  0.08143997  1  0  0.343252  0  0.895099  0  0  0.322164  0  0.961652  0  0  0.329823  0  0.955236  0  0.528361  0  0.303682  0.316758  0  0.966214  0
H  H35  1  0.95044396  0.86701669  0.58143923  1  0  0.343204  0  0.895164  0  0  0.32214  0  0.961684  0  0  0.329799  0  0.955269  0  0.528337  0  0.30368  0.316734  0  0.966247  0
H  H36  1  0.57602266  0.11936383  0.42784632  1  0  0.099013  0  0.92632  0  0  0.116011  0  0.981926  0  0  0.118475  0  0.980516  0  0.050619  0  0.097977  0.114237  0  0.983028  0
H  H37  1  0.92397469  0.88063457  0.92784485  1  0  0.098979  0  0.926308  0  0  0.115978  0  0.981918  0  0  0.118441  0  0.98051  0  0.050396  0  0.097976  0.114205  0  0.983022  0
H  H38  1  0.07602476  0.38063312  0.57215294  1  0  0.099017  0  0.926298  0  0  0.116021  0  0.981905  0  0  0.118475  0  0.980505  0  0.050414  0  0.098002  0.114248  0  0.983007  0
H  H39  1  0.42397436  0.61936437  0.07215441  1  0  0.099076  0  0.926259  0  0  0.116086  0  0.98186  0  0  0.118544  0  0.980456  0  0.05058  0  0.098009  0.114312  0  0.982962  0
H  H40  1  0.39111625  0.11757276  0.49314001  1  0  0.104358  0  0.946643  0  0  0.118064  0  1.012344  0  0  0.119597  0  1.012837  0  0.084854  0  0.097711  0.1169  0  1.012161  0
H  H41  1  0.10888408  0.88242924  0.99313705  1  0  0.104329  0  0.946691  0  0  0.118043  0  1.012384  0  0  0.119582  0  1.012871  0  0.084876  0  0.097711  0.11688  0  1.0122  0
H  H42  1  0.89111780  0.38242959  0.50686295  1  0  0.104358  0  0.946678  0  0  0.118084  0  1.012353  0  0  0.119615  0  1.012847  0  0.084864  0  0.097716  0.11692  0  1.012172  0
H  H43  1  0.60887712  0.61757060  0.00686073  1  0  0.104346  0  0.946689  0  0  0.118074  0  1.012376  0  0  0.119605  0  1.012871  0  0.084886  0  0.097714  0.116908  0  1.012194  0
H  H44  1  0.37056001  0.34268975  0.48460436  1  0  0.113537  0  0.914377  0  0  0.130395  0  0.969686  0  0  0.13309  0  0.968217  0  0.054691  0  0.103604  0.128454  0  0.970855  0
H  H45  1  0.12944154  0.65731315  0.98460658  1  0  0.11357  0  0.914345  0  0  0.1304  0  0.969684  0  0  0.133095  0  0.968215  0  0.054692  0  0.103596  0.128463  0  0.970852  0
H  H46  1  0.87055426  0.15731350  0.51539195  1  0  0.113515  0  0.914385  0  0  0.130407  0  0.969698  0  0  0.133108  0  0.968227  0  0.054632  0  0.103591  0.128464  0  0.970865  0
H  H47  1  0.62944431  0.84268669  0.01539638  1  0  0.113554  0  0.914371  0  0  0.130407  0  0.969683  0  0  0.133103  0  0.968212  0  0.05467  0  0.10359  0.128466  0  0.970853  0
H  H48  1  0.55295225  0.29683359  0.54218249  1  0  0.122293  0  0.952194  0  0  0.134937  0  1.014736  0  0  0.137879  0  1.013716  0  0.097075  0  0.101325  0.132854  0  1.015553  0
H  H49  1  0.94704996  0.70316841  0.04218323  1  0  0.122299  0  0.952172  0  0  0.134953  0  1.014694  0  0  0.137896  0  1.013675  0  0.097098  0  0.101318  0.132866  0  1.015519  0
H  H50  1  0.05294705  0.20316786  0.45781603  1  0  0.122284  0  0.952174  0  0  0.134962  0  1.014715  0  0  0.137909  0  1.013698  0  0.097075  0  0.101345  0.132875  0  1.015532  0
H  H51  1  0.44704720  0.79683323  0.95781751  1  0  0.122323  0  0.952157  0  0  0.134961  0  1.014711  0  0  0.137905  0  1.013693  0  0.097072  0  0.101336  0.132877  0  1.015532  0
C  C52  1  0.87267413  0.03093332  0.24559660  1  0  0.607878  0  3.831481  0  0  0.564937  0  4.122348  0  0  0.59288  0  4.126946  0  1.06231  0  0.253942  0.546103  0  4.1185  0
C  C53  1  0.62733174  0.96907319  0.74559882  1  0  0.60774  0  3.831535  0  0  0.564976  0  4.122211  0  0  0.59292  0  4.126802  0  1.062077  0  0.253927  0.546142  0  4.118364  0
C  C54  1  0.37267137  0.46906543  0.75440414  1  0  0.60788  0  3.831483  0  0  0.564971  0  4.122349  0  0  0.592913  0  4.126942  0  1.061908  0  0.25385  0.546134  0  4.118502  0
C  C55  1  0.12733018  0.53093296  0.25440562  1  0  0.607796  0  3.831603  0  0  0.564935  0  4.122422  0  0  0.592878  0  4.127017  0  1.062317  0  0.253907  0.546101  0  4.118573  0
C  C56  1  0.17465384  0.21459155  0.95693609  1  0  0.609802  0  3.823762  0  0  0.569309  0  4.1122  0  0  0.59768  0  4.116317  0  1.044437  0  0.253073  0.550174  0  4.108689  0
C  C57  1  0.32534649  0.78540775  0.45693535  1  0  0.609746  0  3.823861  0  0  0.569303  0  4.112213  0  0  0.597675  0  4.116328  0  1.044453  0  0.253088  0.550168  0  4.108702  0
C  C58  1  0.67465418  0.28540900  0.04306391  1  0  0.609797  0  3.823801  0  0  0.569329  0  4.1122  0  0  0.597703  0  4.116309  0  1.044414  0  0.253075  0.550193  0  4.108689  0
C  C59  1  0.82534561  0.71459209  0.54306317  1  0  0.609762  0  3.82385  0  0  0.569276  0  4.112262  0  0  0.597645  0  4.116382  0  1.044676  0  0.253087  0.55014  0  4.108751  0
C  C60  1  0.36423201  0.16141961  0.34130846  1  0  0.69353  0  3.832884  0  0  0.640365  0  4.138925  0  0  0.673992  0  4.131367  0  1.542651  0  0.20411  0.617611  0  4.143171  0
C  C61  1  0.13576589  0.83858239  0.84130772  1  0  0.693449  0  3.832992  0  0  0.640273  0  4.139038  0  0  0.673901  0  4.13148  0  1.542648  0  0.204039  0.617521  0  4.143283  0
C  C62  1  0.86423235  0.33857914  0.65869228  1  0  0.693545  0  3.832966  0  0  0.640336  0  4.139067  0  0  0.673963  0  4.131509  0  1.542673  0  0.204104  0.617587  0  4.143304  0
C  C63  1  0.63576865  0.66141565  0.15869080  1  0  0.693447  0  3.832995  0  0  0.640273  0  4.139078  0  0  0.673903  0  4.131516  0  1.542233  0  0.204041  0.617518  0  4.143326  0
C  C64  1  0.46010842  0.16735195  0.43664426  1  0  -0.239368  0  3.712525  0  0  -0.282395  0  3.970634  0  0  -0.28747  0  3.978877  0  -0.034233  0  -0.16912  -0.278796  0  3.964891  0
C  C65  1  0.03989192  0.83264914  0.93664278  1  0  -0.239206  0  3.712595  0  0  -0.282219  0  3.970651  0  0  -0.287302  0  3.978897  0  -0.034042  0  -0.169059  -0.278623  0  3.964916  0
C  C66  1  0.96010875  0.33264769  0.56335648  1  0  -0.23936  0  3.712543  0  0  -0.28237  0  3.970699  0  0  -0.287437  0  3.978949  0  -0.03402  0  -0.16911  -0.278778  0  3.96495  0
C  C67  1  0.53988982  0.66734979  0.06335648  1  0  -0.239396  0  3.712549  0  0  -0.282444  0  3.970683  0  0  -0.287517  0  3.978925  0  -0.034285  0  -0.16913  -0.278845  0  3.964943  0
C  C68  1  0.58308932  0.37114389  0.39837754  1  0  0.716747  0  3.783366  0  0  0.664589  0  4.085381  0  0  0.697681  0  4.078819  0  1.541676  0  0.215778  0.642169  0  4.08903  0
C  C69  1  0.91691289  0.62885450  0.89837606  1  0  0.716667  0  3.783255  0  0  0.664377  0  4.085451  0  0  0.697468  0  4.078895  0  1.541752  0  0.215653  0.641968  0  4.089091  0
C  C70  1  0.08308534  0.12885485  0.60162098  1  0  0.716746  0  3.783257  0  0  0.664623  0  4.085266  0  0  0.697712  0  4.078713  0  1.541592  0  0.215821  0.64222  0  4.088899  0
C  C71  1  0.41691256  0.87114444  0.10162172  1  0  0.716737  0  3.783387  0  0  0.664545  0  4.085445  0  0  0.697636  0  4.078886  0  1.541516  0  0.215777  0.642134  0  4.089088  0
C  C72  1  0.48695858  0.29627805  0.47147322  1  0  -0.259436  0  3.692405  0  0  -0.300738  0  3.947459  0  0  -0.306574  0  3.955222  0  -0.03592  0  -0.170916  -0.296648  0  3.941999  0
C  C73  1  0.01304175  0.70372305  0.97147248  1  0  -0.25955  0  3.692409  0  0  -0.300815  0  3.947496  0  0  -0.306645  0  3.955244  0  -0.035902  0  -0.170948  -0.296734  0  3.942051  0
C  C74  1  0.98695405  0.20372160  0.52852530  1  0  -0.259371  0  3.692324  0  0  -0.300824  0  3.947525  0  0  -0.306667  0  3.955288  0  -0.035926  0  -0.170971  -0.296714  0  3.94204  0
C  C75  1  0.51304330  0.79627679  0.02852678  1  0  -0.259476  0  3.692408  0  0  -0.300785  0  3.947515  0  0  -0.306619  0  3.95527  0  -0.035733  0  -0.170924  -0.296699  0  3.942061  0
S  S76  1  0.04231846  0.94822071  0.21174141  1  0  -0.448272  0  2.143528  0  0  -0.41525  0  2.513995  0  0  -0.432577  0  2.498672  0  -0.273273  0  -0.177484  -0.40325  0  2.524263  0
S  S77  1  0.45768309  0.05177949  0.71174437  1  0  -0.448283  0  2.143595  0  0  -0.415286  0  2.513993  0  0  -0.432613  0  2.498667  0  -0.272883  0  -0.177501  -0.403276  0  2.524253  0
S  S78  1  0.54231757  0.55177913  0.78825859  1  0  -0.448285  0  2.143508  0  0  -0.415238  0  2.513969  0  0  -0.432563  0  2.498643  0  -0.273248  0  -0.177466  -0.403235  0  2.524234  0
S  S79  1  0.95768464  0.44822196  0.28826081  1  0  -0.448299  0  2.143667  0  0  -0.415245  0  2.514063  0  0  -0.43257  0  2.498734  0  -0.273233  0  -0.177482  -0.403246  0  2.524331  0
S  S80  1  0.17780080  0.25541451  0.07990026  1  0  -0.436084  0  2.052267  0  0  -0.408695  0  2.402709  0  0  -0.427271  0  2.389968  0  -0.234152  0  -0.190213  -0.395927  0  2.411144  0
S  S81  1  0.32219953  0.74458479  0.57990026  1  0  -0.436072  0  2.052272  0  0  -0.408704  0  2.402694  0  0  -0.427281  0  2.389951  0  -0.234148  0  -0.190219  -0.395935  0  2.411128  0
S  S82  1  0.67780114  0.24458785  0.92009900  1  0  -0.436086  0  2.052292  0  0  -0.408711  0  2.402725  0  0  -0.427294  0  2.389994  0  -0.234115  0  -0.190222  -0.395942  0  2.41116  0
S  S83  1  0.82219622  0.75541686  0.42009900  1  0  -0.436069  0  2.052245  0  0  -0.408697  0  2.40269  0  0  -0.427277  0  2.38996  0  -0.234192  0  -0.190235  -0.39593  0  2.411126  0
N  N84  1  0.88461579  0.14407531  0.27794680  1  0  -0.672206  0  3.140928  0  0  -0.628811  0  3.378378  0  0  -0.650698  0  3.375157  0  -1.332168  0  -0.565255  -0.613904  0  3.380472  0
N  N85  1  0.61538521  0.85592218  0.77794902  1  0  -0.672285  0  3.140855  0  0  -0.628914  0  3.378242  0  0  -0.650804  0  3.375017  0  -1.332138  0  -0.56529  -0.614004  0  3.380331  0
N  N86  1  0.38461059  0.35593065  0.72205467  1  0  -0.672308  0  3.141014  0  0  -0.62887  0  3.378476  0  0  -0.650754  0  3.375249  0  -1.331835  0  -0.565251  -0.61396  0  3.380561  0
N  N87  1  0.11538731  0.64407676  0.22205541  1  0  -0.67229  0  3.140948  0  0  -0.628873  0  3.378349  0  0  -0.650762  0  3.375124  0  -1.332161  0  -0.565289  -0.613966  0  3.380444  0
N  N88  1  0.72909926  0.97551417  0.24024233  1  0  -0.651752  0  3.088048  0  0  -0.603647  0  3.317136  0  0  -0.624986  0  3.312247  0  -1.3091  0  -0.561237  -0.589171  0  3.320429  0
N  N89  1  0.77090174  0.02448512  0.74024529  1  0  -0.651487  0  3.088111  0  0  -0.603614  0  3.317264  0  0  -0.624952  0  3.312375  0  -1.309309  0  -0.561212  -0.589139  0  3.320556  0
N  N90  1  0.22909162  0.52449108  0.75975840  1  0  -0.651658  0  3.087951  0  0  -0.603755  0  3.317149  0  0  -0.625093  0  3.312261  0  -1.308726  0  -0.561193  -0.589274  0  3.320443  0
N  N91  1  0.27090384  0.47551453  0.25975988  1  0  -0.651491  0  3.087989  0  0  -0.603617  0  3.317209  0  0  -0.624957  0  3.312319  0  -1.309144  0  -0.561189  -0.589141  0  3.320503  0
N  N92  1  0.23750907  0.11236640  0.92200960  1  0  -0.663073  0  3.13119  0  0  -0.618538  0  3.363213  0  0  -0.6402  0  3.359337  0  -1.263418  0  -0.566996  -0.603844  0  3.365791  0
N  N93  1  0.26248883  0.88763199  0.42200887  1  0  -0.663061  0  3.131275  0  0  -0.61854  0  3.363249  0  0  -0.640199  0  3.359371  0  -1.263428  0  -0.567017  -0.603846  0  3.36583  0
N  N94  1  0.73751062  0.38763324  0.07799113  1  0  -0.663079  0  3.131254  0  0  -0.618547  0  3.363225  0  0  -0.640206  0  3.359345  0  -1.263429  0  -0.567022  -0.603853  0  3.365808  0
N  N95  1  0.76248916  0.61236785  0.57798966  1  0  -0.663107  0  3.131307  0  0  -0.618556  0  3.363278  0  0  -0.640217  0  3.359399  0  -1.263636  0  -0.567018  -0.603863  0  3.36586  0
N  N96  1  0.10600971  0.29148654  0.89327004  1  0  -0.66338  0  3.122281  0  0  -0.617842  0  3.35706  0  0  -0.638606  0  3.353102  0  -1.306711  0  -0.570248  -0.603731  0  3.359697  0
N  N97  1  0.39398940  0.70851185  0.39327004  1  0  -0.663362  0  3.122368  0  0  -0.617822  0  3.357118  0  0  -0.638588  0  3.353159  0  -1.306709  0  -0.570237  -0.603712  0  3.359761  0
N  N98  1  0.60600883  0.20851310  0.10672996  1  0  -0.663402  0  3.122371  0  0  -0.61785  0  3.357129  0  0  -0.638617  0  3.353168  0  -1.306708  0  -0.570236  -0.603741  0  3.35977  0
N  N99  1  0.89398974  0.79148799  0.60672922  1  0  -0.663308  0  3.122362  0  0  -0.617779  0  3.357109  0  0  -0.638543  0  3.353152  0  -1.306699  0  -0.570235  -0.603668  0  3.359749  0
O  O100  1  0.41521495  0.08888323  0.27322571  1  0  -0.643781  0  2.100384  0  0  -0.564444  0  2.359272  0  0  -0.592969  0  2.346559  0  -1.18486  0  -0.324412  -0.54465  0  2.367439  0
O  O101  1  0.08478538  0.91111606  0.77322571  1  0  -0.643715  0  2.100445  0  0  -0.564395  0  2.359359  0  0  -0.592919  0  2.346644  0  -1.184904  0  -0.324386  -0.544597  0  2.367519  0
O  O102  1  0.91521651  0.41111822  0.72677355  1  0  -0.643831  0  2.100395  0  0  -0.564434  0  2.359239  0  0  -0.592958  0  2.346525  0  -1.184891  0  -0.32441  -0.544639  0  2.367402  0
O  O103  1  0.58478328  0.58888288  0.22677503  1  0  -0.643767  0  2.100445  0  0  -0.564402  0  2.35928  0  0  -0.592925  0  2.346561  0  -1.18446  0  -0.324409  -0.544612  0  2.367453  0
O  O104  1  0.23703934  0.22404560  0.33068859  1  0  -0.648024  0  1.965652  0  0  -0.584401  0  2.19233  0  0  -0.609366  0  2.183708  0  -1.212656  0  -0.318886  -0.567089  0  2.197885  0
O  O105  1  0.26296099  0.77595189  0.83068859  1  0  -0.648078  0  1.965639  0  0  -0.58442  0  2.19228  0  0  -0.609386  0  2.183657  0  -1.212631  0  -0.318858  -0.567111  0  2.197843  0
O  O106  1  0.73704333  0.27595315  0.66931363  1  0  -0.648068  0  1.965818  0  0  -0.584409  0  2.192474  0  0  -0.609369  0  2.183847  0  -1.212655  0  -0.318909  -0.567116  0  2.19806  0
O  O107  1  0.76296376  0.72403983  0.16930920  1  0  -0.647991  0  1.965697  0  0  -0.584376  0  2.192403  0  0  -0.609349  0  2.18379  0  -1.212611  0  -0.318836  -0.567054  0  2.197942  0
O  O108  1  0.60983483  0.48226394  0.42477207  1  0  -0.663999  0  2.089581  0  0  -0.578274  0  2.343275  0  0  -0.607569  0  2.330331  0  -1.205337  0  -0.330142  -0.557876  0  2.351579  0
O  O109  1  0.89016739  0.51773535  0.92477133  1  0  -0.663982  0  2.089662  0  0  -0.578197  0  2.343386  0  0  -0.607495  0  2.330447  0  -1.20546  0  -0.330073  -0.5578  0  2.351679  0
O  O110  1  0.10982963  0.01773390  0.57522571  1  0  -0.664032  0  2.089654  0  0  -0.578279  0  2.343279  0  0  -0.607574  0  2.330332  0  -1.205326  0  -0.33015  -0.557893  0  2.351578  0
O  O111  1  0.39017070  0.98226539  0.07522941  1  0  -0.66399  0  2.089585  0  0  -0.578218  0  2.343252  0  0  -0.607511  0  2.330305  0  -1.205357  0  -0.330134  -0.557842  0  2.351571  0
O  O112  1  0.63266429  0.32682177  0.31832434  1  0  -0.625688  0  1.938044  0  0  -0.559431  0  2.154851  0  0  -0.583672  0  2.147292  0  -1.203599  0  -0.312346  -0.542559  0  2.159632  0
O  O113  1  0.86733550  0.67317662  0.81832213  1  0  -0.625628  0  1.937932  0  0  -0.559273  0  2.154736  0  0  -0.583513  0  2.147182  0  -1.203563  0  -0.312262  -0.542424  0  2.159535  0
O  O114  1  0.13266274  0.17317337  0.68167196  1  0  -0.625699  0  1.937951  0  0  -0.559415  0  2.154729  0  0  -0.583652  0  2.147168  0  -1.203484  0  -0.312348  -0.5426  0  2.159565  0
O  O115  1  0.36733638  0.82682322  0.18167492  1  0  -0.625679  0  1.938045  0  0  -0.559393  0  2.15485  0  0  -0.583636  0  2.147292  0  -1.203573  0  -0.312343  -0.542524  0  2.159629  0
