# generated using pymatgen
data_Cd3H38C48(N4O11)2
_symmetry_space_group_name_H-M   'P 1'
_cell_length_a   8.92735431
_cell_length_b   10.20099829
_cell_length_c   15.47354009
_cell_angle_alpha   107.35674835
_cell_angle_beta   97.17720457
_cell_angle_gamma   105.98987876
_symmetry_Int_Tables_number   1
_chemical_formula_structural   Cd3H38C48(N4O11)2
_chemical_formula_sum   'Cd3 H38 C48 N8 O22'
_cell_volume   1259.57120612
_cell_formula_units_Z   1
loop_
 _symmetry_equiv_pos_site_id
 _symmetry_equiv_pos_as_xyz
  1  'x, y, z'
loop_
 _atom_site_type_symbol
 _atom_site_label
 _atom_site_symmetry_multiplicity
 _atom_site_fract_x
 _atom_site_fract_y
 _atom_site_fract_z
 _atom_site_occupancy
 _atom_site_hle17_bader_spin_density
 _atom_site_hle17_ddec_charge
 _atom_site_hle17_ddec_spin_density
 _atom_site_hle17_ddec_sum_bond_order
 _atom_site_hle17_magmom
 _atom_site_hse06_10hf_bader_spin_density
 _atom_site_hse06_10hf_ddec_charge
 _atom_site_hse06_10hf_ddec_spin_density
 _atom_site_hse06_10hf_ddec_sum_bond_order
 _atom_site_hse06_10hf_magmom
 _atom_site_hse06_bader_spin_density
 _atom_site_hse06_ddec_charge
 _atom_site_hse06_ddec_spin_density
 _atom_site_hse06_ddec_sum_bond_order
 _atom_site_hse06_magmom
 _atom_site_pbe_bader_spin_density
 _atom_site_pbe_cm5_charge
 _atom_site_pbe_ddec_charge
 _atom_site_pbe_ddec_spin_density
 _atom_site_pbe_ddec_sum_bond_order
 _atom_site_pbe_magmom
Cd  Cd0  1  0.49999887  0.99999722  0.49999968  1  0  1.185717  0  1.583521  0  0  0.980905  0  2.029391  0  0  1.038248  0  1.978257  0  0  0.80578  0.939622  0  2.064968  0
Cd  Cd1  1  0.88328597  0.56165331  0.59042388  1  0  1.191662  0  1.678716  0  0  1.006107  0  2.12515  0  0  1.05985  0  2.073364  0  0  0.809451  0.967405  0  2.161089  0
Cd  Cd2  1  0.11671851  0.43834733  0.40957653  1  0  1.191657  0  1.67873  0  0  1.006115  0  2.125139  0  0  1.059856  0  2.073353  0  0  0.809468  0.967412  0  2.161079  0
H  H3  1  0.98270304  0.60446073  0.95171803  1  0  0.334128  0  0.891264  0  0  0.309226  0  0.962308  0  0  0.318658  0  0.953633  0  0  0.324508  0.302766  0  0.968049  0
H  H4  1  0.01729386  0.39553442  0.04828139  1  0  0.33417  0  0.891211  0  0  0.309265  0  0.962259  0  0  0.318699  0  0.953586  0  0  0.324521  0.302804  0  0.967998  0
H  H5  1  0.66101864  0.18595098  0.74904903  1  0  0.388174  0  0.916099  0  0  0.356764  0  0.995827  0  0  0.369741  0  0.981422  0  0  0.294307  0.347621  0  1.004837  0
H  H6  1  0.33899073  0.81404430  0.25094550  1  0  0.388172  0  0.915955  0  0  0.356819  0  0.995594  0  0  0.369795  0  0.9813  0  0  0.294335  0.347676  0  1.004608  0
H  H7  1  0.06800065  0.15054901  0.63858170  1  0  0.384995  0  0.919044  0  0  0.354564  0  0.997218  0  0  0.36778  0  0.983304  0  0  0.290708  0.345336  0  1.005945  0
H  H8  1  0.93200157  0.84945161  0.36141854  1  0  0.384994  0  0.91907  0  0  0.354567  0  0.997231  0  0  0.367785  0  0.983303  0  0  0.290709  0.345342  0  1.005954  0
H  H9  1  0.17970941  0.81829516  0.62288569  1  0  0.431512  0  0.861803  0  0  0.401696  0  0.922521  0  0  0.412407  0  0.907128  0  0  0.294406  0.394038  0  0.933551  0
H  H10  1  0.82029432  0.18170655  0.37711746  1  0  0.43146  0  0.861816  0  0  0.40166  0  0.922557  0  0  0.412363  0  0.907174  0  0  0.294398  0.394006  0  0.933583  0
H  H11  1  0.09650695  0.84544367  0.70533944  1  0  0.400876  0  0.876827  0  0  0.373805  0  0.954083  0  0  0.382078  0  0.944692  0  0  0.294424  0.367824  0  0.960647  0
H  H12  1  0.90349450  0.15455477  0.29466225  1  0  0.40085  0  0.876854  0  0  0.373775  0  0.954118  0  0  0.382047  0  0.944732  0  0  0.29442  0.3678  0  0.960672  0
H  H13  1  0.19442499  0.82327711  0.97361761  1  0  0.109104  0  0.963655  0  0  0.115656  0  1.028505  0  0  0.119919  0  1.024357  0  0  0.105083  0.112513  0  1.031571  0
H  H14  1  0.80557004  0.17672236  0.02638318  1  0  0.109098  0  0.963654  0  0  0.115643  0  1.028517  0  0  0.119903  0  1.024372  0  0  0.10509  0.112499  0  1.031583  0
H  H15  1  0.31630121  0.08864136  0.02764245  1  0  0.111723  0  0.960022  0  0  0.123064  0  1.018115  0  0  0.126025  0  1.017617  0  0  0.107402  0.120949  0  1.018604  0
H  H16  1  0.68369458  0.91135704  0.97235753  1  0  0.111712  0  0.960013  0  0  0.123048  0  1.018114  0  0  0.12602  0  1.017601  0  0  0.107396  0.120935  0  1.018602  0
H  H17  1  0.97407333  0.10678250  0.81146271  1  0  0.125079  0  0.927339  0  0  0.137877  0  0.979581  0  0  0.14133  0  0.978064  0  0  0.11143  0.135323  0  0.981043  0
H  H18  1  0.02592284  0.89321699  0.18853752  1  0  0.125095  0  0.927314  0  0  0.137876  0  0.979573  0  0  0.141329  0  0.978055  0  0  0.111434  0.135324  0  0.981037  0
H  H19  1  0.84841289  0.83843753  0.75825774  1  0  0.094123  0  0.975085  0  0  0.101457  0  1.041764  0  0  0.103254  0  1.04198  0  0  0.102365  0.10024  0  1.041524  0
H  H20  1  0.15158404  0.16156088  0.24174103  1  0  0.094136  0  0.975148  0  0  0.101437  0  1.041852  0  0  0.10323  0  1.04208  0  0  0.102363  0.10022  0  1.041614  0
H  H21  1  0.38177731  0.45286015  0.02877027  1  0  0.084989  0  0.949999  0  0  0.101825  0  1.019025  0  0  0.101572  0  1.019968  0  0  0.102708  0.101944  0  1.01839  0
H  H22  1  0.61822339  0.54713937  0.97123029  1  0  0.084978  0  0.949992  0  0  0.101817  0  1.019012  0  0  0.101565  0  1.019956  0  0  0.102706  0.101939  0  1.018378  0
H  H23  1  0.45433310  0.30066654  0.00092100  1  0  0.091056  0  0.932047  0  0  0.109183  0  0.993677  0  0  0.110151  0  0.992433  0  0  0.102583  0.108385  0  0.994682  0
H  H24  1  0.54566760  0.69933298  0.99907956  1  0  0.091065  0  0.932069  0  0  0.109189  0  0.993697  0  0  0.110157  0  0.992451  0  0  0.102584  0.108393  0  0.994703  0
H  H25  1  0.33499183  0.32237940  0.08567887  1  0  0.08251  0  0.948207  0  0  0.096816  0  1.0201  0  0  0.096636  0  1.021242  0  0  0.096653  0.096878  0  1.019366  0
H  H26  1  0.66500774  0.67762011  0.91432225  1  0  0.082542  0  0.94818  0  0  0.096846  0  1.020069  0  0  0.096665  0  1.021211  0  0  0.096659  0.09691  0  1.019333  0
H  H27  1  0.46175541  0.49298472  0.41349342  1  0  0.091885  0  0.976272  0  0  0.100601  0  1.043447  0  0  0.10312  0  1.042273  0  0  0.098699  0.098823  0  1.044247  0
H  H28  1  0.53824680  0.50701589  0.58650747  1  0  0.091894  0  0.976259  0  0  0.100614  0  1.043428  0  0  0.103134  0  1.042255  0  0  0.098695  0.098837  0  1.04423  0
H  H29  1  0.59923432  0.55083418  0.29552153  1  0  0.098496  0  0.97133  0  0  0.108002  0  1.035021  0  0  0.110499  0  1.035147  0  0  0.09798  0.106152  0  1.035184  0
H  H30  1  0.40076450  0.44916641  0.70447846  1  0  0.098489  0  0.971315  0  0  0.107992  0  1.035015  0  0  0.110487  0  1.035143  0  0  0.097983  0.106129  0  1.035194  0
H  H31  1  0.57357795  0.10249128  0.17725322  1  0  0.113033  0  0.937192  0  0  0.124493  0  0.994129  0  0  0.128115  0  0.992303  0  0  0.106536  0.121885  0  0.995585  0
H  H32  1  0.42642730  0.89751154  0.82274832  1  0  0.112984  0  0.937187  0  0  0.1245  0  0.994069  0  0  0.128123  0  0.992241  0  0  0.106539  0.121891  0  0.995523  0
H  H33  1  0.43686784  0.04593598  0.29816052  1  0  0.09897  0  0.969894  0  0  0.110139  0  1.031216  0  0  0.112793  0  1.029386  0  0  0.103737  0.108216  0  1.032582  0
H  H34  1  0.56313929  0.95406577  0.70184095  1  0  0.098984  0  0.969896  0  0  0.11016  0  1.031197  0  0  0.112814  0  1.029368  0  0  0.103748  0.108236  0  1.032563  0
H  H35  1  0.77587832  0.48899364  0.09704914  1  0  0.101794  0  0.957846  0  0  0.11406  0  1.029493  0  0  0.115256  0  1.028692  0  0  0.10069  0.113108  0  1.030174  0
H  H36  1  0.22412317  0.51101131  0.90295255  1  0  0.101789  0  0.957852  0  0  0.114055  0  1.029487  0  0  0.115252  0  1.028683  0  0  0.100692  0.113104  0  1.030168  0
H  H37  1  0.81963368  0.56814750  0.22167568  1  0  0.093171  0  0.958641  0  0  0.108891  0  1.024761  0  0  0.109566  0  1.024624  0  0  0.095901  0.108354  0  1.024964  0
H  H38  1  0.18036743  0.43185637  0.77832512  1  0  0.093198  0  0.958612  0  0  0.108917  0  1.024723  0  0  0.109592  0  1.024586  0  0  0.095934  0.108384  0  1.024924  0
H  H39  1  0.62864657  0.54264131  0.15424275  1  0  0.072508  0  0.944002  0  0  0.092378  0  1.007414  0  0  0.093016  0  1.006602  0  0  0.093526  0.091844  0  1.008079  0
H  H40  1  0.37135528  0.45736148  0.84575790  1  0  0.072501  0  0.943964  0  0  0.092368  0  1.007384  0  0  0.093006  0  1.006574  0  0  0.093529  0.091838  0  1.008044  0
C  C41  1  0.70026296  0.31247200  0.65121916  1  0  0.649871  0  3.911795  0  0  0.592989  0  4.215565  0  0  0.628508  0  4.205745  0  0  0.213305  0.568983  0  4.221255  0
C  C42  1  0.29973736  0.68752644  0.34877922  1  0  0.649919  0  3.911792  0  0  0.593061  0  4.215543  0  0  0.628581  0  4.20572  0  0  0.213342  0.569052  0  4.221238  0
C  C43  1  0.79306943  0.43152209  0.73979967  1  0  0.014194  0  3.777058  0  0  0.004642  0  4.039761  0  0  0.005288  0  4.058774  0  0  0.084212  0.004128  0  4.027069  0
C  C44  1  0.20693089  0.56847635  0.26019806  1  0  0.014138  0  3.777076  0  0  0.004602  0  4.039782  0  0  0.005245  0  4.058797  0  0  0.084218  0.004094  0  4.027089  0
C  C45  1  0.83252067  0.43089601  0.82971869  1  0  -0.011813  0  3.727081  0  0  -0.02754  0  3.987136  0  0  -0.030721  0  4.006476  0  0  0.083442  -0.025763  0  3.974816  0
C  C46  1  0.16747926  0.56910134  0.17027945  1  0  -0.01178  0  3.727047  0  0  -0.027561  0  3.987149  0  0  -0.03074  0  4.006493  0  0  0.083412  -0.025785  0  3.974823  0
C  C47  1  0.79064600  0.31896717  0.87227077  1  0  0.632353  0  3.90479  0  0  0.584168  0  4.209048  0  0  0.618346  0  4.197881  0  0  0.227984  0.560996  0  4.21633  0
C  C48  1  0.20935845  0.68102696  0.12772706  1  0  0.632239  0  3.904614  0  0  0.584158  0  4.208784  0  0  0.618335  0  4.19762  0  0  0.227975  0.56099  0  4.216063  0
C  C49  1  0.93954904  0.65432845  0.82777570  1  0  0.387245  0  3.686712  0  0  0.348999  0  3.954257  0  0  0.367393  0  3.965656  0  0  0.240843  0.336761  0  3.946483  0
C  C50  1  0.06044713  0.34567103  0.17222517  1  0  0.387282  0  3.686592  0  0  0.348998  0  3.954228  0  0  0.36739  0  3.965639  0  0  0.240859  0.336764  0  3.94645  0
C  C51  1  0.01559376  0.81143245  0.86058352  1  0  -0.051237  0  3.820169  0  0  -0.035866  0  4.063276  0  0  -0.042497  0  4.087096  0  0  -0.022278  -0.031828  0  4.047388  0
C  C52  1  0.98440316  0.18856595  0.13941654  1  0  -0.051176  0  3.82014  0  0  -0.035814  0  4.063283  0  0  -0.042446  0  4.087107  0  0  -0.022249  -0.031781  0  4.047393  0
C  C53  1  0.14580084  0.88432962  0.93736976  1  0  -0.04285  0  3.721038  0  0  -0.071013  0  3.97896  0  0  -0.068074  0  3.996616  0  0  -0.07902  -0.071888  0  3.966333  0
C  C54  1  0.85419494  0.11566878  0.06263087  1  0  -0.0429  0  3.721055  0  0  -0.071051  0  3.978984  0  0  -0.068112  0  3.996646  0  0  -0.079042  -0.071925  0  3.966353  0
C  C55  1  0.21536421  0.03500265  0.96787341  1  0  -0.199366  0  3.751085  0  0  -0.216058  0  3.999132  0  0  -0.223756  0  4.020667  0  0  -0.105075  -0.211158  0  3.98414  0
C  C56  1  0.78463270  0.96499575  0.03212730  1  0  -0.199332  0  3.751078  0  0  -0.216023  0  3.999117  0  0  -0.22373  0  4.020646  0  0  -0.105065  -0.211126  0  3.984128  0
C  C57  1  0.15384853  0.11492908  0.92188443  1  0  0.278119  0  3.803005  0  0  0.268281  0  4.060087  0  0  0.281035  0  4.076337  0  0  0.088673  0.260349  0  4.048503  0
C  C58  1  0.84614877  0.88507041  0.07811652  1  0  0.278136  0  3.803083  0  0  0.268299  0  4.060149  0  0  0.281055  0  4.076398  0  0  0.088692  0.26036  0  4.048572  0
C  C59  1  0.02223529  0.04327028  0.84561282  1  0  -0.165222  0  3.728662  0  0  -0.190316  0  3.984705  0  0  -0.196014  0  4.002205  0  0  -0.097553  -0.186833  0  3.973342  0
C  C60  1  0.97776276  0.95672813  0.15438732  1  0  -0.165267  0  3.728715  0  0  -0.190345  0  3.984733  0  0  -0.196041  0  4.002228  0  0  -0.097573  -0.186865  0  3.97338  0
C  C61  1  0.95374579  0.89324215  0.81556816  1  0  -0.088225  0  3.777647  0  0  -0.103778  0  4.02186  0  0  -0.102145  0  4.041612  0  0  -0.088126  -0.105071  0  4.00879  0
C  C62  1  0.04625113  0.10675625  0.18443190  1  0  -0.088215  0  3.777765  0  0  -0.103722  0  4.021962  0  0  -0.102092  0  4.041715  0  0  -0.088119  -0.105013  0  4.008894  0
C  C63  1  0.35436211  0.33764095  0.01997624  1  0  -0.082937  0  3.651633  0  0  -0.18457  0  3.927013  0  0  -0.177318  0  3.931443  0  0  -0.143817  -0.189273  0  3.923765  0
C  C64  1  0.64563821  0.66235748  0.98002407  1  0  -0.082983  0  3.651713  0  0  -0.184616  0  3.92708  0  0  -0.177363  0  3.931509  0  0  -0.143823  -0.189331  0  3.923829  0
C  C65  1  0.21288431  0.04784216  0.58558093  1  0  0.634263  0  3.863472  0  0  0.580477  0  4.165188  0  0  0.615475  0  4.155763  0  0  0.220894  0.556707  0  4.170888  0
C  C66  1  0.78711526  0.95215735  0.41441825  1  0  0.634215  0  3.86346  0  0  0.580446  0  4.165148  0  0  0.615445  0  4.155722  0  0  0.220898  0.55668  0  4.170844  0
C  C67  1  0.24404302  0.14365435  0.53131345  1  0  -0.026895  0  3.820402  0  0  -0.033547  0  4.077735  0  0  -0.037189  0  4.100415  0  0  0.063204  -0.031063  0  4.062307  0
C  C68  1  0.75596110  0.85634845  0.46868801  1  0  -0.026817  0  3.820225  0  0  -0.03348  0  4.077569  0  0  -0.037121  0  4.100247  0  0  0.06323  -0.030997  0  4.062131  0
C  C69  1  0.18280527  0.25380595  0.52513884  1  0  0.002486  0  3.811494  0  0  -0.007677  0  4.070908  0  0  -0.008371  0  4.091919  0  0  0.07311  -0.007211  0  4.056773  0
C  C70  1  0.81719999  0.74619687  0.47486270  1  0  0.002521  0  3.8114  0  0  -0.007651  0  4.070823  0  0  -0.008344  0  4.091831  0  0  0.073134  -0.007179  0  4.056676  0
C  C71  1  0.07194828  0.31498833  0.57356415  1  0  0.647039  0  3.906921  0  0  0.591374  0  4.211315  0  0  0.626529  0  4.2026  0  0  0.215279  0.5674  0  4.216583  0
C  C72  1  0.92805546  0.68501339  0.42643641  1  0  0.646973  0  3.906996  0  0  0.591305  0  4.211406  0  0  0.626458  0  4.202689  0  0  0.215222  0.567324  0  4.216674  0
C  C73  1  0.34671834  0.23304248  0.43200154  1  0  0.373207  0  3.736929  0  0  0.339848  0  4.00687  0  0  0.356339  0  4.02121  0  0  0.219611  0.328736  0  3.996851  0
C  C74  1  0.65328501  0.76695816  0.56799879  1  0  0.373154  0  3.736976  0  0  0.339796  0  4.006916  0  0  0.356286  0  4.021258  0  0  0.219603  0.328689  0  3.996898  0
C  C75  1  0.43733566  0.26462005  0.36410148  1  0  -0.045491  0  3.81616  0  0  -0.026075  0  4.055073  0  0  -0.031646  0  4.078227  0  0  -0.024113  -0.022461  0  4.039282  0
C  C76  1  0.56266769  0.73538058  0.63589884  1  0  -0.04546  0  3.816152  0  0  -0.026038  0  4.055059  0  0  -0.031609  0  4.078215  0  0  -0.024105  -0.022425  0  4.03927  0
C  C77  1  0.48440614  0.40620178  0.36155571  1  0  -0.065335  0  3.761647  0  0  -0.090983  0  4.018787  0  0  -0.089731  0  4.039405  0  0  -0.092852  -0.091464  0  4.004553  0
C  C78  1  0.51559607  0.59379884  0.63844517  1  0  -0.065359  0  3.761649  0  0  -0.091013  0  4.018789  0  0  -0.089761  0  4.039407  0  0  -0.092849  -0.091492  0  4.004553  0
C  C79  1  0.56229356  0.43928406  0.29438781  1  0  -0.205312  0  3.772113  0  0  -0.22495  0  4.026723  0  0  -0.232416  0  4.048664  0  0  -0.118007  -0.219995  0  4.011986  0
C  C80  1  0.43770829  0.56071873  0.70561348  1  0  -0.205277  0  3.772115  0  0  -0.224915  0  4.026723  0  0  -0.23238  0  4.048665  0  0  -0.118016  -0.219949  0  4.011993  0
C  C81  1  0.59399063  0.32931179  0.22752507  1  0  0.271411  0  3.815374  0  0  0.264002  0  4.070023  0  0  0.276688  0  4.085408  0  0  0.083358  0.255366  0  4.05952  0
C  C82  1  0.40601349  0.67069101  0.77247704  1  0  0.271366  0  3.81537  0  0  0.263946  0  4.070052  0  0  0.276631  0  4.085436  0  0  0.083322  0.255309  0  4.059539  0
C  C83  1  0.54724353  0.18693402  0.22910639  1  0  -0.166733  0  3.74084  0  0  -0.189234  0  3.998106  0  0  -0.194143  0  4.014524  0  0  -0.101364  -0.186047  0  3.987124  0
C  C84  1  0.45276134  0.81306771  0.77089426  1  0  -0.166702  0  3.74073  0  0  -0.189256  0  3.998017  0  0  -0.194166  0  4.014437  0  0  -0.101375  -0.186068  0  3.987026  0
C  C85  1  0.47177347  0.15602051  0.29718517  1  0  -0.054358  0  3.734761  0  0  -0.078005  0  3.984385  0  0  -0.07568  0  4.002344  0  0  -0.084906  -0.079183  0  3.972012  0
C  C86  1  0.52823253  0.84398123  0.70281556  1  0  -0.054321  0  3.734736  0  0  -0.077979  0  3.984396  0  0  -0.075654  0  4.002357  0  0  -0.084885  -0.079155  0  3.972014  0
C  C87  1  0.72641535  0.49689881  0.15884248  1  0  -0.086507  0  3.631248  0  0  -0.183201  0  3.897811  0  0  -0.176533  0  3.901362  0  0  -0.149018  -0.187579  0  3.895363  0
C  C88  1  0.27358653  0.50310724  0.84115816  1  0  -0.086499  0  3.631298  0  0  -0.183175  0  3.89783  0  0  -0.176508  0  3.901379  0  0  -0.149029  -0.187553  0  3.895378  0
N  N89  1  0.86099469  0.56942935  0.73998289  1  0  -0.454732  0  3.165892  0  0  -0.391585  0  3.441671  0  0  -0.413216  0  3.456841  0  0  -0.345069  -0.376693  0  3.43104  0
N  N90  1  0.13900223  0.43056906  0.26001652  1  0  -0.454663  0  3.16585  0  0  -0.391496  0  3.441624  0  0  -0.413127  0  3.456794  0  0  -0.345056  -0.376608  0  3.430995  0
N  N91  1  0.92556102  0.57159003  0.88281233  1  0  -0.323298  0  3.379491  0  0  -0.264193  0  3.612938  0  0  -0.2796  0  3.625118  0  0  -0.357582  -0.254042  0  3.604724  0
N  N92  1  0.07443816  0.42840839  0.11718790  1  0  -0.323431  0  3.379425  0  0  -0.264329  0  3.612958  0  0  -0.279714  0  3.625076  0  0  -0.357622  -0.254179  0  3.604746  0
N  N93  1  0.34677378  0.13197990  0.47238747  1  0  -0.445526  0  3.161698  0  0  -0.374827  0  3.436275  0  0  -0.397216  0  3.452597  0  0  -0.354123  -0.359188  0  3.424557  0
N  N94  1  0.65322919  0.86801964  0.52761325  1  0  -0.445527  0  3.161727  0  0  -0.374829  0  3.436313  0  0  -0.397219  0  3.452634  0  0  -0.354131  -0.359193  0  3.424599  0
N  N95  1  0.24746614  0.30750285  0.46239727  1  0  -0.477974  0  3.234607  0  0  -0.405826  0  3.510165  0  0  -0.428775  0  3.526764  0  0  -0.361199  -0.389779  0  3.498354  0
N  N96  1  0.75253872  0.69249888  0.53760402  1  0  -0.478004  0  3.234601  0  0  -0.405852  0  3.510148  0  0  -0.4288  0  3.526744  0  0  -0.361221  -0.389804  0  3.498331  0
O  O97  1  0.62665577  0.18750638  0.65574974  1  0  -0.62989  0  2.051869  0  0  -0.564142  0  2.294575  0  0  -0.593224  0  2.28263  0  0  -0.312693  -0.544009  0  2.301908  0
O  O98  1  0.37334607  0.81249316  0.34424703  1  0  -0.629928  0  2.051795  0  0  -0.564215  0  2.294468  0  0  -0.593304  0  2.282565  0  0  -0.312703  -0.544087  0  2.301817  0
O  O99  1  0.69527223  0.33824158  0.57648315  1  0  -0.5912  0  1.999618  0  0  -0.532159  0  2.247676  0  0  -0.558637  0  2.236941  0  0  -0.303092  -0.513232  0  2.25428  0
O  O100  1  0.30472925  0.66176013  0.42351661  1  0  -0.591195  0  1.999645  0  0  -0.532153  0  2.247676  0  0  -0.558626  0  2.236931  0  0  -0.303091  -0.513227  0  2.254284  0
O  O101  1  0.69212444  0.18918394  0.81824266  1  0  -0.533302  0  2.079189  0  0  -0.483169  0  2.289084  0  0  -0.505465  0  2.273676  0  0  -0.32535  -0.467824  0  2.298492  0
O  O102  1  0.30788604  0.81080809  0.18175002  1  0  -0.533213  0  2.078973  0  0  -0.483147  0  2.288798  0  0  -0.50544  0  2.273475  0  0  -0.325371  -0.467801  0  2.298206  0
O  O103  1  0.84359946  0.34760921  0.95625698  1  0  -0.562388  0  1.97863  0  0  -0.524318  0  2.208172  0  0  -0.543192  0  2.195921  0  0  -0.293078  -0.511392  0  2.21617  0
O  O104  1  0.15640045  0.65238489  0.04373986  1  0  -0.562332  0  1.978516  0  0  -0.524326  0  2.208038  0  0  -0.543207  0  2.195801  0  0  -0.293083  -0.511402  0  2.216038  0
O  O105  1  0.21271016  0.26273161  0.94719440  1  0  -0.252521  0  2.334779  0  0  -0.176032  0  2.572803  0  0  -0.194828  0  2.576272  0  0  -0.185771  -0.162883  0  2.569509  0
O  O106  1  0.78728789  0.73726681  0.05280574  1  0  -0.252552  0  2.334894  0  0  -0.176049  0  2.57291  0  0  -0.194846  0  2.576375  0  0  -0.185786  -0.162876  0  2.569602  0
O  O107  1  0.27848228  0.95159840  0.57847467  1  0  -0.588185  0  2.006532  0  0  -0.519837  0  2.236774  0  0  -0.545107  0  2.224619  0  0  -0.288466  -0.502579  0  2.245223  0
O  O108  1  0.72151691  0.04840003  0.42152427  1  0  -0.588178  0  2.006506  0  0  -0.519844  0  2.236764  0  0  -0.545112  0  2.224606  0  0  -0.288476  -0.502584  0  2.245211  0
O  O109  1  0.11395243  0.06304556  0.64094495  1  0  -0.54004  0  2.078  0  0  -0.488534  0  2.292544  0  0  -0.511229  0  2.279296  0  0  -0.322022  -0.472875  0  2.300704  0
O  O110  1  0.88604640  0.93695503  0.35905440  1  0  -0.540027  0  2.078028  0  0  -0.488533  0  2.292566  0  0  -0.511229  0  2.279309  0  0  -0.322029  -0.472876  0  2.300727  0
O  O111  1  0.01580696  0.26501323  0.63341782  1  0  -0.574205  0  1.996951  0  0  -0.524572  0  2.218207  0  0  -0.548793  0  2.209044  0  0  -0.303538  -0.507775  0  2.223873  0
O  O112  1  0.98419603  0.73498957  0.36658291  1  0  -0.574232  0  1.996996  0  0  -0.524591  0  2.21823  0  0  -0.548819  0  2.209081  0  0  -0.30355  -0.50779  0  2.223896  0
O  O113  1  0.04156281  0.41859646  0.55263672  1  0  -0.643689  0  2.090275  0  0  -0.558316  0  2.351215  0  0  -0.589119  0  2.337821  0  0  -0.320599  -0.536796  0  2.360027  0
O  O114  1  0.95844018  0.58140635  0.44736272  1  0  -0.64366  0  2.090315  0  0  -0.558264  0  2.351214  0  0  -0.589072  0  2.337836  0  0  -0.320546  -0.536743  0  2.360027  0
O  O115  1  0.66926728  0.35094801  0.15892078  1  0  -0.258949  0  2.3397  0  0  -0.183812  0  2.578634  0  0  -0.202746  0  2.582622  0  0  -0.189607  -0.170443  0  2.575436  0
O  O116  1  0.33073533  0.64905370  0.84107906  1  0  -0.258973  0  2.339877  0  0  -0.183832  0  2.578814  0  0  -0.202762  0  2.582797  0  0  -0.189601  -0.170459  0  2.57561  0
O  O117  1  0.11730556  0.76731060  0.65920195  1  0  -0.814641  0  1.890367  0  0  -0.757692  0  2.091059  0  0  -0.779102  0  2.064211  0  0  -0.581601  -0.742525  0  2.109848  0
O  O118  1  0.88270118  0.23269005  0.34080121  1  0  -0.814576  0  1.890392  0  0  -0.757637  0  2.091108  0  0  -0.779036  0  2.064285  0  0  -0.581581  -0.742463  0  2.109888  0
