# generated using pymatgen
data_H6Pb2C9O8
_symmetry_space_group_name_H-M   'P 1'
_cell_length_a   7.74243928
_cell_length_b   7.64548436
_cell_length_c   10.90916998
_cell_angle_alpha   69.08545654
_cell_angle_beta   69.67472547
_cell_angle_gamma   88.08043766
_symmetry_Int_Tables_number   1
_chemical_formula_structural   H6Pb2C9O8
_chemical_formula_sum   'H12 Pb4 C18 O16'
_cell_volume   562.63219593
_cell_formula_units_Z   2
loop_
 _symmetry_equiv_pos_site_id
 _symmetry_equiv_pos_as_xyz
  1  'x, y, z'
loop_
 _atom_site_type_symbol
 _atom_site_label
 _atom_site_symmetry_multiplicity
 _atom_site_fract_x
 _atom_site_fract_y
 _atom_site_fract_z
 _atom_site_occupancy
 _atom_site_hle17_bader_spin_density
 _atom_site_hle17_ddec_charge
 _atom_site_hle17_ddec_spin_density
 _atom_site_hle17_ddec_sum_bond_order
 _atom_site_hle17_magmom
 _atom_site_hse06_10hf_bader_spin_density
 _atom_site_hse06_10hf_ddec_charge
 _atom_site_hse06_10hf_ddec_spin_density
 _atom_site_hse06_10hf_ddec_sum_bond_order
 _atom_site_hse06_10hf_magmom
 _atom_site_hse06_bader_spin_density
 _atom_site_hse06_ddec_charge
 _atom_site_hse06_ddec_spin_density
 _atom_site_hse06_ddec_sum_bond_order
 _atom_site_hse06_magmom
 _atom_site_pbe_bader_spin_density
 _atom_site_pbe_cm5_charge
 _atom_site_pbe_ddec_charge
 _atom_site_pbe_ddec_spin_density
 _atom_site_pbe_ddec_sum_bond_order
 _atom_site_pbe_magmom
H  H0  1  0.27128675  0.93746872  0.43242538  1  0  0.091486  0  0.969082  0  0  0.099302  0  1.041183  0  0  0.10313  0  1.037497  0  0  0.106705  0.096467  0  1.044032  0
H  H1  1  0.72864494  0.06256359  0.56756614  1  0  0.091354  0  0.969146  0  0  0.099168  0  1.041243  0  0  0.102996  0  1.037557  0  0  0.1067  0.096318  0  1.044118  0
H  H2  1  0.35835426  0.35247988  0.59378442  1  0  0.120365  0  0.948642  0  0  0.125858  0  1.017848  0  0  0.130394  0  1.013582  0  0  0.109927  0.122594  0  1.020925  0
H  H3  1  0.64167839  0.64750480  0.40621686  1  0  0.120304  0  0.948701  0  0  0.125854  0  1.017841  0  0  0.130387  0  1.013583  0  0  0.10992  0.122589  0  1.02092  0
H  H4  1  0.92778356  0.89309392  0.85062895  1  0  0.10489  0  0.987462  0  0  0.107197  0  1.064139  0  0  0.111884  0  1.059743  0  0  0.104255  0.103831  0  1.067251  0
H  H5  1  0.07221471  0.10692017  0.14937871  1  0  0.104849  0  0.987555  0  0  0.107227  0  1.064135  0  0  0.111905  0  1.059755  0  0  0.104281  0.103858  0  1.067248  0
H  H6  1  0.50861642  0.20856456  0.01862484  1  0  0.40711  0  0.901045  0  0  0.378575  0  0.961798  0  0  0.390623  0  0.944799  0  0  0.281957  0.369993  0  0.973834  0
H  H7  1  0.49142099  0.79141171  0.98137281  1  0  0.407113  0  0.901046  0  0  0.378573  0  0.961805  0  0  0.390623  0  0.9448  0  0  0.281896  0.369989  0  0.973844  0
H  H8  1  0.52268960  0.96200777  0.78159727  1  0  0.420881  0  0.889881  0  0  0.389054  0  0.956066  0  0  0.400082  0  0.940215  0  0  0.28945  0.381283  0  0.967216  0
H  H9  1  0.47728123  0.03797539  0.21840173  1  0  0.420713  0  0.89013  0  0  0.389037  0  0.956074  0  0  0.400037  0  0.940251  0  0  0.289457  0.381263  0  0.967227  0
H  H10  1  0.41273344  0.07892389  0.87207979  1  0  0.418875  0  0.889433  0  0  0.385078  0  0.958239  0  0  0.396563  0  0.941825  0  0  0.287198  0.376997  0  0.969735  0
H  H11  1  0.58726743  0.92105929  0.12792670  1  0  0.418963  0  0.889292  0  0  0.385133  0  0.958162  0  0  0.396622  0  0.941738  0  0  0.2872  0.377046  0  0.969668  0
Pb  Pb12  1  0.71952277  0.49187324  0.04853051  1  0  1.315554  0  1.459833  0  0  1.13256  0  1.848027  0  0  1.190869  0  1.80795  0  0  0.62208  1.08989  0  1.877139  0
Pb  Pb13  1  0.28050374  0.50809170  0.95148082  1  0  1.315524  0  1.45995  0  0  1.132538  0  1.848159  0  0  1.190847  0  1.808075  0  0  0.622084  1.089866  0  1.87728  0
Pb  Pb14  1  0.76585806  0.34955342  0.72501339  1  0  1.368793  0  1.363334  0  0  1.201872  0  1.737692  0  0  1.259942  0  1.697548  0  0  0.646887  1.159736  0  1.766148  0
Pb  Pb15  1  0.23414748  0.65044809  0.27498192  1  0  1.368755  0  1.363322  0  0  1.201832  0  1.737673  0  0  1.259906  0  1.697535  0  0  0.646884  1.159691  0  1.766151  0
C  C16  1  0.09050998  0.89491132  0.64309346  1  0  -0.060567  0  3.748234  0  0  -0.033651  0  3.984397  0  0  -0.042906  0  4.006774  0  0  -0.015651  -0.027816  0  3.969496  0
C  C17  1  0.90946669  0.10510557  0.35690949  1  0  -0.06079  0  3.748393  0  0  -0.03395  0  3.984745  0  0  -0.043212  0  4.007113  0  0  -0.015789  -0.028112  0  3.96984  0
C  C18  1  0.23456884  0.99173300  0.51676752  1  0  -0.042595  0  3.673616  0  0  -0.083806  0  3.925534  0  0  -0.07943  0  3.942146  0  0  -0.071837  -0.086493  0  3.914482  0
C  C19  1  0.76539340  0.00828952  0.48322832  1  0  -0.042281  0  3.673088  0  0  -0.083486  0  3.925185  0  0  -0.079104  0  3.941791  0  0  -0.07178  -0.086197  0  3.914162  0
C  C20  1  0.32651876  0.15922377  0.49714524  1  0  -0.066305  0  3.756293  0  0  -0.039963  0  3.995757  0  0  -0.049137  0  4.017565  0  0  -0.01486  -0.034227  0  3.981343  0
C  C21  1  0.67347329  0.84078053  0.50285168  1  0  -0.066482  0  3.756155  0  0  -0.040156  0  3.995706  0  0  -0.049333  0  4.017504  0  0  -0.014865  -0.034404  0  3.981259  0
C  C22  1  0.28365038  0.22398195  0.60808500  1  0  -0.061067  0  3.656512  0  0  -0.099597  0  3.907523  0  0  -0.095614  0  3.922741  0  0  -0.068453  -0.101982  0  3.897327  0
C  C23  1  0.71636154  0.77601534  0.39191442  1  0  -0.061042  0  3.656449  0  0  -0.099607  0  3.907525  0  0  -0.095619  0  3.922737  0  0  -0.068497  -0.101999  0  3.897333  0
C  C24  1  0.14308036  0.12459182  0.73624074  1  0  -0.077764  0  3.771639  0  0  -0.047319  0  4.004569  0  0  -0.055386  0  4.025733  0  0  -0.013872  -0.042291  0  3.990488  0
C  C25  1  0.85692961  0.87541390  0.26375888  1  0  -0.077546  0  3.771512  0  0  -0.047169  0  4.004493  0  0  -0.055238  0  4.025644  0  0  -0.013787  -0.042143  0  3.990418  0
C  C26  1  0.04175836  0.96452821  0.75201601  1  0  -0.092332  0  3.701355  0  0  -0.127361  0  3.951651  0  0  -0.124952  0  3.969485  0  0  -0.076299  -0.128483  0  3.939628  0
C  C27  1  0.95823696  0.03548308  0.24798848  1  0  -0.092246  0  3.701473  0  0  -0.127234  0  3.951673  0  0  -0.12485  0  3.969567  0  0  -0.076251  -0.128348  0  3.939641  0
C  C28  1  0.99051314  0.71823063  0.65977983  1  0  0.648017  0  3.92462  0  0  0.596782  0  4.214321  0  0  0.631757  0  4.208884  0  0  0.208244  0.57296  0  4.217146  0
C  C29  1  0.00946620  0.28178487  0.34022008  1  0  0.64792  0  3.924781  0  0  0.596688  0  4.214531  0  0  0.631669  0  4.209086  0  0  0.208246  0.572864  0  4.217362  0
C  C30  1  0.46569036  0.27363639  0.35692561  1  0  0.658612  0  3.898656  0  0  0.603233  0  4.188663  0  0  0.637947  0  4.183158  0  0  0.217626  0.579719  0  4.191409  0
C  C31  1  0.53431019  0.72635667  0.64307391  1  0  0.658685  0  3.898943  0  0  0.603311  0  4.188912  0  0  0.638039  0  4.183408  0  0  0.217742  0.579801  0  4.191649  0
C  C32  1  0.10009901  0.19448658  0.85523981  1  0  0.680468  0  3.876391  0  0  0.623649  0  4.173459  0  0  0.659165  0  4.165633  0  0  0.223203  0.599288  0  4.178061  0
C  C33  1  0.89992028  0.80551634  0.14476103  1  0  0.680215  0  3.876712  0  0  0.623503  0  4.173613  0  0  0.659026  0  4.165786  0  0  0.223195  0.599143  0  4.178219  0
O  O34  1  0.54677596  0.34298032  0.95483514  1  0  -0.939701  0  1.758392  0  0  -0.816261  0  1.966926  0  0  -0.855707  0  1.942952  0  0  -0.502447  -0.787908  0  1.98329  0
O  O35  1  0.45325208  0.65700010  0.04517197  1  0  -0.939689  0  1.758287  0  0  -0.816206  0  1.966735  0  0  -0.85567  0  1.942785  0  0  -0.502354  -0.787836  0  1.983082  0
O  O36  1  0.83808087  0.65065675  0.76600862  1  0  -0.688554  0  2.017833  0  0  -0.609668  0  2.256315  0  0  -0.642316  0  2.250505  0  0  -0.298381  -0.586576  0  2.259666  0
O  O37  1  0.16190723  0.34935032  0.23399406  1  0  -0.688569  0  2.017978  0  0  -0.609637  0  2.256406  0  0  -0.642283  0  2.250592  0  0  -0.298339  -0.586544  0  2.259764  0
O  O38  1  0.53471158  0.02575278  0.84424087  1  0  -0.856013  0  1.843016  0  0  -0.790931  0  2.021673  0  0  -0.815469  0  1.99015  0  0  -0.566909  -0.773514  0  2.043548  0
O  O39  1  0.46528803  0.97422905  0.15575250  1  0  -0.855885  0  1.843195  0  0  -0.790926  0  2.021776  0  0  -0.815427  0  1.9903  0  0  -0.566886  -0.773504  0  2.043659  0
O  O40  1  0.05629587  0.64170638  0.57009371  1  0  -0.685113  0  1.971873  0  0  -0.622301  0  2.206458  0  0  -0.653679  0  2.20387  0  0  -0.303879  -0.600243  0  2.207966  0
O  O41  1  0.94367920  0.35832040  0.42989709  1  0  -0.684943  0  1.971842  0  0  -0.622137  0  2.206445  0  0  -0.653512  0  2.203851  0  0  -0.303888  -0.600078  0  2.207958  0
O  O42  1  0.54304728  0.19523258  0.26909978  1  0  -0.649397  0  2.064382  0  0  -0.574687  0  2.296213  0  0  -0.606003  0  2.292386  0  0  -0.289627  -0.552649  0  2.298185  0
O  O43  1  0.45692533  0.80475480  0.73089866  1  0  -0.649369  0  2.064489  0  0  -0.574639  0  2.296408  0  0  -0.605951  0  2.292521  0  0  -0.289595  -0.552605  0  2.29838  0
O  O44  1  0.50152908  0.44940283  0.32753723  1  0  -0.67985  0  1.975392  0  0  -0.606008  0  2.210315  0  0  -0.636842  0  2.203361  0  0  -0.298392  -0.584183  0  2.214254  0
O  O45  1  0.49850351  0.55058182  0.67246773  1  0  -0.679914  0  1.975493  0  0  -0.606047  0  2.210434  0  0  -0.636883  0  2.203468  0  0  -0.298493  -0.584227  0  2.214376  0
O  O46  1  0.21964583  0.18312802  0.91262297  1  0  -0.640024  0  2.025705  0  0  -0.568087  0  2.25248  0  0  -0.597402  0  2.243979  0  0  -0.287107  -0.54706  0  2.257679  0
O  O47  1  0.78037302  0.81687067  0.08737995  1  0  -0.640045  0  2.02585  0  0  -0.568073  0  2.252526  0  0  -0.597391  0  2.244004  0  0  -0.287074  -0.547045  0  2.257726  0
O  O48  1  0.94739835  0.26488818  0.89103965  1  0  -0.695748  0  2.031091  0  0  -0.623601  0  2.272573  0  0  -0.65759  0  2.268822  0  0  -0.289896  -0.599401  0  2.274613  0
O  O49  1  0.05262736  0.73512460  0.10896088  1  0  -0.695614  0  2.031185  0  0  -0.623518  0  2.272628  0  0  -0.657506  0  2.26887  0  0  -0.289929  -0.599318  0  2.274674  0
