# generated using pymatgen
data_ZnH6C4SN
_symmetry_space_group_name_H-M   'P 1'
_cell_length_a   6.15487212
_cell_length_b   6.44231687
_cell_length_c   12.76986869
_cell_angle_alpha   104.58719642
_cell_angle_beta   90.00016965
_cell_angle_gamma   90.00037146
_symmetry_Int_Tables_number   1
_chemical_formula_structural   ZnH6C4SN
_chemical_formula_sum   'Zn4 H24 C16 S4 N4'
_cell_volume   490.02436198
_cell_formula_units_Z   4
loop_
 _symmetry_equiv_pos_site_id
 _symmetry_equiv_pos_as_xyz
  1  'x, y, z'
loop_
 _atom_site_type_symbol
 _atom_site_label
 _atom_site_symmetry_multiplicity
 _atom_site_fract_x
 _atom_site_fract_y
 _atom_site_fract_z
 _atom_site_occupancy
 _atom_site_hle17_bader_spin_density
 _atom_site_hle17_ddec_charge
 _atom_site_hle17_ddec_spin_density
 _atom_site_hle17_ddec_sum_bond_order
 _atom_site_hle17_magmom
 _atom_site_hse06_10hf_bader_spin_density
 _atom_site_hse06_10hf_ddec_charge
 _atom_site_hse06_10hf_ddec_spin_density
 _atom_site_hse06_10hf_ddec_sum_bond_order
 _atom_site_hse06_10hf_magmom
 _atom_site_hse06_bader_spin_density
 _atom_site_hse06_ddec_charge
 _atom_site_hse06_ddec_spin_density
 _atom_site_hse06_ddec_sum_bond_order
 _atom_site_hse06_magmom
 _atom_site_pbe_bader_spin_density
 _atom_site_pbe_cm5_charge
 _atom_site_pbe_ddec_charge
 _atom_site_pbe_ddec_spin_density
 _atom_site_pbe_ddec_sum_bond_order
 _atom_site_pbe_magmom
Zn  Zn0  1  0.78561080  0.92576055  0.56185834  1  0  0.773386  0  2.224118  0  0  0.634977  0  2.682386  0  0  0.666022  0  2.650638  0  0  0.431655  0.613188  0  2.704465  0
Zn  Zn1  1  0.28561315  0.07424081  0.43813901  1  0  0.773397  0  2.224114  0  0  0.634964  0  2.682441  0  0  0.66601  0  2.650692  0  0  0.431669  0.613181  0  2.704517  0
Zn  Zn2  1  0.78573830  0.36390333  0.43818283  1  0  0.772986  0  2.223318  0  0  0.634581  0  2.681368  0  0  0.665629  0  2.649694  0  0  0.431682  0.612849  0  2.703356  0
Zn  Zn3  1  0.28573911  0.63610123  0.56181572  1  0  0.772987  0  2.223411  0  0  0.634579  0  2.681476  0  0  0.665622  0  2.649798  0  0  0.431672  0.612843  0  2.703456  0
H  H4  1  0.71604857  0.12387103  0.99997842  1  0  0.092036  0  0.981468  0  0  0.103002  0  1.046431  0  0  0.104926  0  1.047533  0  0  0.096943  0.10147  0  1.046017  0
H  H5  1  0.21606120  0.87612666  0.00001682  1  0  0.092005  0  0.981322  0  0  0.102971  0  1.046304  0  0  0.104863  0  1.047499  0  0  0.096952  0.101441  0  1.045887  0
H  H6  1  0.09787515  0.10036324  0.68345252  1  0  0.274065  0  0.964542  0  0  0.264032  0  1.024473  0  0  0.269735  0  1.021228  0  0  0.257436  0.259873  0  1.026931  0
H  H7  1  0.59788040  0.89963997  0.31655037  1  0  0.274107  0  0.964545  0  0  0.264103  0  1.024402  0  0  0.269806  0  1.021157  0  0  0.257497  0.259946  0  1.026859  0
H  H8  1  0.09796091  0.41704546  0.31646778  1  0  0.27397  0  0.964254  0  0  0.263738  0  1.024749  0  0  0.269446  0  1.021501  0  0  0.257105  0.259566  0  1.027256  0
H  H9  1  0.59796848  0.58295780  0.68353120  1  0  0.274043  0  0.964121  0  0  0.263778  0  1.024643  0  0  0.269492  0  1.021379  0  0  0.257095  0.259604  0  1.027157  0
H  H10  1  0.91216738  0.29150515  0.69885547  1  0  0.277882  0  0.921362  0  0  0.269066  0  0.980236  0  0  0.274501  0  0.976797  0  0  0.272314  0.264872  0  0.983294  0
H  H11  1  0.41216662  0.70849544  0.30114425  1  0  0.2779  0  0.92136  0  0  0.269086  0  0.980237  0  0  0.274522  0  0.976797  0  0  0.272322  0.264894  0  0.983291  0
H  H12  1  0.91207099  0.59262607  0.30102203  1  0  0.277531  0  0.921216  0  0  0.268826  0  0.97994  0  0  0.274258  0  0.976516  0  0  0.272321  0.264634  0  0.983007  0
H  H13  1  0.41207292  0.40737935  0.69897675  1  0  0.277559  0  0.921276  0  0  0.268865  0  0.979955  0  0  0.274297  0  0.976533  0  0  0.272315  0.264673  0  0.98302  0
H  H14  1  0.86642076  0.90381383  0.78150491  1  0  0.062931  0  0.963228  0  0  0.081163  0  1.029097  0  0  0.081135  0  1.029917  0  0  0.094237  0.081103  0  1.028614  0
H  H15  1  0.36642963  0.09618647  0.21849317  1  0  0.062901  0  0.963237  0  0  0.08114  0  1.029107  0  0  0.081112  0  1.029928  0  0  0.094239  0.081083  0  1.028617  0
H  H16  1  0.86612166  0.12231428  0.21868507  1  0  0.062927  0  0.964305  0  0  0.080744  0  1.03001  0  0  0.080751  0  1.030814  0  0  0.094097  0.08066  0  1.029508  0
H  H17  1  0.36613732  0.87768919  0.78131654  1  0  0.062947  0  0.964317  0  0  0.080771  0  1.030029  0  0  0.080777  0  1.030834  0  0  0.09412  0.080683  0  1.029539  0
H  H18  1  0.68835105  0.12359205  0.80952894  1  0  0.068768  0  0.923152  0  0  0.087306  0  0.985679  0  0  0.087482  0  0.986172  0  0  0.101645  0.087005  0  0.985622  0
H  H19  1  0.18836033  0.87640546  0.19046547  1  0  0.068747  0  0.923225  0  0  0.08732  0  0.985706  0  0  0.087499  0  0.986197  0  0  0.101632  0.08701  0  0.98566  0
H  H20  1  0.68826638  0.31416533  0.19048544  1  0  0.068911  0  0.92325  0  0  0.087062  0  0.985732  0  0  0.087264  0  0.986267  0  0  0.101625  0.086839  0  0.985474  0
H  H21  1  0.18827928  0.68584015  0.80951392  1  0  0.068937  0  0.923129  0  0  0.087086  0  0.985624  0  0  0.087288  0  0.986156  0  0  0.101628  0.086869  0  0.985368  0
H  H22  1  0.28136665  0.24513670  0.82598334  1  0  0.079471  0  0.986982  0  0  0.088519  0  1.05698  0  0  0.091879  0  1.054685  0  0  0.08989  0.085906  0  1.059071  0
H  H23  1  0.78136972  0.75485656  0.17401687  1  0  0.079435  0  0.987018  0  0  0.088485  0  1.057025  0  0  0.091844  0  1.054731  0  0  0.089896  0.085872  0  1.059118  0
H  H24  1  0.28143126  0.41845704  0.17409527  1  0  0.078644  0  0.987837  0  0  0.088016  0  1.057501  0  0  0.091352  0  1.055253  0  0  0.089565  0.085429  0  1.059536  0
H  H25  1  0.78144321  0.58153942  0.82590614  1  0  0.078655  0  0.987831  0  0  0.088014  0  1.057494  0  0  0.091341  0  1.05527  0  0  0.089601  0.085444  0  1.059506  0
H  H26  1  0.46979181  0.39268187  0.00005750  1  0  0.077956  0  1.005762  0  0  0.087843  0  1.070022  0  0  0.089098  0  1.071672  0  0  0.094113  0.086826  0  1.069136  0
H  H27  1  0.96979397  0.60731425  0.99994718  1  0  0.077907  0  1.005857  0  0  0.087826  0  1.070086  0  0  0.089083  0  1.071731  0  0  0.094109  0.086812  0  1.069201  0
C  C28  1  0.88227568  0.18325679  0.00000226  1  0  -0.17533  0  3.729623  0  0  -0.200464  0  3.971025  0  0  -0.205194  0  3.993266  0  0  -0.096253  -0.197386  0  3.956325  0
C  C29  1  0.38228616  0.81674359  0.99999741  1  0  -0.175156  0  3.729591  0  0  -0.200334  0  3.970911  0  0  -0.205093  0  3.993122  0  0  -0.096248  -0.197256  0  3.95621  0
C  C30  1  0.98452022  0.17463596  0.90107621  1  0  0.067815  0  3.752067  0  0  0.092538  0  3.987156  0  0  0.09346  0  4.010388  0  0  -0.014086  0.092008  0  3.971181  0
C  C31  1  0.48453003  0.82536034  0.09892146  1  0  0.067654  0  3.752268  0  0  0.092488  0  3.987185  0  0  0.093413  0  4.01042  0  0  -0.01406  0.091956  0  3.971214  0
C  C32  1  0.98450110  0.27315866  0.09894569  1  0  0.067128  0  3.753523  0  0  0.091584  0  3.988093  0  0  0.092525  0  4.011384  0  0  -0.014239  0.091006  0  3.972131  0
C  C33  1  0.48451666  0.72684081  0.90105474  1  0  0.066957  0  3.753747  0  0  0.091514  0  3.988172  0  0  0.092527  0  4.011366  0  0  -0.014238  0.090943  0  3.972215  0
C  C34  1  0.86108068  0.08017122  0.79790790  1  0  0.036942  0  3.670114  0  0  -0.025398  0  3.923851  0  0  -0.021121  0  3.93553  0  0  -0.074318  -0.028194  0  3.915652  0
C  C35  1  0.36108874  0.91982904  0.20209016  1  0  0.037027  0  3.670181  0  0  -0.025383  0  3.923937  0  0  -0.021109  0  3.935622  0  0  -0.074324  -0.028172  0  3.91574  0
C  C36  1  0.86095227  0.28219596  0.20215390  1  0  0.036759  0  3.672658  0  0  -0.023631  0  3.923484  0  0  -0.019545  0  3.935451  0  0  -0.073834  -0.026236  0  3.914919  0
C  C37  1  0.36096531  0.71780750  0.79784536  1  0  0.036779  0  3.672615  0  0  -0.023689  0  3.923495  0  0  -0.019617  0  3.935439  0  0  -0.073863  -0.026319  0  3.914978  0
C  C38  1  0.19747408  0.25089161  0.90200478  1  0  -0.135809  0  3.74972  0  0  -0.157087  0  3.997867  0  0  -0.161096  0  4.018149  0  0  -0.104677  -0.154171  0  3.984021  0
C  C39  1  0.69747813  0.74910753  0.09799298  1  0  -0.135718  0  3.749959  0  0  -0.157036  0  3.998062  0  0  -0.161047  0  4.018348  0  0  -0.104683  -0.154118  0  3.984216  0
C  C40  1  0.19748745  0.34849149  0.09806677  1  0  -0.13533  0  3.748652  0  0  -0.156928  0  3.996789  0  0  -0.160945  0  4.017117  0  0  -0.104533  -0.154005  0  3.983044  0
C  C41  1  0.69749564  0.65150121  0.90193250  1  0  -0.13524  0  3.748596  0  0  -0.156853  0  3.996716  0  0  -0.160895  0  4.017023  0  0  -0.10459  -0.15394  0  3.982961  0
C  C42  1  0.30384665  0.33459328  0.00005098  1  0  -0.059922  0  3.809775  0  0  -0.070448  0  4.057203  0  0  -0.070006  0  4.078728  0  0  -0.09493  -0.070585  0  4.042532  0
C  C43  1  0.80385247  0.66540492  0.99995146  1  0  -0.059881  0  3.809828  0  0  -0.070451  0  4.057254  0  0  -0.070006  0  4.07878  0  0  -0.094929  -0.070591  0  4.042594  0
S  S44  1  0.91520021  0.00993860  0.40778445  1  0  -0.877487  0  2.165304  0  0  -0.763098  0  2.617566  0  0  -0.790787  0  2.588612  0  0  -0.422184  -0.742873  0  2.637742  0
S  S45  1  0.41520215  0.99006685  0.59221355  1  0  -0.877553  0  2.165399  0  0  -0.763154  0  2.617691  0  0  -0.790842  0  2.588732  0  0  -0.422191  -0.742907  0  2.637828  0
S  S46  1  0.91529891  0.60220880  0.59218887  1  0  -0.8778  0  2.165358  0  0  -0.763098  0  2.617543  0  0  -0.790831  0  2.588636  0  0  -0.422188  -0.742859  0  2.637686  0
S  S47  1  0.41529680  0.39779665  0.40780993  1  0  -0.877753  0  2.16534  0  0  -0.763063  0  2.617514  0  0  -0.790799  0  2.588617  0  0  -0.422189  -0.742826  0  2.637656  0
N  N48  1  0.93483504  0.13338374  0.69846531  1  0  -0.59462  0  3.172917  0  0  -0.531537  0  3.411279  0  0  -0.550089  0  3.411652  0  0  -0.631952  -0.518554  0  3.411296  0
N  N49  1  0.43483865  0.86661862  0.30153388  1  0  -0.594717  0  3.17299  0  0  -0.531645  0  3.411397  0  0  -0.550195  0  3.41177  0  0  -0.632013  -0.51866  0  3.411412  0
N  N50  1  0.93489626  0.43495718  0.30147299  1  0  -0.593788  0  3.172871  0  0  -0.531278  0  3.41053  0  0  -0.549805  0  3.411001  0  0  -0.631431  -0.518357  0  3.410421  0
N  N51  1  0.43490254  0.56504680  0.69852485  1  0  -0.593947  0  3.172981  0  0  -0.531411  0  3.41067  0  0  -0.549937  0  3.411132  0  0  -0.63142  -0.518481  0  3.410572  0
