# generated using pymatgen
data_NaCuPH8C2SO8
_symmetry_space_group_name_H-M   'P 1'
_cell_length_a   7.51443677
_cell_length_b   7.66922076
_cell_length_c   14.60842993
_cell_angle_alpha   89.99999664
_cell_angle_beta   92.90276590
_cell_angle_gamma   89.99994485
_symmetry_Int_Tables_number   1
_chemical_formula_structural   NaCuPH8C2SO8
_chemical_formula_sum   'Na4 Cu4 P4 H32 C8 S4 O32'
_cell_volume   840.80177573
_cell_formula_units_Z   4
loop_
 _symmetry_equiv_pos_site_id
 _symmetry_equiv_pos_as_xyz
  1  'x, y, z'
loop_
 _atom_site_type_symbol
 _atom_site_label
 _atom_site_symmetry_multiplicity
 _atom_site_fract_x
 _atom_site_fract_y
 _atom_site_fract_z
 _atom_site_occupancy
 _atom_site_hle17_ddec_charge
 _atom_site_hle17_ddec_spin_density
 _atom_site_hle17_ddec_sum_bond_order
 _atom_site_hle17_magmom
 _atom_site_hse06_10hf_ddec_charge
 _atom_site_hse06_10hf_ddec_spin_density
 _atom_site_hse06_10hf_ddec_sum_bond_order
 _atom_site_hse06_10hf_magmom
 _atom_site_hse06_ddec_charge
 _atom_site_hse06_ddec_spin_density
 _atom_site_hse06_ddec_sum_bond_order
 _atom_site_hse06_magmom
 _atom_site_pbe_cm5_charge
 _atom_site_pbe_ddec_charge
 _atom_site_pbe_ddec_spin_density
 _atom_site_pbe_ddec_sum_bond_order
 _atom_site_pbe_magmom
Na  Na0  1  0.07041141  0.68513732  0.96154857  1  0.906213  -1.9e-05  0.384507  0.0  0.86999  -7e-06  0.529917  0.0  0.879009  2e-06  0.509518  0.0  0.719431  0.863237  -2.4e-05  0.54461  0.0
Na  Na1  1  0.42958955  0.18513595  0.03845258  1  0.906209  -1.9e-05  0.384513  0.0  0.869985  -7e-06  0.52992  0.0  0.879004  2e-06  0.509518  0.0  0.719434  0.863237  -2.4e-05  0.544617  0.0
Na  Na2  1  0.92958740  0.31486206  0.03845328  1  0.906213  -1.9e-05  0.384517  0.0  0.869983  -7e-06  0.529931  0.0  0.879006  2e-06  0.509534  0.0  0.719424  0.863231  -2.4e-05  0.544626  0.0
Na  Na3  1  0.57041324  0.81486213  0.96154662  1  0.906211  -1.9e-05  0.384514  0.0  0.869988  -7e-06  0.529919  0.0  0.879009  2e-06  0.509518  0.0  0.719429  0.863237  -2.4e-05  0.544615  0.0
Cu  Cu4  1  0.93254791  0.19273880  0.52739495  1  1.102166  -0.709125  1.595892  -0.55  1.111798  -0.807498  1.971109  -0.678  1.190247  -0.863841  1.91512  -0.759  0.735863  1.051431  -0.76559  2.023903  -0.623
Cu  Cu5  1  0.56745019  0.69273762  0.47260490  1  1.102167  -0.709121  1.595981  -0.55  1.111806  -0.807493  1.971183  -0.678  1.190262  -0.863838  1.915194  -0.759  0.735886  1.051467  -0.765597  2.023973  -0.623
Cu  Cu6  1  0.06744954  0.80726318  0.47260344  1  1.102117  -0.709117  1.596041  -0.55  1.111775  -0.807491  1.971208  -0.678  1.190237  -0.863837  1.915208  -0.759  0.73587  1.05144  -0.765592  2.024008  -0.623
Cu  Cu7  1  0.43254861  0.30726175  0.52739490  1  1.102154  -0.709123  1.595972  -0.55  1.1118  -0.807497  1.971185  -0.678  1.190248  -0.863838  1.91519  -0.759  0.73586  1.051432  -0.765592  2.02398  -0.623
P  P8  1  0.86220873  0.55388373  0.60693545  1  1.507989  -0.002015  4.760891  0.002  1.374228  -0.008767  5.265355  -0.005  1.431257  -0.006071  5.223594  -0.004  0.335788  1.334094  -0.01119  5.291257  -0.005
P  P9  1  0.63779083  0.05388129  0.39306375  1  1.507891  -0.002018  4.761019  0.002  1.374138  -0.008767  5.265486  -0.005  1.431165  -0.006073  5.223727  -0.004  0.335755  1.333987  -0.01119  5.291426  -0.005
P  P10  1  0.13779006  0.44611825  0.39306366  1  1.507915  -0.002011  4.760952  0.002  1.374159  -0.008767  5.265428  -0.005  1.431182  -0.00607  5.223679  -0.004  0.335756  1.334008  -0.01119  5.291344  -0.005
P  P11  1  0.36220796  0.94611808  0.60693604  1  1.507949  -0.002002  4.76088  0.002  1.374185  -0.008767  5.265362  -0.005  1.431217  -0.00607  5.223594  -0.004  0.335785  1.33404  -0.01119  5.291302  -0.005
H  H12  1  0.71107536  0.07082560  0.63051885  1  0.432299  0.001066  0.863312  0.002  0.404114  0.000126  0.9278  0.0  0.416301  0.000369  0.910354  0.001  0.295931  0.395455  -0.000153  0.940157  0.0
H  H13  1  0.78892152  0.57082423  0.36948029  1  0.432308  0.001066  0.863312  0.002  0.404104  0.000125  0.927819  0.0  0.416292  0.000369  0.910371  0.001  0.295922  0.39544  -0.000153  0.940183  0.0
H  H14  1  0.28892209  0.92917638  0.36947954  1  0.4323  0.001066  0.863318  0.002  0.404095  0.000126  0.927831  0.0  0.416283  0.000368  0.910383  0.001  0.295917  0.395434  -0.000153  0.940189  0.0
H  H15  1  0.21107460  0.42917385  0.63051876  1  0.432311  0.001066  0.8633  0.002  0.404123  0.000126  0.927789  0.0  0.41631  0.000369  0.910343  0.001  0.295924  0.395462  -0.000153  0.940149  0.0
H  H16  1  0.87471716  0.94025936  0.62214920  1  0.432865  0.001097  0.842175  0.002  0.408752  -8.3e-05  0.90789  0.0  0.419349  0.000122  0.896922  0.0  0.301129  0.401106  -0.000296  0.915154  0.0
H  H17  1  0.62528068  0.44025693  0.37784995  1  0.432855  0.0011  0.842174  0.002  0.408746  -8.3e-05  0.90788  0.0  0.419343  0.000122  0.896923  0.0  0.301118  0.401098  -0.000296  0.915145  0.0
H  H18  1  0.12528162  0.05974393  0.37784991  1  0.432859  0.001099  0.842138  0.002  0.408738  -8.3e-05  0.907858  0.0  0.419335  0.000122  0.896925  0.0  0.301131  0.401089  -0.000296  0.915125  0.0
H  H19  1  0.37471544  0.55974114  0.62214910  1  0.432856  0.001099  0.842195  0.002  0.408749  -8.4e-05  0.907899  0.0  0.419345  0.000122  0.896926  0.0  0.301124  0.401103  -0.000296  0.915164  0.0
H  H20  1  0.69707947  0.68516572  0.72222569  1  0.151423  -9.7e-05  0.923672  0.0  0.16626  -0.000321  0.974318  0.0  0.16877  -0.000213  0.974579  0.0  0.115352  0.164314  -0.000414  0.9745  -0.001
H  H21  1  0.80292131  0.18516444  0.27777491  1  0.151449  -9.3e-05  0.923665  0.0  0.166271  -0.000321  0.974323  0.0  0.168783  -0.000213  0.97458  0.0  0.115358  0.164327  -0.000414  0.974501  -0.001
H  H22  1  0.30292334  0.31483626  0.27777557  1  0.151449  -9.3e-05  0.923649  0.0  0.166269  -0.000321  0.974311  0.0  0.168781  -0.000213  0.97457  0.0  0.115351  0.164321  -0.000414  0.974489  -0.001
H  H23  1  0.19707748  0.81483624  0.72222420  1  0.15145  -9.3e-05  0.923655  0.0  0.166273  -0.000321  0.974312  0.0  0.168783  -0.000213  0.974572  0.0  0.115352  0.164329  -0.000414  0.974491  -0.001
H  H24  1  0.91904085  0.63136354  0.76311463  1  0.159089  0.000616  0.954323  0.0  0.170683  0.000101  1.010322  0.0  0.174465  7.5e-05  1.009095  0.0  0.115543  0.167849  0.000112  1.011542  0.0
H  H25  1  0.58095997  0.13135987  0.23688528  1  0.159125  0.000616  0.954299  0.0  0.170719  0.000101  1.01029  0.0  0.174501  7.4e-05  1.00906  0.0  0.11556  0.167885  0.000112  1.011512  0.0
H  H26  1  0.08096061  0.36863844  0.23688522  1  0.159085  0.000619  0.954351  0.0  0.170689  0.000101  1.010328  0.0  0.174471  7.5e-05  1.009101  0.0  0.115554  0.167853  0.000112  1.011541  0.0
H  H27  1  0.41903882  0.86863690  0.76311383  1  0.159079  0.000617  0.954373  0.0  0.170689  0.000101  1.010336  0.0  0.174471  7.4e-05  1.00911  0.0  0.115556  0.167858  0.000112  1.01155  0.0
H  H28  1  0.62005974  0.35915350  0.72552511  1  0.136299  0.00022  0.927902  0.0  0.148426  0.000124  0.986674  0.0  0.15046  0.000116  0.986249  0.0  0.113799  0.147025  0.000116  0.987012  0.0
H  H29  1  0.87994219  0.85915074  0.27447483  1  0.136291  0.000219  0.927903  0.0  0.148405  0.000124  0.98669  0.0  0.150442  0.000116  0.986261  0.0  0.113786  0.147004  0.000116  0.987024  0.0
H  H30  1  0.37994304  0.64084979  0.27447410  1  0.13632  0.000233  0.927881  0.0  0.14842  0.000124  0.986689  0.0  0.150456  0.000116  0.986259  0.0  0.113775  0.147019  0.000116  0.987023  0.0
H  H31  1  0.12005794  0.14084994  0.72552568  1  0.136312  0.000218  0.927864  0.0  0.148417  0.000124  0.986665  0.0  0.150453  0.000117  0.986235  0.0  0.113776  0.147018  0.000116  0.987003  0.0
H  H32  1  0.83900329  0.31726778  0.77452426  1  0.134467  0.000129  0.921818  0.0  0.147236  6.2e-05  0.978626  0.0  0.149775  5.4e-05  0.978108  0.0  0.116087  0.145344  6e-05  0.97924  0.0
H  H33  1  0.66099867  0.81726524  0.22547499  1  0.134487  0.000123  0.9218  0.0  0.147249  6.2e-05  0.978614  0.0  0.149789  5.4e-05  0.978094  0.0  0.116105  0.145357  6e-05  0.979229  0.0
H  H34  1  0.16099815  0.68273420  0.22547423  1  0.13448  0.000134  0.921817  0.0  0.147248  6.2e-05  0.978621  0.0  0.149787  5.4e-05  0.978102  0.0  0.116089  0.145355  6e-05  0.979235  0.0
H  H35  1  0.33900279  0.18273414  0.77452486  1  0.134476  0.000119  0.921802  0.0  0.147242  6.2e-05  0.978601  0.0  0.149781  5.5e-05  0.97808  0.0  0.116081  0.145352  6e-05  0.979217  0.0
H  H36  1  0.14040278  0.40942219  0.85544912  1  0.405578  2.3e-05  0.907208  0.0  0.379955  5e-06  0.965146  0.0  0.388941  3e-06  0.95193  0.0  0.286932  0.373614  3e-06  0.974456  0.0
H  H37  1  0.35959929  0.90942077  0.14455204  1  0.405607  2.3e-05  0.907167  0.0  0.379981  5e-06  0.96511  0.0  0.388968  3e-06  0.951893  0.0  0.286937  0.373645  4e-06  0.97441  0.0
H  H38  1  0.85959869  0.59057719  0.14455210  1  0.405592  2.3e-05  0.907191  0.0  0.379972  5e-06  0.965125  0.0  0.388958  3e-06  0.95191  0.0  0.286938  0.373636  3e-06  0.974426  0.0
H  H39  1  0.64040483  0.09057730  0.85544719  1  0.405585  2.3e-05  0.907217  0.0  0.379972  5e-06  0.965152  0.0  0.388944  3e-06  0.951945  0.0  0.286919  0.373632  3e-06  0.974462  0.0
H  H40  1  0.29240734  0.54078096  0.83525157  1  0.41737  -2.6e-05  0.891711  0.0  0.390556  -7.7e-05  0.950122  0.0  0.400278  -6e-05  0.935768  0.0  0.288067  0.383703  -8.9e-05  0.960243  0.0
H  H41  1  0.20759510  0.04077979  0.16475030  1  0.417429  -2.6e-05  0.891626  0.0  0.390616  -7.7e-05  0.950035  0.0  0.400337  -6e-05  0.935681  0.0  0.28809  0.383762  -8.9e-05  0.960156  0.0
H  H42  1  0.70759280  0.45921972  0.16475031  1  0.417388  -2.5e-05  0.89169  0.0  0.390579  -7.7e-05  0.950092  0.0  0.4003  -6e-05  0.935738  0.0  0.288087  0.383724  -8.9e-05  0.960216  0.0
H  H43  1  0.79241036  0.95921959  0.83524965  1  0.417354  -2.5e-05  0.891737  0.0  0.39055  -7.7e-05  0.950131  0.0  0.40027  -6.1e-05  0.935778  0.0  0.288076  0.3837  -8.9e-05  0.960245  0.0
C  C44  1  0.80065302  0.58382030  0.72373143  1  -0.417746  -0.011864  3.644316  -0.012  -0.433534  -0.006971  3.875349  -0.007  -0.445465  -0.004534  3.885038  -0.005  -0.16919  -0.425483  -0.008967  3.869566  -0.009
C  C45  1  0.69934785  0.08381782  0.27626848  1  -0.417791  -0.011874  3.644323  -0.012  -0.43355  -0.00697  3.875329  -0.007  -0.445479  -0.004532  3.885011  -0.005  -0.169168  -0.425494  -0.008966  3.869546  -0.009
C  C46  1  0.19934845  0.41618298  0.27626911  1  -0.417753  -0.01187  3.644386  -0.012  -0.433504  -0.006971  3.875386  -0.007  -0.445438  -0.004535  3.885074  -0.005  -0.169156  -0.425436  -0.008966  3.869581  -0.009
C  C47  1  0.30065094  0.91618286  0.72373131  1  -0.417775  -0.011878  3.64435  -0.012  -0.43354  -0.006971  3.875362  -0.007  -0.44547  -0.004534  3.885051  -0.005  -0.169176  -0.425486  -0.008966  3.869579  -0.009
C  C48  1  0.73368610  0.41577979  0.76547394  1  -0.248435  -0.001559  3.615774  -0.002  -0.281538  -0.001148  3.861209  -0.001  -0.286503  -0.000692  3.872003  -0.001  -0.145399  -0.278132  -0.001598  3.854135  -0.002
C  C49  1  0.76631445  0.91577715  0.23452664  1  -0.248419  -0.001547  3.615704  -0.002  -0.281538  -0.001148  3.861181  -0.001  -0.286501  -0.000692  3.871973  -0.001  -0.145408  -0.278125  -0.001598  3.854096  -0.002
C  C50  1  0.26631403  0.58422088  0.23452588  1  -0.248475  -0.001585  3.615822  -0.002  -0.281578  -0.001148  3.86129  -0.001  -0.286542  -0.000691  3.872079  -0.001  -0.145407  -0.278174  -0.001598  3.854203  -0.002
C  C51  1  0.23368702  0.08422222  0.76547459  1  -0.248442  -0.00154  3.615759  -0.002  -0.281512  -0.001149  3.861166  -0.001  -0.286475  -0.000691  3.871957  -0.001  -0.145378  -0.278107  -0.001598  3.854095  -0.002
S  S52  1  0.65220734  0.45638499  0.87616302  1  1.368002  -0.000876  5.580839  -0.001  1.276507  -0.000572  6.108502  -0.001  1.321217  -0.000325  6.084605  0.0  0.50672  1.245595  -0.000821  6.124149  -0.001
S  S53  1  0.84779316  0.95638490  0.12383688  1  1.367985  -0.000879  5.580793  -0.001  1.276492  -0.000572  6.108465  -0.001  1.321199  -0.000325  6.084566  0.0  0.506719  1.245581  -0.000821  6.124108  -0.001
S  S54  1  0.34779278  0.54361438  0.12383681  1  1.368018  -0.000876  5.580881  -0.001  1.276525  -0.000572  6.10854  -0.001  1.321237  -0.000325  6.084639  0.0  0.506717  1.245615  -0.000821  6.124183  -0.001
S  S55  1  0.15220963  0.04361448  0.87616301  1  1.36801  -0.000876  5.580951  -0.001  1.276501  -0.000572  6.108632  -0.001  1.321211  -0.000324  6.084732  0.0  0.506693  1.245588  -0.000821  6.124282  -0.001
O  O56  1  0.84517441  0.06389915  0.63631318  1  -0.772301  -0.073229  1.903982  -0.102  -0.739827  -0.051061  2.121968  -0.076  -0.774651  -0.037539  2.093315  -0.061  -0.563311  -0.715374  -0.059963  2.141977  -0.084
O  O57  1  0.65482382  0.56389790  0.36368668  1  -0.77232  -0.073228  1.904016  -0.102  -0.739819  -0.051058  2.121993  -0.076  -0.774642  -0.037537  2.093347  -0.061  -0.563301  -0.715367  -0.059961  2.14201  -0.084
O  O58  1  0.15482439  0.93610283  0.36368661  1  -0.772284  -0.073226  1.903992  -0.102  -0.739768  -0.051058  2.121996  -0.076  -0.774595  -0.037537  2.093368  -0.061  -0.563298  -0.715319  -0.059959  2.142014  -0.084
O  O59  1  0.34517498  0.43610147  0.63631312  1  -0.772304  -0.07323  1.903996  -0.102  -0.739838  -0.05106  2.121979  -0.076  -0.77466  -0.037539  2.093322  -0.061  -0.563304  -0.715383  -0.059962  2.14199  -0.084
O  O60  1  0.99524573  0.39863191  0.60334350  1  -0.846213  -0.0643  2.029621  -0.092  -0.788023  -0.040419  2.318911  -0.062  -0.826664  -0.029203  2.295452  -0.049  -0.377564  -0.759918  -0.048355  2.33446  -0.07
O  O61  1  0.50475350  0.89862950  0.39665705  1  -0.846183  -0.064301  2.029618  -0.092  -0.788006  -0.040421  2.318923  -0.062  -0.826648  -0.029205  2.295465  -0.049  -0.377587  -0.759914  -0.048355  2.334506  -0.07
O  O62  1  0.00475306  0.60137137  0.39665629  1  -0.846153  -0.064303  2.029611  -0.092  -0.787991  -0.040422  2.318925  -0.062  -0.826635  -0.029205  2.295467  -0.049  -0.377575  -0.759894  -0.048357  2.334504  -0.07
O  O63  1  0.49524662  0.10136857  0.60334209  1  -0.846191  -0.064302  2.029614  -0.092  -0.788018  -0.04042  2.318917  -0.062  -0.826658  -0.029203  2.295459  -0.049  -0.377592  -0.759895  -0.048353  2.334439  -0.07
O  O64  1  0.95037336  0.72929526  0.58240047  1  -0.853676  -0.071403  2.054693  -0.101  -0.80499  -0.043737  2.358751  -0.067  -0.844258  -0.03128  2.335231  -0.052  -0.379835  -0.775909  -0.052822  2.373672  -0.076
O  O65  1  0.54962602  0.22929029  0.41759872  1  -0.853648  -0.071396  2.054762  -0.101  -0.804967  -0.043735  2.358806  -0.067  -0.844239  -0.031278  2.335306  -0.052  -0.379813  -0.775864  -0.052819  2.373717  -0.076
O  O66  1  0.04962676  0.27070933  0.41759867  1  -0.853642  -0.071397  2.054725  -0.101  -0.804955  -0.043733  2.358772  -0.067  -0.84422  -0.031278  2.335258  -0.052  -0.379806  -0.775858  -0.052818  2.373684  -0.076
O  O67  1  0.45037276  0.77070648  0.58240039  1  -0.853644  -0.071406  2.054643  -0.101  -0.804971  -0.043738  2.358711  -0.067  -0.844234  -0.031281  2.335188  -0.052  -0.379832  -0.775887  -0.05282  2.373644  -0.076
O  O68  1  0.69247190  0.50954685  0.54678925  1  -0.894173  -0.06567  2.09224  -0.097  -0.869573  -0.038183  2.439859  -0.062  -0.907849  -0.026206  2.411279  -0.047  -0.39445  -0.839371  -0.047327  2.457229  -0.071
O  O69  1  0.80752772  0.00954815  0.45321133  1  -0.894148  -0.065672  2.092269  -0.097  -0.869539  -0.038184  2.439877  -0.062  -0.907823  -0.026206  2.411311  -0.047  -0.394442  -0.839315  -0.047327  2.457212  -0.071
O  O70  1  0.30752690  0.49045383  0.45321123  1  -0.894156  -0.065674  2.092195  -0.097  -0.86955  -0.038184  2.439817  -0.062  -0.907827  -0.026206  2.411237  -0.047  -0.394439  -0.839347  -0.047329  2.457201  -0.071
O  O71  1  0.19247241  0.99045383  0.54678918  1  -0.894156  -0.065673  2.092257  -0.097  -0.86957  -0.038183  2.439887  -0.062  -0.907846  -0.026206  2.411307  -0.047  -0.394445  -0.839369  -0.047324  2.457272  -0.071
O  O72  1  0.79964768  0.52508551  0.93634055  1  -0.778459  -0.000265  1.957128  0.0  -0.7361  -9.4e-05  2.231593  0.0  -0.753412  -2.8e-05  2.212661  0.0  -0.455128  -0.723849  -0.000188  2.244291  0.0
O  O73  1  0.70035325  0.02508566  0.06366006  1  -0.778448  -0.000263  1.957141  0.0  -0.736074  -9.4e-05  2.231571  0.0  -0.753397  -2.9e-05  2.21267  0.0  -0.455134  -0.723827  -0.000188  2.244273  0.0
O  O74  1  0.20035112  0.47491256  0.06365993  1  -0.778487  -0.000259  1.957163  0.0  -0.736122  -9.4e-05  2.231633  0.0  -0.753421  -3e-05  2.212671  0.0  -0.455134  -0.723873  -0.000188  2.244328  0.0
O  O75  1  0.29964954  0.97491502  0.93633983  1  -0.778489  -0.000266  1.957233  0.0  -0.736114  -9.4e-05  2.231684  0.0  -0.753431  -2.9e-05  2.212767  0.0  -0.455138  -0.723861  -0.000188  2.24438  0.0
O  O76  1  0.51023146  0.58775956  0.86285208  1  -0.725132  -0.000256  2.015459  0.0  -0.668409  -0.000159  2.269566  0.0  -0.688721  -7.7e-05  2.253551  0.0  -0.397409  -0.654062  -0.000262  2.280249  0.0
O  O77  1  0.98977073  0.08775812  0.13714787  1  -0.725176  -0.000252  2.015503  0.0  -0.668423  -0.000159  2.269555  0.0  -0.688735  -7.8e-05  2.253541  0.0  -0.397413  -0.654081  -0.000262  2.280241  0.0
O  O78  1  0.48976999  0.41223982  0.13714709  1  -0.72514  -0.000254  2.015436  0.0  -0.668422  -0.000159  2.269544  0.0  -0.688735  -7.8e-05  2.253526  0.0  -0.397412  -0.65408  -0.000262  2.280232  0.0
O  O79  1  0.01023074  0.91223995  0.86285336  1  -0.725143  -0.000251  2.015416  0.0  -0.668425  -0.000159  2.269535  0.0  -0.688737  -7.9e-05  2.25352  0.0  -0.39741  -0.654082  -0.000262  2.280219  0.0
O  O80  1  0.58485156  0.28837969  0.90976189  1  -0.744476  -0.001252  1.997374  -0.002  -0.695003  -0.000544  2.2602  -0.001  -0.713953  -0.000266  2.24247  0.0  -0.383804  -0.681597  -0.000884  2.272086  -0.001
O  O81  1  0.91515044  0.78838083  0.09023805  1  -0.744467  -0.001255  1.99736  -0.002  -0.694991  -0.000543  2.260166  -0.001  -0.713943  -0.000265  2.242441  0.0  -0.38381  -0.681585  -0.000884  2.272046  -0.001
O  O82  1  0.41514856  0.71161708  0.09023725  1  -0.744453  -0.001254  1.997402  -0.002  -0.694988  -0.000543  2.260249  -0.001  -0.713942  -0.000265  2.242524  0.0  -0.383786  -0.681583  -0.000884  2.27213  -0.001
O  O83  1  0.08485369  0.21161854  0.90976255  1  -0.744437  -0.001256  1.997426  -0.002  -0.69497  -0.000543  2.260273  -0.001  -0.713925  -0.000265  2.24255  0.0  -0.383752  -0.681561  -0.000884  2.272159  -0.001
O  O84  1  0.16152340  0.52881892  0.83381862  1  -0.873169  -0.001202  1.783606  -0.001  -0.831533  -0.00078  1.945052  -0.001  -0.848622  -0.000408  1.917235  0.0  -0.664565  -0.819119  -0.001352  1.964524  -0.002
O  O85  1  0.33847772  0.02881632  0.16618322  1  -0.873227  -0.001202  1.783489  -0.001  -0.831597  -0.00078  1.944944  -0.001  -0.848687  -0.000408  1.917121  0.0  -0.664587  -0.819187  -0.001352  1.964413  -0.002
O  O86  1  0.83847542  0.47118306  0.16618392  1  -0.87318  -0.001203  1.783552  -0.001  -0.831556  -0.00078  1.944988  -0.001  -0.848645  -0.000408  1.917171  0.0  -0.664585  -0.819144  -0.001352  1.964459  -0.002
O  O87  1  0.66152639  0.97118175  0.83381533  1  -0.873136  -0.001203  1.783632  -0.001  -0.831533  -0.00078  1.945027  -0.001  -0.848604  -0.000408  1.917258  0.0  -0.664554  -0.819123  -0.001352  1.964496  -0.002
