# generated using pymatgen
data_LiBH10C3O2
_symmetry_space_group_name_H-M   'P 1'
_cell_length_a   7.00914974
_cell_length_b   12.69797568
_cell_length_c   13.15588996
_cell_angle_alpha   90.00021302
_cell_angle_beta   102.31615529
_cell_angle_gamma   90.00011942
_symmetry_Int_Tables_number   1
_chemical_formula_structural   LiBH10C3O2
_chemical_formula_sum   'Li8 B8 H80 C24 O16'
_cell_volume   1143.95295846
_cell_formula_units_Z   8
loop_
 _symmetry_equiv_pos_site_id
 _symmetry_equiv_pos_as_xyz
  1  'x, y, z'
loop_
 _atom_site_type_symbol
 _atom_site_label
 _atom_site_symmetry_multiplicity
 _atom_site_fract_x
 _atom_site_fract_y
 _atom_site_fract_z
 _atom_site_occupancy
 _atom_site_hle17_bader_spin_density
 _atom_site_hle17_ddec_charge
 _atom_site_hle17_ddec_spin_density
 _atom_site_hle17_ddec_sum_bond_order
 _atom_site_hle17_magmom
 _atom_site_hse06_10hf_bader_spin_density
 _atom_site_hse06_10hf_ddec_charge
 _atom_site_hse06_10hf_ddec_spin_density
 _atom_site_hse06_10hf_ddec_sum_bond_order
 _atom_site_hse06_10hf_magmom
 _atom_site_hse06_bader_spin_density
 _atom_site_hse06_ddec_charge
 _atom_site_hse06_ddec_spin_density
 _atom_site_hse06_ddec_sum_bond_order
 _atom_site_hse06_magmom
 _atom_site_pbe_bader_spin_density
 _atom_site_pbe_cm5_charge
 _atom_site_pbe_ddec_charge
 _atom_site_pbe_ddec_spin_density
 _atom_site_pbe_ddec_sum_bond_order
 _atom_site_pbe_magmom
Li  Li0  1  0.31191286  0.79186817  0.42914380  1  0  0.829538  0  0.412407  0  0  0.78508  0  0.520564  0  0  0.792217  0  0.510067  0  0  0.437088  0.780042  0  0.527952  0
Li  Li1  1  0.18808595  0.29186645  0.07085686  1  0  0.829519  0  0.412433  0  0  0.785079  0  0.520556  0  0  0.792217  0  0.510058  0  0  0.437085  0.780042  0  0.527944  0
Li  Li2  1  0.68808893  0.20813230  0.57085662  1  0  0.829531  0  0.412417  0  0  0.78509  0  0.520547  0  0  0.792226  0  0.51005  0  0  0.437085  0.780053  0  0.527933  0
Li  Li3  1  0.81191292  0.70813323  0.92914323  1  0  0.82952  0  0.412432  0  0  0.785074  0  0.520571  0  0  0.792212  0  0.510072  0  0  0.437078  0.780037  0  0.527958  0
Li  Li4  1  0.87075075  0.02925127  0.22357304  1  0  0.831041  0  0.413722  0  0  0.788344  0  0.51951  0  0  0.795326  0  0.50926  0  0  0.44134  0.783427  0  0.526704  0
Li  Li5  1  0.62924960  0.52925061  0.27642761  1  0  0.831033  0  0.413732  0  0  0.788336  0  0.519514  0  0  0.795318  0  0.509264  0  0  0.441337  0.783418  0  0.526708  0
Li  Li6  1  0.12924957  0.97074920  0.77642645  1  0  0.831037  0  0.413717  0  0  0.788332  0  0.51951  0  0  0.795313  0  0.509261  0  0  0.441334  0.783413  0  0.526706  0
Li  Li7  1  0.37074927  0.47074907  0.72357248  1  0  0.831034  0  0.413728  0  0  0.788333  0  0.519512  0  0  0.795315  0  0.509263  0  0  0.441331  0.783415  0  0.526707  0
B  B8  1  0.51147254  0.67124026  0.36071968  1  0  -0.150911  0  3.731746  0  0  -0.371561  0  4.039177  0  0  -0.363928  0  4.048493  0  0  -0.653679  -0.376271  0  4.032335  0
B  B9  1  0.98852710  0.17123995  0.13927989  1  0  -0.150867  0  3.73168  0  0  -0.371509  0  4.039118  0  0  -0.363878  0  4.048436  0  0  -0.653676  -0.376221  0  4.03228  0
B  B10  1  0.48852631  0.32876021  0.63927889  1  0  -0.150896  0  3.731716  0  0  -0.371537  0  4.039161  0  0  -0.363905  0  4.048476  0  0  -0.653688  -0.376248  0  4.032319  0
B  B11  1  0.01147176  0.82876052  0.86071944  1  0  -0.150911  0  3.731691  0  0  -0.371558  0  4.039121  0  0  -0.363926  0  4.048438  0  0  -0.653684  -0.376269  0  4.032281  0
B  B12  1  0.10136701  0.91398809  0.32313074  1  0  -0.140974  0  3.734771  0  0  -0.360821  0  4.047699  0  0  -0.353422  0  4.056826  0  0  -0.651155  -0.36538  0  4.041001  0
B  B13  1  0.39863246  0.41398861  0.17686968  1  0  -0.140975  0  3.734749  0  0  -0.360817  0  4.047664  0  0  -0.35342  0  4.05679  0  0  -0.651143  -0.365376  0  4.040967  0
B  B14  1  0.89863186  0.08601159  0.67686859  1  0  -0.14095  0  3.734719  0  0  -0.360805  0  4.047668  0  0  -0.353406  0  4.056796  0  0  -0.651151  -0.365364  0  4.040969  0
B  B15  1  0.60136787  0.58601108  0.82313057  1  0  -0.140975  0  3.734797  0  0  -0.360823  0  4.04772  0  0  -0.353425  0  4.056845  0  0  -0.651157  -0.365381  0  4.041021  0
H  H16  1  0.04410401  0.85035362  0.38038285  1  0  -0.173422  0  1.056226  0  0  -0.112203  0  1.145627  0  0  -0.114973  0  1.146987  0  0  0.030866  -0.110359  0  1.144595  0
H  H17  1  0.45589511  0.35035240  0.11961730  1  0  -0.173441  0  1.056232  0  0  -0.112212  0  1.145613  0  0  -0.11498  0  1.146971  0  0  0.030861  -0.110368  0  1.144582  0
H  H18  1  0.95589485  0.14964685  0.61961648  1  0  -0.173437  0  1.056229  0  0  -0.112209  0  1.145612  0  0  -0.114978  0  1.146972  0  0  0.030869  -0.110365  0  1.14458  0
H  H19  1  0.54410521  0.64964649  0.88038219  1  0  -0.173415  0  1.056231  0  0  -0.112193  0  1.145625  0  0  -0.114962  0  1.146985  0  0  0.03087  -0.11035  0  1.144595  0
H  H20  1  0.27757239  0.90765176  0.32818472  1  0  -0.177604  0  1.076577  0  0  -0.115595  0  1.164772  0  0  -0.119043  0  1.167102  0  0  0.031172  -0.113282  0  1.163104  0
H  H21  1  0.22242704  0.40765126  0.17181491  1  0  -0.17757  0  1.076542  0  0  -0.115573  0  1.16475  0  0  -0.11902  0  1.16708  0  0  0.03117  -0.11326  0  1.163084  0
H  H22  1  0.72242794  0.09234871  0.67181477  1  0  -0.177606  0  1.076559  0  0  -0.1156  0  1.16476  0  0  -0.119049  0  1.167089  0  0  0.031162  -0.113288  0  1.163093  0
H  H23  1  0.77757328  0.59234842  0.82818459  1  0  -0.177582  0  1.076554  0  0  -0.115576  0  1.164754  0  0  -0.119023  0  1.167082  0  0  0.031174  -0.113264  0  1.163087  0
H  H24  1  0.01779106  0.89608738  0.23305129  1  0  -0.173098  0  1.072849  0  0  -0.111912  0  1.160181  0  0  -0.114996  0  1.16207  0  0  0.031631  -0.109852  0  1.158796  0
H  H25  1  0.48220831  0.39608676  0.26694829  1  0  -0.173093  0  1.072851  0  0  -0.111918  0  1.160206  0  0  -0.115  0  1.162095  0  0  0.031634  -0.109856  0  1.158821  0
H  H26  1  0.98220927  0.10391309  0.76694820  1  0  -0.173082  0  1.072838  0  0  -0.111904  0  1.160186  0  0  -0.114989  0  1.162076  0  0  0.031643  -0.109843  0  1.158801  0
H  H27  1  0.51779202  0.60391371  0.73305121  1  0  -0.173108  0  1.07285  0  0  -0.111925  0  1.160193  0  0  -0.115009  0  1.162082  0  0  0.031626  -0.109864  0  1.158807  0
H  H28  1  0.06769237  0.00323508  0.35114290  1  0  -0.180472  0  1.065974  0  0  -0.11936  0  1.156322  0  0  -0.122352  0  1.157622  0  0  0.030083  -0.117369  0  1.155373  0
H  H29  1  0.43230928  0.50323587  0.14885778  1  0  -0.180491  0  1.065968  0  0  -0.11937  0  1.156303  0  0  -0.122367  0  1.157616  0  0  0.030073  -0.117378  0  1.155354  0
H  H30  1  0.93230649  0.99676460  0.64885643  1  0  -0.180489  0  1.06595  0  0  -0.119379  0  1.156306  0  0  -0.12237  0  1.157603  0  0  0.030072  -0.117388  0  1.155356  0
H  H31  1  0.56769105  0.49676460  0.85114248  1  0  -0.18048  0  1.06598  0  0  -0.119358  0  1.156312  0  0  -0.122355  0  1.157625  0  0  0.030082  -0.117367  0  1.155362  0
H  H32  1  0.60116206  0.94184329  0.77226123  1  0  0.066127  0  0.937514  0  0  0.076356  0  1.005954  0  0  0.076757  0  1.006007  0  0  0.110695  0.07598  0  1.006079  0
H  H33  1  0.89883812  0.44183848  0.72773853  1  0  0.06613  0  0.937528  0  0  0.076373  0  1.005948  0  0  0.076782  0  1.006001  0  0  0.110718  0.075996  0  1.006071  0
H  H34  1  0.39883680  0.05815639  0.22773810  1  0  0.066118  0  0.937502  0  0  0.076341  0  1.005984  0  0  0.076739  0  1.006033  0  0  0.110687  0.075964  0  1.006107  0
H  H35  1  0.10116076  0.55816120  0.27226233  1  0  0.066131  0  0.937511  0  0  0.07637  0  1.005932  0  0  0.076781  0  1.005986  0  0  0.110717  0.075994  0  1.006057  0
H  H36  1  0.47281642  0.82123897  0.78500028  1  0  0.085239  0  0.927242  0  0  0.0953  0  0.992345  0  0  0.095867  0  0.992074  0  0  0.123505  0.094804  0  0.992718  0
H  H37  1  0.02718308  0.32123368  0.71499894  1  0  0.085206  0  0.927222  0  0  0.095257  0  0.99235  0  0  0.095826  0  0.992086  0  0  0.123487  0.09476  0  0.992721  0
H  H38  1  0.52718244  0.17875992  0.21499905  1  0  0.085244  0  0.927258  0  0  0.095314  0  0.99236  0  0  0.095876  0  0.992089  0  0  0.123509  0.094817  0  0.992733  0
H  H39  1  0.97281579  0.67876679  0.28500115  1  0  0.085214  0  0.927208  0  0  0.095268  0  0.992335  0  0  0.09584  0  0.99207  0  0  0.123499  0.094772  0  0.992706  0
H  H40  1  0.55684687  0.75389886  0.62924318  1  0  0.076138  0  0.932941  0  0  0.085885  0  0.997406  0  0  0.086774  0  0.996875  0  0  0.114873  0.085131  0  0.997959  0
H  H41  1  0.94315233  0.25389623  0.87075882  1  0  0.076064  0  0.932979  0  0  0.085821  0  0.997418  0  0  0.086709  0  0.996887  0  0  0.11484  0.085069  0  0.997972  0
H  H42  1  0.44315346  0.24610082  0.37075631  1  0  0.076133  0  0.932947  0  0  0.085896  0  0.997396  0  0  0.086785  0  0.996865  0  0  0.11488  0.085143  0  0.997951  0
H  H43  1  0.05684800  0.74610267  0.12924144  1  0  0.07609  0  0.932963  0  0  0.085848  0  0.997398  0  0  0.086736  0  0.996866  0  0  0.114857  0.085097  0  0.997952  0
H  H44  1  0.71684163  0.86584043  0.63524709  1  0  0.071604  0  0.94007  0  0  0.085744  0  0.99953  0  0  0.085861  0  1.00036  0  0  0.110613  0.085579  0  0.999014  0
H  H45  1  0.78316108  0.36583995  0.86475495  1  0  0.071648  0  0.939966  0  0  0.085739  0  0.999457  0  0  0.085856  0  1.000283  0  0  0.110602  0.085576  0  0.998942  0
H  H46  1  0.28315870  0.13415847  0.36475317  1  0  0.071599  0  0.940077  0  0  0.085738  0  0.999538  0  0  0.085856  0  1.000368  0  0  0.110612  0.085575  0  0.999023  0
H  H47  1  0.21683925  0.63415973  0.13524530  1  0  0.07165  0  0.939951  0  0  0.085741  0  0.999447  0  0  0.08586  0  1.000273  0  0  0.110607  0.08558  0  0.998933  0
H  H48  1  0.41711593  0.04060155  0.59459076  1  0  0.046345  0  0.934732  0  0  0.051974  0  1.00106  0  0  0.053497  0  0.998684  0  0  0.118352  0.050692  0  1.002994  0
H  H49  1  0.08289228  0.54059897  0.90540916  1  0  0.046387  0  0.934686  0  0  0.051998  0  1.001022  0  0  0.053522  0  0.998645  0  0  0.118358  0.050716  0  1.002957  0
H  H50  1  0.58288293  0.95939892  0.40540857  1  0  0.046386  0  0.934685  0  0  0.051999  0  1.001018  0  0  0.053523  0  0.998642  0  0  0.118352  0.050718  0  1.002951  0
H  H51  1  0.91710806  0.45939993  0.09459185  1  0  0.046328  0  0.934749  0  0  0.051981  0  1.001035  0  0  0.053506  0  0.998659  0  0  0.118363  0.050701  0  1.002968  0
H  H52  1  0.18582400  0.97742937  0.53728159  1  0  0.068341  0  0.914414  0  0  0.079283  0  0.977147  0  0  0.078789  0  0.977077  0  0  0.132672  0.079493  0  0.977336  0
H  H53  1  0.31418070  0.47742457  0.96271649  1  0  0.068363  0  0.914429  0  0  0.079293  0  0.97716  0  0  0.078801  0  0.977089  0  0  0.132662  0.079501  0  0.977352  0
H  H54  1  0.81417631  0.02257110  0.46271714  1  0  0.068339  0  0.914418  0  0  0.079277  0  0.977147  0  0  0.078782  0  0.977078  0  0  0.132681  0.079488  0  0.977334  0
H  H55  1  0.68581819  0.52257432  0.03728512  1  0  0.068352  0  0.914364  0  0  0.07928  0  0.977103  0  0  0.078789  0  0.977035  0  0  0.132668  0.07949  0  0.977293  0
H  H56  1  0.48182584  0.57811677  0.37711710  1  0  -0.18318  0  1.08077  0  0  -0.121667  0  1.169474  0  0  -0.12514  0  1.171652  0  0  0.030441  -0.119327  0  1.167876  0
H  H57  1  0.01817327  0.07811663  0.12288205  1  0  -0.183203  0  1.080785  0  0  -0.121687  0  1.169482  0  0  -0.12516  0  1.171661  0  0  0.030448  -0.119346  0  1.167885  0
H  H58  1  0.51817302  0.42188370  0.62288223  1  0  -0.183202  0  1.080807  0  0  -0.121673  0  1.16947  0  0  -0.125147  0  1.171648  0  0  0.030457  -0.119333  0  1.167871  0
H  H59  1  0.98182559  0.92188384  0.87711728  1  0  -0.183196  0  1.080798  0  0  -0.121666  0  1.169465  0  0  -0.125139  0  1.171643  0  0  0.030454  -0.119326  0  1.167867  0
H  H60  1  0.35905584  0.70938238  0.31117174  1  0  -0.170836  0  1.070297  0  0  -0.101908  0  1.149646  0  0  -0.106472  0  1.154015  0  0  0.036125  -0.098827  0  1.146538  0
H  H61  1  0.14094545  0.20938264  0.18882813  1  0  -0.170836  0  1.07029  0  0  -0.101907  0  1.149632  0  0  -0.106471  0  1.154001  0  0  0.036132  -0.098827  0  1.146527  0
H  H62  1  0.64094303  0.29061730  0.68882759  1  0  -0.170825  0  1.070276  0  0  -0.101903  0  1.149634  0  0  -0.106468  0  1.154003  0  0  0.036134  -0.098823  0  1.146525  0
H  H63  1  0.85905488  0.79061705  0.81117212  1  0  -0.170826  0  1.070288  0  0  -0.1019  0  1.149633  0  0  -0.106463  0  1.154002  0  0  0.03613  -0.09882  0  1.146529  0
H  H64  1  0.56717908  0.71580504  0.44454956  1  0  -0.168991  0  1.063467  0  0  -0.107698  0  1.151312  0  0  -0.110463  0  1.152451  0  0  0.03119  -0.105855  0  1.150434  0
H  H65  1  0.93281790  0.21580513  0.05545064  1  0  -0.169008  0  1.063449  0  0  -0.10772  0  1.15131  0  0  -0.110485  0  1.152451  0  0  0.031172  -0.105877  0  1.150434  0
H  H66  1  0.43281978  0.28419464  0.55544901  1  0  -0.168982  0  1.063451  0  0  -0.107697  0  1.151309  0  0  -0.110462  0  1.152449  0  0  0.031194  -0.105854  0  1.150432  0
H  H67  1  0.06718098  0.78419613  0.94454945  1  0  -0.169006  0  1.063433  0  0  -0.107724  0  1.151308  0  0  -0.110489  0  1.152447  0  0  0.031169  -0.105881  0  1.150431  0
H  H68  1  0.63813470  0.68199865  0.31035842  1  0  -0.165303  0  1.074432  0  0  -0.105745  0  1.16415  0  0  -0.108446  0  1.165538  0  0  0.033446  -0.103948  0  1.16312  0
H  H69  1  0.86186501  0.18199838  0.18964196  1  0  -0.165301  0  1.074407  0  0  -0.105742  0  1.164123  0  0  -0.108444  0  1.165511  0  0  0.033451  -0.103945  0  1.163092  0
H  H70  1  0.36186562  0.31800103  0.68964108  1  0  -0.165317  0  1.074447  0  0  -0.105762  0  1.164168  0  0  -0.108462  0  1.165554  0  0  0.033426  -0.103966  0  1.163141  0
H  H71  1  0.13813385  0.81800209  0.81035737  1  0  -0.16528  0  1.074409  0  0  -0.105718  0  1.16412  0  0  -0.10842  0  1.165509  0  0  0.033459  -0.10392  0  1.163088  0
H  H72  1  0.89145679  0.69582736  0.50903837  1  0  0.076594  0  0.925321  0  0  0.091178  0  0.983869  0  0  0.091584  0  0.984206  0  0  0.112475  0.090793  0  0.983706  0
H  H73  1  0.60854060  0.19582795  0.99096094  1  0  0.076592  0  0.925312  0  0  0.091156  0  0.98389  0  0  0.091561  0  0.984227  0  0  0.112463  0.090773  0  0.983726  0
H  H74  1  0.10854207  0.30417311  0.49096096  1  0  0.076571  0  0.925321  0  0  0.091151  0  0.983875  0  0  0.091556  0  0.984211  0  0  0.112456  0.090766  0  0.983712  0
H  H75  1  0.39145828  0.80417331  0.00904067  1  0  0.076621  0  0.925341  0  0  0.09117  0  0.98392  0  0  0.091574  0  0.984257  0  0  0.112481  0.090786  0  0.983754  0
H  H76  1  0.03737218  0.79527830  0.58728702  1  0  0.088035  0  0.923258  0  0  0.098022  0  0.990248  0  0  0.098979  0  0.989255  0  0  0.125796  0.097205  0  0.991142  0
H  H77  1  0.46262574  0.29527742  0.91271345  1  0  0.088024  0  0.923214  0  0  0.098021  0  0.990193  0  0  0.098977  0  0.9892  0  0  0.125789  0.097204  0  0.991088  0
H  H78  1  0.96262816  0.20472217  0.41271400  1  0  0.088047  0  0.923232  0  0  0.098032  0  0.990214  0  0  0.098989  0  0.989221  0  0  0.125799  0.097215  0  0.991109  0
H  H79  1  0.53737314  0.70472305  0.08728740  1  0  0.088053  0  0.923208  0  0  0.098051  0  0.990182  0  0  0.099007  0  0.989189  0  0  0.12579  0.097234  0  0.991077  0
H  H80  1  0.93672413  0.60834133  0.67810150  1  0  0.079575  0  0.92209  0  0  0.094315  0  0.982491  0  0  0.094523  0  0.982468  0  0  0.116751  0.094019  0  0.982709  0
H  H81  1  0.56327573  0.10834200  0.82189929  1  0  0.079563  0  0.922081  0  0  0.0943  0  0.982497  0  0  0.094527  0  0.98245  0  0  0.116752  0.094007  0  0.982714  0
H  H82  1  0.06327621  0.39165835  0.32189952  1  0  0.079576  0  0.922117  0  0  0.094313  0  0.982526  0  0  0.094523  0  0.982499  0  0  0.116743  0.094017  0  0.982744  0
H  H83  1  0.43672463  0.89165926  0.17810325  1  0  0.079586  0  0.922016  0  0  0.094323  0  0.982421  0  0  0.094542  0  0.982382  0  0  0.11676  0.094029  0  0.982639  0
H  H84  1  0.16797417  0.67130139  0.72440803  1  0  0.081915  0  0.926449  0  0  0.094811  0  0.985979  0  0  0.095494  0  0.985968  0  0  0.11701  0.094193  0  0.986162  0
H  H85  1  0.33202602  0.17130063  0.77559377  1  0  0.081932  0  0.92643  0  0  0.094812  0  0.985996  0  0  0.095489  0  0.985987  0  0  0.117021  0.094196  0  0.986178  0
H  H86  1  0.83202909  0.32869829  0.27559331  1  0  0.081935  0  0.926449  0  0  0.094834  0  0.985976  0  0  0.095516  0  0.985965  0  0  0.117023  0.094216  0  0.986161  0
H  H87  1  0.66797579  0.82870063  0.22440817  1  0  0.081928  0  0.926402  0  0  0.094817  0  0.985946  0  0  0.095498  0  0.985937  0  0  0.117009  0.094199  0  0.98613  0
H  H88  1  0.12199164  0.54064617  0.45742092  1  0  0.040259  0  0.948523  0  0  0.047324  0  1.017494  0  0  0.048494  0  1.015708  0  0  0.112647  0.046337  0  1.01894  0
H  H89  1  0.37800873  0.04064458  0.04257823  1  0  0.040257  0  0.948535  0  0  0.047313  0  1.017513  0  0  0.048483  0  1.015727  0  0  0.11264  0.046326  0  1.01896  0
H  H90  1  0.87800867  0.45935429  0.54257781  1  0  0.040269  0  0.948516  0  0  0.047328  0  1.017495  0  0  0.048499  0  1.015707  0  0  0.112644  0.046341  0  1.018941  0
H  H91  1  0.62199160  0.95935511  0.95742202  1  0  0.040292  0  0.948515  0  0  0.047346  0  1.017499  0  0  0.048517  0  1.015711  0  0  0.112647  0.046359  0  1.018945  0
H  H92  1  0.37387527  0.56298466  0.52479981  1  0  0.062162  0  0.932658  0  0  0.070884  0  0.996838  0  0  0.070939  0  0.996239  0  0  0.127635  0.070706  0  0.997392  0
H  H93  1  0.12612577  0.06298205  0.97519940  1  0  0.062172  0  0.932656  0  0  0.07089  0  0.996832  0  0  0.070945  0  0.996232  0  0  0.127629  0.070713  0  0.997383  0
H  H94  1  0.62612652  0.43701502  0.47519984  1  0  0.062173  0  0.932653  0  0  0.07089  0  0.996839  0  0  0.070944  0  0.996239  0  0  0.127633  0.070712  0  0.997391  0
H  H95  1  0.87387601  0.93701606  0.02479949  1  0  0.062193  0  0.932662  0  0  0.070911  0  0.996842  0  0  0.070966  0  0.996243  0  0  0.127644  0.070734  0  0.997393  0
C  C96  1  0.49884511  0.88264316  0.73105684  1  0  0.061079  0  3.549399  0  0  0.005745  0  3.816559  0  0  0.011953  0  3.820776  0  0  -0.053247  0.001481  0  3.813859  0
C  C97  1  0.00115619  0.38263805  0.76894281  1  0  0.061158  0  3.549513  0  0  0.005816  0  3.816688  0  0  0.012001  0  3.82093  0  0  -0.053224  0.001555  0  3.813985  0
C  C98  1  0.50115376  0.11735731  0.26894250  1  0  0.061083  0  3.549365  0  0  0.005697  0  3.816588  0  0  0.011925  0  3.82078  0  0  -0.053264  0.001438  0  3.813885  0
C  C99  1  0.99884414  0.61736163  0.23105745  1  0  0.061123  0  3.549482  0  0  0.005796  0  3.816642  0  0  0.011973  0  3.820894  0  0  -0.053247  0.001534  0  3.813943  0
C  C100  1  0.56787246  0.83984801  0.63573552  1  0  0.065203  0  3.539202  0  0  0.010372  0  3.801993  0  0  0.016186  0  3.806612  0  0  -0.05656  0.006532  0  3.798853  0
C  C101  1  0.93212863  0.33984534  0.86426472  1  0  0.065219  0  3.539128  0  0  0.010448  0  3.801865  0  0  0.016273  0  3.806485  0  0  -0.056531  0.006601  0  3.798733  0
C  C102  1  0.43212787  0.16015167  0.36426473  1  0  0.0652  0  3.539211  0  0  0.010371  0  3.802007  0  0  0.01618  0  3.806621  0  0  -0.056571  0.006525  0  3.798875  0
C  C103  1  0.06787024  0.66015356  0.13573537  1  0  0.06523  0  3.539117  0  0  0.010455  0  3.801848  0  0  0.01628  0  3.806471  0  0  -0.056535  0.006603  0  3.798724  0
C  C104  1  0.33095583  0.96734920  0.58744777  1  0  0.279615  0  3.590615  0  0  0.216354  0  3.859412  0  0  0.229473  0  3.858678  0  0  0.041786  0.207419  0  3.859966  0
C  C105  1  0.16904885  0.46734641  0.91255332  1  0  0.27953  0  3.590572  0  0  0.21632  0  3.859301  0  0  0.229437  0  3.858565  0  0  0.04181  0.207385  0  3.859856  0
C  C106  1  0.66904450  0.03265048  0.41255173  1  0  0.279602  0  3.590536  0  0  0.216376  0  3.859295  0  0  0.229493  0  3.858562  0  0  0.041792  0.207441  0  3.859851  0
C  C107  1  0.83095149  0.53265327  0.08744846  1  0  0.279591  0  3.590565  0  0  0.216365  0  3.859302  0  0  0.22948  0  3.858569  0  0  0.041789  0.20743  0  3.859858  0
C  C108  1  0.03020509  0.71230912  0.56410864  1  0  0.060843  0  3.562088  0  0  0.004597  0  3.831407  0  0  0.010503  0  3.835414  0  0  -0.054365  0.000686  0  3.828647  0
C  C109  1  0.46979239  0.21230834  0.93589224  1  0  0.060797  0  3.562093  0  0  0.004567  0  3.831449  0  0  0.010473  0  3.835457  0  0  -0.054383  0.000657  0  3.828695  0
C  C110  1  0.96979525  0.28769135  0.43589237  1  0  0.060867  0  3.562042  0  0  0.004649  0  3.83134  0  0  0.010556  0  3.835347  0  0  -0.054352  0.00074  0  3.828582  0
C  C111  1  0.53020796  0.78769213  0.06410954  1  0  0.060727  0  3.56218  0  0  0.004497  0  3.831536  0  0  0.010406  0  3.835541  0  0  -0.054384  0.000588  0  3.828782  0
C  C112  1  0.07014088  0.63694691  0.65608269  1  0  0.058892  0  3.559578  0  0  -1.6e-05  0  3.83262  0  0  0.006592  0  3.835845  0  0  -0.057808  -0.004438  0  3.830501  0
C  C113  1  0.42985619  0.13694495  0.84391787  1  0  0.058962  0  3.559555  0  0  5e-05  0  3.832641  0  0  0.006654  0  3.835859  0  0  -0.05778  -0.004379  0  3.830532  0
C  C114  1  0.92985945  0.36305356  0.34391756  1  0  0.058849  0  3.559622  0  0  -5.9e-05  0  3.832673  0  0  0.006548  0  3.835896  0  0  -0.057815  -0.004484  0  3.830559  0
C  C115  1  0.57014269  0.86305473  0.15608298  1  0  0.058953  0  3.559478  0  0  6.6e-05  0  3.832511  0  0  0.006667  0  3.835735  0  0  -0.057793  -0.004363  0  3.830401  0
C  C116  1  0.22009808  0.58071259  0.52259996  1  0  0.272269  0  3.589813  0  0  0.207242  0  3.862006  0  0  0.219744  0  3.861933  0  0  0.038479  0.198756  0  3.86213  0
C  C117  1  0.27990160  0.08071095  0.97739993  1  0  0.272242  0  3.589978  0  0  0.207265  0  3.862111  0  0  0.219766  0  3.862038  0  0  0.038499  0.198776  0  3.862243  0
C  C118  1  0.77990224  0.41928788  0.47739878  1  0  0.272255  0  3.589901  0  0  0.20726  0  3.86207  0  0  0.219761  0  3.861996  0  0  0.038509  0.198771  0  3.862199  0
C  C119  1  0.72009874  0.91928873  0.02260108  1  0  0.272216  0  3.589997  0  0  0.207217  0  3.862147  0  0  0.219718  0  3.862074  0  0  0.038505  0.19873  0  3.862278  0
O  O120  1  0.31238018  0.93122000  0.68713742  1  0  -0.406713  0  2.28497  0  0  -0.343144  0  2.538075  0  0  -0.358386  0  2.536596  0  0  -0.280197  -0.332451  0  2.538912  0
O  O121  1  0.18762136  0.43121527  0.81286015  1  0  -0.406724  0  2.285012  0  0  -0.343183  0  2.538117  0  0  -0.35842  0  2.536645  0  0  -0.280217  -0.332491  0  2.538951  0
O  O122  1  0.68761868  0.06878047  0.31286115  1  0  -0.406738  0  2.28494  0  0  -0.343156  0  2.538046  0  0  -0.358403  0  2.536561  0  0  -0.280208  -0.332464  0  2.538882  0
O  O123  1  0.81237898  0.56878362  0.18714010  1  0  -0.406702  0  2.284994  0  0  -0.343192  0  2.53812  0  0  -0.358427  0  2.536653  0  0  -0.280208  -0.332499  0  2.538955  0
O  O124  1  0.43194700  0.88493920  0.54722234  1  0  -0.405562  0  2.257305  0  0  -0.342211  0  2.509198  0  0  -0.357143  0  2.507242  0  0  -0.278886  -0.331774  0  2.510369  0
O  O125  1  0.06805429  0.38493723  0.95277656  1  0  -0.40555  0  2.257278  0  0  -0.342229  0  2.509153  0  0  -0.357163  0  2.507195  0  0  -0.278905  -0.33179  0  2.510328  0
O  O126  1  0.56805332  0.11506127  0.45277716  1  0  -0.405548  0  2.257292  0  0  -0.342215  0  2.509178  0  0  -0.357148  0  2.507224  0  0  -0.278871  -0.331777  0  2.510351  0
O  O127  1  0.93194458  0.61506245  0.04722354  1  0  -0.405587  0  2.257322  0  0  -0.34226  0  2.509199  0  0  -0.357194  0  2.507242  0  0  -0.278902  -0.33182  0  2.510377  0
O  O128  1  0.19297286  0.69124277  0.51525327  1  0  -0.389426  0  2.273291  0  0  -0.323712  0  2.526818  0  0  -0.338814  0  2.525503  0  0  -0.26906  -0.313142  0  2.527507  0
O  O129  1  0.30702595  0.19124199  0.98474692  1  0  -0.38941  0  2.273418  0  0  -0.323725  0  2.526944  0  0  -0.338828  0  2.525627  0  0  -0.269077  -0.313156  0  2.527636  0
O  O130  1  0.80702600  0.30875770  0.48474606  1  0  -0.389439  0  2.27339  0  0  -0.323764  0  2.52693  0  0  -0.338866  0  2.525613  0  0  -0.269088  -0.313194  0  2.527619  0
O  O131  1  0.69297293  0.80875848  0.01525393  1  0  -0.389418  0  2.273464  0  0  -0.32372  0  2.526992  0  0  -0.338822  0  2.525675  0  0  -0.269089  -0.313151  0  2.527683  0
O  O132  1  0.16907183  0.54887380  0.61842020  1  0  -0.414319  0  2.240034  0  0  -0.351245  0  2.494282  0  0  -0.365959  0  2.491957  0  0  -0.281696  -0.340985  0  2.495748  0
O  O133  1  0.33092769  0.04887266  0.88158031  1  0  -0.414328  0  2.240146  0  0  -0.35126  0  2.494393  0  0  -0.365976  0  2.492072  0  0  -0.281695  -0.340999  0  2.495863  0
O  O134  1  0.83092850  0.45112666  0.38158006  1  0  -0.414303  0  2.240075  0  0  -0.351246  0  2.494324  0  0  -0.36596  0  2.491999  0  0  -0.281697  -0.340986  0  2.495791  0
O  O135  1  0.66907412  0.95112703  0.11842162  1  0  -0.414348  0  2.240102  0  0  -0.351288  0  2.494354  0  0  -0.366003  0  2.492032  0  0  -0.281718  -0.341028  0  2.495823  0
