# generated using pymatgen
data_SrPH5C2SO6
_symmetry_space_group_name_H-M   'P 1'
_cell_length_a   5.21151244
_cell_length_b   8.37608634
_cell_length_c   8.80055242
_cell_angle_alpha   86.19199182
_cell_angle_beta   72.77091885
_cell_angle_gamma   76.98520347
_symmetry_Int_Tables_number   1
_chemical_formula_structural   SrPH5C2SO6
_chemical_formula_sum   'Sr2 P2 H10 C4 S2 O12'
_cell_volume   357.49873179
_cell_formula_units_Z   2
loop_
 _symmetry_equiv_pos_site_id
 _symmetry_equiv_pos_as_xyz
  1  'x, y, z'
loop_
 _atom_site_type_symbol
 _atom_site_label
 _atom_site_symmetry_multiplicity
 _atom_site_fract_x
 _atom_site_fract_y
 _atom_site_fract_z
 _atom_site_occupancy
 _atom_site_pbe_bader_spin_density
 _atom_site_pbe_cm5_charge
 _atom_site_pbe_ddec_charge
 _atom_site_pbe_ddec_spin_density
 _atom_site_pbe_ddec_sum_bond_order
 _atom_site_pbe_magmom
Sr  Sr0  1  0.82880811  0.82843802  0.55310718  1  0  1.007367  1.507651  0  1.409973  0
Sr  Sr1  1  0.38203605  0.32835282  0.44693112  1  0  1.007322  1.507166  0  1.409723  0
P  P2  1  0.33481348  0.58600174  0.74804701  1  0  0.344433  1.316012  0  5.349161  0
P  P3  1  0.08296749  0.08595864  0.25180229  1  0  0.343322  1.312076  0  5.350221  0
H  H4  1  0.30565647  0.33360132  0.76675981  1  0  0.312879  0.349897  0  1.009188  0
H  H5  1  0.07274924  0.83353277  0.23320777  1  0  0.312929  0.349983  0  1.010345  0
H  H6  1  0.89220601  0.55046033  0.90727062  1  0  0.118137  0.16636  0  0.986313  0
H  H7  1  0.79906468  0.05062977  0.09299514  1  0  0.117112  0.164855  0  0.987642  0
H  H8  1  0.95027304  0.74173446  0.94315968  1  0  0.114878  0.151533  0  0.996427  0
H  H9  1  0.89305648  0.24176132  0.05709804  1  0  0.113832  0.151394  0  0.995875  0
H  H10  1  0.21049125  0.40664985  0.06827458  1  0  0.119119  0.146375  0  0.995335  0
H  H11  1  0.27808546  0.90658866  0.93158487  1  0  0.118917  0.145797  0  0.995924  0
H  H12  1  0.30095307  0.59284752  0.09079114  1  0  0.121936  0.151914  0  0.981409  0
H  H13  1  0.39110432  0.09277946  0.90898160  1  0  0.121054  0.150448  0  0.980704  0
C  C14  1  0.04621167  0.61046584  0.92793661  1  0  -0.167218  -0.450026  0  3.932276  0
C  C15  1  0.97377719  0.11052459  0.07212204  1  0  -0.16561  -0.448533  0  3.932231  0
C  C16  1  0.13685722  0.54030143  0.07276282  1  0  -0.144169  -0.305381  0  3.900234  0
C  C17  1  0.20891699  0.04024215  0.92726123  1  0  -0.14341  -0.302596  0  3.896565  0
S  S18  1  0.85852164  0.58228781  0.25123807  1  0  0.537124  1.235953  0  6.08125  0
S  S19  1  0.10884334  0.08235279  0.74884315  1  0  0.535672  1.233327  0  6.079023  0
O  O20  1  0.54951189  0.67436517  0.76105702  1  0  -0.433691  -0.789267  0  2.14381  0
O  O21  1  0.31066296  0.17431432  0.23882486  1  0  -0.431692  -0.785901  0  2.142497  0
O  O22  1  0.22908142  0.62492710  0.60237312  1  0  -0.452311  -0.87959  0  2.207233  0
O  O23  1  0.83176127  0.12473078  0.39765109  1  0  -0.451718  -0.879129  0  2.208628  0
O  O24  1  0.46270976  0.39036843  0.74405631  1  0  -0.395407  -0.658768  0  2.249573  0
O  O25  1  0.20714916  0.89039870  0.25570349  1  0  -0.396551  -0.659075  0  2.249953  0
O  O26  1  0.63787505  0.50855974  0.23450688  1  0  -0.364488  -0.623632  0  2.20648  0
O  O27  1  0.87139830  0.00864942  0.76569830  1  0  -0.363438  -0.621695  0  2.205518  0
O  O28  1  0.78107671  0.76361635  0.26501371  1  0  -0.344836  -0.622467  0  2.234235  0
O  O29  1  0.04541271  0.26368789  0.73505231  1  0  -0.344377  -0.622144  0  2.233594  0
O  O30  1  0.95891175  0.51365055  0.38778413  1  0  -0.373719  -0.695871  0  2.271029  0
O  O31  1  0.34563849  0.01361365  0.61211154  1  0  -0.373398  -0.696665  0  2.270178  0
