# generated using pymatgen
data_ZnH6C8S2(N2O3)2
_symmetry_space_group_name_H-M   'P 1'
_cell_length_a   7.05828552
_cell_length_b   12.77151321
_cell_length_c   11.94131758
_cell_angle_alpha   80.71865499
_cell_angle_beta   75.92014920
_cell_angle_gamma   55.07687474
_symmetry_Int_Tables_number   1
_chemical_formula_structural   ZnH6C8S2(N2O3)2
_chemical_formula_sum   'Zn2 H12 C16 S4 N8 O12'
_cell_volume   855.76022648
_cell_formula_units_Z   2
loop_
 _symmetry_equiv_pos_site_id
 _symmetry_equiv_pos_as_xyz
  1  'x, y, z'
loop_
 _atom_site_type_symbol
 _atom_site_label
 _atom_site_symmetry_multiplicity
 _atom_site_fract_x
 _atom_site_fract_y
 _atom_site_fract_z
 _atom_site_occupancy
 _atom_site_pbe_bader_charge
 _atom_site_pbe_bader_spin_density
 _atom_site_pbe_cm5_charge
 _atom_site_pbe_ddec_charge
 _atom_site_pbe_ddec_spin_density
 _atom_site_pbe_ddec_sum_bond_order
 _atom_site_pbe_magmom
Zn  Zn0  1  0.37965984  0.96711701  0.99482580  1  1.324905  0  0.70701  0.965106  0  2.194795  0
Zn  Zn1  1  0.67640601  0.45290756  0.49369972  1  1.323586  0  0.707287  0.96412  0  2.187087  0
H  H2  1  0.04458600  0.99252565  0.12644366  1  0.65167  0  0.287708  0.358357  0  0.988358  0
H  H3  1  0.04152720  0.92465942  0.02011066  1  0.649096  0  0.282595  0.392018  0  0.950919  0
H  H4  1  0.79668671  0.89765457  0.01231329  1  0.628934  0  0.285977  0.371731  0  0.969319  0
H  H5  1  0.77021532  0.02649205  0.96171649  1  0.633784  0  0.285378  0.369853  0  0.977239  0
H  H6  1  0.11733773  0.37147098  0.48640286  1  0.619521  0  0.286844  0.369836  0  0.967028  0
H  H7  1  0.06746192  0.48199977  0.55559391  1  0.631039  0  0.287282  0.374203  0  0.967278  0
H  H8  1  0.37357032  0.39929349  0.47271057  1  0.656834  0  0.283384  0.393277  0  0.946574  0
H  H9  1  0.41557469  0.49482286  0.37565540  1  0.638298  0  0.285585  0.355101  0  0.995625  0
H  H10  1  0.79954801  0.15643103  0.77434086  1  0.145629  0  0.120959  0.152858  0  0.982991  0
H  H11  1  0.61946454  0.81745181  0.34207866  1  0.12299  0  0.121674  0.166163  0  0.963285  0
H  H12  1  0.17793377  0.33128489  0.14697360  1  0.112007  0  0.120416  0.162622  0  0.970708  0
H  H13  1  0.71998768  0.67262565  0.73200921  1  0.13022  0  0.115349  0.143532  0  1.000772  0
C  C14  1  0.65732176  0.26101217  0.93440682  1  1.275874  0  0.221965  0.518932  0  4.177233  0
C  C15  1  0.58106942  0.78747232  0.17572662  1  1.237002  0  0.214039  0.523761  0  4.143759  0
C  C16  1  0.15782616  0.16761623  0.14151599  1  1.235286  0  0.211996  0.523017  0  4.142052  0
C  C17  1  0.62474540  0.86381127  0.75864411  1  1.277056  0  0.214938  0.519189  0  4.155367  0
C  C18  1  0.54761752  0.66953809  0.35653035  1  1.233727  0  0.21383  0.522191  0  4.153098  0
C  C19  1  0.68413684  0.35519044  0.73544284  1  1.244632  0  0.218242  0.526142  0  4.153027  0
C  C20  1  0.02853491  0.28784186  0.31655273  1  1.218861  0  0.212823  0.521157  0  4.135446  0
C  C21  1  0.88395736  0.73647579  0.58254006  1  1.348715  0  0.220971  0.52426  0  4.164851  0
C  C22  1  0.71710994  0.24936488  0.81068355  1  -0.021595  0  -0.037643  -0.24941  0  3.56874  0
C  C23  1  0.56816330  0.46651132  0.89576124  1  1.054248  0  0.237958  0.314855  0  4.214825  0
C  C24  1  0.57856770  0.76689867  0.29724848  1  -0.023451  0  -0.066599  -0.310084  0  3.658963  0
C  C25  1  0.51216916  0.63312309  0.18336820  1  1.074832  0  0.239757  0.333304  0  4.19208  0
C  C26  1  0.12435633  0.26985719  0.19599466  1  -0.00315  0  -0.064093  -0.298086  0  3.654566  0
C  C27  1  0.01843322  0.11342045  0.32025648  1  1.088227  0  0.23882  0.335033  0  4.19139  0
C  C28  1  0.73706958  0.75117725  0.69462982  1  -0.056127  0  -0.035486  -0.239167  0  3.563465  0
C  C29  1  0.78237456  0.93798750  0.60464838  1  1.064454  0  0.236892  0.316823  0  4.208036  0
S  S30  1  0.47491969  0.61125712  0.95422389  1  0.265333  0  0.198401  0.201193  0  2.647777  0
S  S31  1  0.44931008  0.54410879  0.11966254  1  0.285265  0  0.194358  0.178044  0  2.745942  0
S  S32  1  0.96632913  0.99645069  0.38741767  1  0.273479  0  0.189471  0.163317  0  2.777819  0
S  S33  1  0.79021849  0.07235185  0.54528838  1  0.268036  0  0.208413  0.216885  0  2.632374  0
N  N34  1  0.59555535  0.37458506  0.97325282  1  -1.165601  0  -0.321323  -0.425972  0  3.306593  0
N  N35  1  0.57557052  0.70583294  0.11759212  1  -1.174498  0  -0.330194  -0.433834  0  3.29283  0
N  N36  1  0.08749911  0.09333890  0.20688395  1  -1.247605  0  -0.335185  -0.463091  0  3.337347  0
N  N37  1  0.64950518  0.96068563  0.71109490  1  -1.167166  0  -0.328061  -0.434177  0  3.175886  0
N  N38  1  0.48715227  0.61282624  0.29743837  1  -1.222336  0  -0.333016  -0.457091  0  3.324429  0
N  N39  1  0.59817468  0.46921908  0.78068246  1  -1.16354  0  -0.335763  -0.448322  0  3.187254  0
N  N40  1  0.99270163  0.19993915  0.38072708  1  -1.188845  0  -0.341066  -0.448581  0  3.293276  0
N  N41  1  0.89959019  0.83846883  0.53818313  1  -1.210682  0  -0.345614  -0.462112  0  3.316086  0
O  O42  1  0.67525319  0.17175645  0.00355861  1  -1.095144  0  -0.274828  -0.458808  0  2.121947  0
O  O43  1  0.59109839  0.87999564  0.11955098  1  -1.15837  0  -0.310045  -0.53937  0  2.287521  0
O  O44  1  0.25207575  0.14308736  0.03367386  1  -1.120026  0  -0.315227  -0.519174  0  2.236461  0
O  O45  1  0.50029736  0.87026480  0.85934304  1  -1.16192  0  -0.324714  -0.542829  0  2.38928  0
O  O46  1  0.57518564  0.63399194  0.46186351  1  -1.11819  0  -0.308687  -0.509864  0  2.232389  0
O  O47  1  0.73147796  0.33944786  0.62618263  1  -1.127753  0  -0.31254  -0.530211  0  2.39503  0
O  O48  1  0.97438601  0.38647998  0.36711286  1  -1.15295  0  -0.31132  -0.536081  0  2.254308  0
O  O49  1  0.99779201  0.63475363  0.52789664  1  -1.105912  0  -0.274974  -0.463681  0  2.115007  0
O  O50  1  0.14244985  0.92422528  0.06940356  1  -1.279729  0  -0.579933  -0.759983  0  2.228193  0
O  O51  1  0.87368928  0.93154564  0.95260025  1  -1.246945  0  -0.592624  -0.748705  0  1.986729  0
O  O52  1  0.17057425  0.38750446  0.54678411  1  -1.232571  0  -0.591273  -0.739572  0  1.964222  0
O  O53  1  0.49578339  0.41386491  0.42076568  1  -1.269432  0  -0.58012  -0.758673  0  2.211577  0
