# generated using pymatgen
data_AlH6C27N13O18
_symmetry_space_group_name_H-M   'P 1'
_cell_length_a   4.18380869
_cell_length_b   18.38502310
_cell_length_c   18.38413857
_cell_angle_alpha   123.19065177
_cell_angle_beta   102.50052661
_cell_angle_gamma   97.35971737
_symmetry_Int_Tables_number   1
_chemical_formula_structural   AlH6C27N13O18
_chemical_formula_sum   'Al1 H6 C27 N13 O18'
_cell_volume   1101.46118922
_cell_formula_units_Z   1
loop_
 _symmetry_equiv_pos_site_id
 _symmetry_equiv_pos_as_xyz
  1  'x, y, z'
loop_
 _atom_site_type_symbol
 _atom_site_label
 _atom_site_symmetry_multiplicity
 _atom_site_fract_x
 _atom_site_fract_y
 _atom_site_fract_z
 _atom_site_occupancy
 _atom_site_pbe_bader_charge
 _atom_site_pbe_bader_spin_density
 _atom_site_pbe_cm5_charge
 _atom_site_pbe_ddec_charge
 _atom_site_pbe_ddec_spin_density
 _atom_site_pbe_ddec_sum_bond_order
 _atom_site_pbe_magmom
Al  Al0  1  0.02181739  0.00917494  0.49470572  1  2.522052  0  0.457569  1.657731  0  2.466915  0
H  H1  1  0.36584898  0.30718240  0.40569419  1  0.173259  0  0.129258  0.144252  0  0.987359  0
H  H2  1  0.68768036  0.08159708  0.89688915  1  0.179061  0  0.12718  0.146199  0  0.988996  0
H  H3  1  0.47544366  0.59711683  0.18638265  1  0.151812  0  0.129752  0.148452  0  0.972906  0
H  H4  1  0.60596678  0.31940197  0.91039139  1  0.158647  0  0.130112  0.149457  0  0.972809  0
H  H5  1  0.32888279  0.60139684  0.41312034  1  0.138187  0  0.12687  0.146319  0  0.983924  0
H  H6  1  0.58468314  0.08232321  0.18447230  1  0.189848  0  0.128813  0.143952  0  0.987716  0
C  C7  1  0.49383994  0.06806233  0.42767565  1  1.681453  0  0.275171  0.657837  0  4.144502  0
C  C8  1  0.67697209  0.07823766  0.63483055  1  1.667549  0  0.283498  0.671269  0  4.066522  0
C  C9  1  0.39221576  0.87068396  0.42891056  1  1.668166  0  0.283993  0.678805  0  4.049189  0
C  C10  1  0.41271981  0.24125217  0.37309986  1  0.031376  0  -0.050143  -0.110035  0  3.895671  0
C  C11  1  0.47460471  0.20024277  0.28940795  1  0.037985  0  0.006273  0.025672  0  3.950184  0
C  C12  1  0.68740033  0.11935003  0.86748679  1  -0.010893  0  -0.065926  -0.144113  0  3.919506  0
C  C13  1  0.66137531  0.20775185  0.91666934  1  0.010525  0  -0.000729  0.030381  0  3.983401  0
C  C14  1  0.39450919  0.58711227  0.29292567  1  -0.02356  0  0.0008  0.034754  0  3.984461  0
C  C15  1  0.43404759  0.63211235  0.25254695  1  0.06119  0  -0.062304  -0.142455  0  3.909756  0
C  C16  1  0.63735001  0.25160221  0.87399989  1  -0.015917  0  -0.062063  -0.14135  0  3.911083  0
C  C17  1  0.64041881  0.20715244  0.78442619  1  0.20428  0  0.095237  0.073387  0  3.888244  0
C  C18  1  0.68752216  0.11997857  0.73364461  1  0.142005  0  0.02554  -0.083281  0  3.792008  0
C  C19  1  0.70216562  0.07744308  0.77874883  1  0.179882  0  0.0899  0.069581  0  3.860249  0
C  C20  1  0.42904541  0.72163692  0.29799013  1  0.168231  0  0.095416  0.074832  0  3.882177  0
C  C21  1  0.37058500  0.77096986  0.38320890  1  0.086436  0  0.025472  -0.08732  0  3.794676  0
C  C22  1  0.33043623  0.72238244  0.42108318  1  0.169075  0  0.093632  0.0793  0  3.863618  0
C  C23  1  0.34582300  0.63341401  0.37824586  1  0.117062  0  -0.066806  -0.14913  0  3.918443  0
C  C24  1  0.53671796  0.11576869  0.24966585  1  0.024763  0  -0.049495  -0.109574  0  3.889386  0
C  C25  1  0.53575764  0.07418671  0.29380512  1  0.209043  0  0.086686  0.050159  0  3.916795  0
C  C26  1  0.47982116  0.11337982  0.37856195  1  0.073885  0  0.027273  -0.073492  0  3.84876  0
C  C27  1  0.41848631  0.19812786  0.41583236  1  0.212946  0  0.085927  0.04935  0  3.916194  0
C  C28  1  0.42730282  0.37020106  0.24794144  1  1.50939  0  0.36353  0.513034  0  4.070029  0
C  C29  1  0.57216093  0.24564519  0.12600501  1  1.52316  0  0.364429  0.511301  0  4.070069  0
C  C30  1  0.48057702  0.24620236  0.24434852  1  1.099372  0  0.272825  0.407389  0  4.008829  0
C  C31  1  0.42316163  0.49397609  0.24686976  1  1.100815  0  0.263038  0.392235  0  4.033389  0
C  C32  1  0.53737893  0.37735486  0.12705540  1  1.566068  0  0.363591  0.509091  0  4.0938  0
C  C33  1  0.63040209  0.25323540  0.00922066  1  1.073606  0  0.25942  0.383741  0  4.047372  0
N  N34  1  0.51203902  0.33098931  0.16698339  1  -1.194781  0  -0.189044  -0.240729  0  3.570552  0
N  N35  1  0.56311501  0.20471282  0.16720209  1  -1.162839  0  -0.31004  -0.429145  0  3.200511  0
N  N36  1  0.40491437  0.32548300  0.28504983  1  -1.155916  0  -0.312403  -0.433224  0  3.196384  0
N  N37  1  0.36973653  0.45118242  0.28555693  1  -1.169162  0  -0.317899  -0.443004  0  3.1863  0
N  N38  1  0.50410404  0.46068908  0.16982905  1  -1.198746  0  -0.311301  -0.43288  0  3.2228  0
N  N39  1  0.63764795  0.20773835  0.04684073  1  -1.18435  0  -0.318101  -0.439437  0  3.184502  0
N  N40  1  0.59233454  0.33669460  0.04678499  1  -1.184552  0  -0.315577  -0.436205  0  3.222442  0
N  N41  1  0.59432061  0.98379745  0.24687807  1  0.439934  0  0.065036  0.512506  0  4.199437  0
N  N42  1  0.36675300  0.24728021  0.50632664  1  0.402339  0  0.064632  0.510179  0  4.199013  0
N  N43  1  0.28818957  0.76199992  0.51297843  1  0.439032  0  0.061582  0.503196  0  4.203492  0
N  N44  1  0.49131804  0.75819517  0.24539535  1  0.45541  0  0.064266  0.512444  0  4.208167  0
N  N45  1  0.57366427  0.26076121  0.74760389  1  0.44064  0  0.062848  0.509556  0  4.208652  0
N  N46  1  0.70690064  0.98100316  0.73319715  1  0.449205  0  0.063138  0.504997  0  4.203211  0
O  O47  1  0.19747566  0.90637377  0.47281441  1  -1.225881  0  -0.219729  -0.569777  0  2.402016  0
O  O48  1  0.21089720  0.01907769  0.41248961  1  -1.238877  0  -0.226546  -0.579529  0  2.419926  0
O  O49  1  0.43706297  0.08940957  0.58969957  1  -1.252759  0  -0.231607  -0.607668  0  2.480682  0
O  O50  1  0.61830592  0.91198282  0.41661930  1  -1.265318  0  -0.230291  -0.606386  0  2.466169  0
O  O51  1  0.89358179  0.04000070  0.60428224  1  -1.222268  0  -0.215549  -0.56392  0  2.409891  0
O  O52  1  0.79131747  0.08513257  0.47887188  1  -1.238605  0  -0.227141  -0.584192  0  2.431637  0
O  O53  1  0.49341693  0.93524960  0.26901472  1  -0.422399  0  -0.076769  -0.257089  0  2.037697  0
O  O54  1  0.73781747  0.96394665  0.18900489  1  -0.455783  0  -0.120306  -0.311498  0  1.895778  0
O  O55  1  0.48603078  0.22782559  0.55863069  1  -0.399656  0  -0.076654  -0.253398  0  2.025313  0
O  O56  1  0.21043379  0.30434105  0.52259839  1  -0.432842  0  -0.121059  -0.313016  0  1.895482  0
O  O57  1  0.08819183  0.80789981  0.53276581  1  -0.42974  0  -0.108426  -0.29496  0  2.031588  0
O  O58  1  0.45003962  0.74198465  0.56063287  1  -0.400845  0  -0.10184  -0.284956  0  1.912638  0
O  O59  1  0.78978425  0.79938818  0.26588529  1  -0.414105  0  -0.090679  -0.281866  0  2.044037  0
O  O60  1  0.24221035  0.73569907  0.17962923  1  -0.40575  0  -0.095589  -0.271963  0  1.914568  0
O  O61  1  0.27229245  0.24295441  0.70351616  1  -0.415826  0  -0.088439  -0.27324  0  2.031568  0
O  O62  1  0.81873067  0.32372332  0.77222984  1  -0.387956  0  -0.099947  -0.277333  0  1.910633  0
O  O63  1  0.85122137  0.95004368  0.67544545  1  -0.442483  0  -0.107731  -0.289351  0  2.013262  0
O  O64  1  0.56667163  0.93993774  0.75859343  1  -0.405878  0  -0.102574  -0.285841  0  1.907775  0
