# generated using pymatgen
data_Hg6H13C14N10Cl13O4
_symmetry_space_group_name_H-M   'P 1'
_cell_length_a   11.93392507
_cell_length_b   13.29192413
_cell_length_c   13.40517607
_cell_angle_alpha   78.58257015
_cell_angle_beta   89.86498478
_cell_angle_gamma   64.66749498
_symmetry_Int_Tables_number   1
_chemical_formula_structural   Hg6H13C14N10Cl13O4
_chemical_formula_sum   'Hg12 H26 C28 N20 Cl26 O8'
_cell_volume   1875.73227320
_cell_formula_units_Z   2
loop_
 _symmetry_equiv_pos_site_id
 _symmetry_equiv_pos_as_xyz
  1  'x, y, z'
loop_
 _atom_site_type_symbol
 _atom_site_label
 _atom_site_symmetry_multiplicity
 _atom_site_fract_x
 _atom_site_fract_y
 _atom_site_fract_z
 _atom_site_occupancy
 _atom_site_hle17_bader_spin_density
 _atom_site_hle17_ddec_charge
 _atom_site_hle17_ddec_spin_density
 _atom_site_hle17_ddec_sum_bond_order
 _atom_site_hle17_magmom
 _atom_site_hse06_10hf_bader_spin_density
 _atom_site_hse06_10hf_ddec_charge
 _atom_site_hse06_10hf_ddec_spin_density
 _atom_site_hse06_10hf_ddec_sum_bond_order
 _atom_site_hse06_10hf_magmom
 _atom_site_hse06_bader_spin_density
 _atom_site_hse06_ddec_charge
 _atom_site_hse06_ddec_spin_density
 _atom_site_hse06_ddec_sum_bond_order
 _atom_site_hse06_magmom
 _atom_site_pbe_bader_spin_density
 _atom_site_pbe_cm5_charge
 _atom_site_pbe_ddec_charge
 _atom_site_pbe_ddec_spin_density
 _atom_site_pbe_ddec_sum_bond_order
 _atom_site_pbe_magmom
Hg  Hg0  1  0.83158681  0.97518379  0.85100916  1  0  0.789876  0  2.11107  0  0  0.65994  0  2.609301  0  0  0.706188  0  2.573244  0  0  0.464108  0.62796  0  2.633659  0
Hg  Hg1  1  0.16841497  0.02481502  0.14898316  1  0  0.789949  0  2.110936  0  0  0.660007  0  2.609164  0  0  0.706254  0  2.573108  0  0  0.464151  0.628031  0  2.633527  0
Hg  Hg2  1  0.14722876  0.74709633  0.05873788  1  0  0.791782  0  2.041173  0  0  0.659443  0  2.538247  0  0  0.707014  0  2.499746  0  0  0.471607  0.62643  0  2.564567  0
Hg  Hg3  1  0.85277259  0.25290163  0.94125386  1  0  0.791713  0  2.041188  0  0  0.659378  0  2.538265  0  0  0.706935  0  2.499774  0  0  0.471568  0.626372  0  2.564587  0
Hg  Hg4  1  0.50872311  0.14185235  0.64562913  1  0  0.789789  0  2.127419  0  0  0.655609  0  2.630614  0  0  0.702612  0  2.59471  0  0  0.474574  0.623412  0  2.654407  0
Hg  Hg5  1  0.49127578  0.85815076  0.35437278  1  0  0.789814  0  2.127407  0  0  0.655634  0  2.630607  0  0  0.702632  0  2.594709  0  0  0.47456  0.623444  0  2.6544  0
Hg  Hg6  1  0.41864443  0.20267672  0.33872755  1  0  0.808037  0  2.123502  0  0  0.681785  0  2.625157  0  0  0.729862  0  2.586799  0  0  0.46844  0.648247  0  2.651492  0
Hg  Hg7  1  0.58136067  0.79732040  0.66126734  1  0  0.808001  0  2.123449  0  0  0.681752  0  2.625089  0  0  0.72983  0  2.586733  0  0  0.468434  0.64822  0  2.651421  0
Hg  Hg8  1  0.81102082  0.00060239  0.15836573  1  0  0.76885  0  2.136183  0  0  0.642418  0  2.631674  0  0  0.689388  0  2.596255  0  0  0.446862  0.609459  0  2.655922  0
Hg  Hg9  1  0.18898129  0.99939046  0.84163000  1  0  0.768793  0  2.136145  0  0  0.642357  0  2.631634  0  0  0.689323  0  2.596214  0  0  0.446834  0.609401  0  2.655882  0
Hg  Hg10  1  0.21487164  0.06515602  0.53262027  1  0  0.790543  0  2.108275  0  0  0.654349  0  2.609459  0  0  0.701651  0  2.573853  0  0  0.470823  0.621499  0  2.633197  0
Hg  Hg11  1  0.78511084  0.93484108  0.46737690  1  0  0.790503  0  2.10836  0  0  0.654312  0  2.609557  0  0  0.701613  0  2.573954  0  0  0.470768  0.621459  0  2.633295  0
H  H12  1  0.53534496  0.19912397  0.90486314  1  0  0.10594  0  0.953284  0  0  0.106198  0  1.029854  0  0  0.109694  0  1.024787  0  0  0.123032  0.103154  0  1.034166  0
H  H13  1  0.46466387  0.80087060  0.09513597  1  0  0.106164  0  0.95306  0  0  0.106363  0  1.029686  0  0  0.109867  0  1.024616  0  0  0.123124  0.10332  0  1.033993  0
H  H14  1  0.46592976  0.21219527  0.08045117  1  0  0.129638  0  0.916708  0  0  0.140529  0  0.981576  0  0  0.142309  0  0.980719  0  0  0.115167  0.138938  0  0.982779  0
H  H15  1  0.53408047  0.78783678  0.91952111  1  0  0.129725  0  0.916453  0  0  0.140576  0  0.981381  0  0  0.142381  0  0.980502  0  0  0.115164  0.138956  0  0.982615  0
H  H16  1  0.30523998  0.24997749  0.09130717  1  0  0.119777  0  0.926689  0  0  0.128558  0  0.994676  0  0  0.13073  0  0.992839  0  0  0.10793  0.126888  0  0.996135  0
H  H17  1  0.69478232  0.75002221  0.90869165  1  0  0.119714  0  0.926502  0  0  0.128475  0  0.994547  0  0  0.130646  0  0.992703  0  0  0.107968  0.126808  0  0.996007  0
H  H18  1  0.17697627  0.42170998  0.62525588  1  0  0.120252  0  0.883565  0  0  0.128698  0  0.937744  0  0  0.132363  0  0.934807  0  0  0.13109  0.125535  0  0.940427  0
H  H19  1  0.82304600  0.57826165  0.37477387  1  0  0.120127  0  0.883378  0  0  0.128574  0  0.93755  0  0  0.132247  0  0.934593  0  0  0.130995  0.125394  0  0.94026  0
H  H20  1  0.91028346  0.55502748  0.93130459  1  0  0.336517  0  0.885643  0  0  0.310112  0  0.959928  0  0  0.319174  0  0.952416  0  0  0.306065  0.303492  0  0.966009  0
H  H21  1  0.08972188  0.44495857  0.06869995  1  0  0.336562  0  0.885702  0  0  0.310061  0  0.960071  0  0  0.31912  0  0.952573  0  0  0.306089  0.303446  0  0.966143  0
H  H22  1  0.85919313  0.59346877  0.79907433  1  0  0.360324  0  0.868327  0  0  0.334084  0  0.94084  0  0  0.343037  0  0.933093  0  0  0.307925  0.327267  0  0.947068  0
H  H23  1  0.14080063  0.40649764  0.20093413  1  0  0.360292  0  0.86821  0  0  0.334094  0  0.940732  0  0  0.343012  0  0.93302  0  0  0.307908  0.327292  0  0.946952  0
H  H24  1  0.66689698  0.52235504  0.78150143  1  0  0.403978  0  0.900115  0  0  0.368313  0  0.983331  0  0  0.38254  0  0.964966  0  0  0.291097  0.358224  0  0.993239  0
H  H25  1  0.33309614  0.47765488  0.21849764  1  0  0.404168  0  0.900074  0  0  0.368477  0  0.983308  0  0  0.382701  0  0.964787  0  0  0.291206  0.358391  0  0.993216  0
H  H26  1  0.97598263  0.25507407  0.25905503  1  0  0.104762  0  0.953191  0  0  0.107511  0  1.021809  0  0  0.112  0  1.018011  0  0  0.105911  0.104135  0  1.024858  0
H  H27  1  0.02398069  0.74493506  0.74097186  1  0  0.104718  0  0.952924  0  0  0.107451  0  1.021646  0  0  0.111969  0  1.017843  0  0  0.105865  0.104074  0  1.024693  0
H  H28  1  0.58758791  0.46461904  0.54062033  1  0  0.125052  0  0.935309  0  0  0.133263  0  1.006781  0  0  0.136019  0  1.003706  0  0  0.118289  0.131596  0  1.008701  0
H  H29  1  0.41240059  0.53539004  0.45938414  1  0  0.125129  0  0.935136  0  0  0.133223  0  1.006637  0  0  0.136015  0  1.003586  0  0  0.118258  0.131546  0  1.008553  0
H  H30  1  0.63362479  0.33603093  0.63424012  1  0  0.120628  0  0.950729  0  0  0.129634  0  1.01913  0  0  0.1311  0  1.018054  0  0  0.103956  0.128987  0  1.019691  0
H  H31  1  0.36637163  0.66397385  0.36575251  1  0  0.120617  0  0.950832  0  0  0.129572  0  1.019187  0  0  0.131075  0  1.018132  0  0  0.10393  0.128928  0  1.019729  0
H  H32  1  0.91557723  0.22928192  0.63766353  1  0  0.112986  0  0.928323  0  0  0.114121  0  1.000945  0  0  0.118175  0  0.994737  0  0  0.130358  0.110733  0  1.006208  0
H  H33  1  0.08441752  0.77072286  0.36232687  1  0  0.113044  0  0.928203  0  0  0.114156  0  1.000848  0  0  0.118217  0  0.994633  0  0  0.130327  0.110745  0  1.006137  0
H  H34  1  0.49450551  0.52663272  0.20984705  1  0  0.358438  0  0.884287  0  0  0.334351  0  0.949783  0  0  0.343614  0  0.942056  0  0  0.315302  0.327568  0  0.9557  0
H  H35  1  0.50546892  0.47338829  0.79015359  1  0  0.358749  0  0.884194  0  0  0.334476  0  0.949926  0  0  0.343743  0  0.942193  0  0  0.315389  0.327701  0  0.955834  0
H  H36  1  0.59588576  0.49897814  0.10807402  1  0  0.371265  0  0.874296  0  0  0.344332  0  0.945951  0  0  0.355265  0  0.935443  0  0  0.310289  0.336493  0  0.953535  0
H  H37  1  0.40408300  0.50105651  0.89192094  1  0  0.371555  0  0.874009  0  0  0.3445  0  0.945821  0  0  0.355499  0  0.93521  0  0  0.310439  0.336662  0  0.953411  0
C  C38  1  0.26712566  0.35603433  0.78258391  1  0  0.090877  0  3.765376  0  0  0.088381  0  4.025646  0  0  0.092508  0  4.043678  0  0  0.112932  0.08519  0  4.014842  0
C  C39  1  0.73290642  0.64394835  0.21743095  1  0  0.091281  0  3.766313  0  0  0.088786  0  4.026363  0  0  0.092942  0  4.044398  0  0  0.113337  0.085589  0  4.015568  0
C  C40  1  0.23936910  0.36253653  0.88654041  1  0  0.328295  0  3.763171  0  0  0.291225  0  4.03238  0  0  0.308677  0  4.044426  0  0  0.252479  0.279045  0  4.025555  0
C  C41  1  0.76064692  0.63746403  0.11345974  1  0  0.328176  0  3.762312  0  0  0.291445  0  4.031198  0  0  0.308835  0  4.043317  0  0  0.252521  0.279264  0  4.024384  0
C  C42  1  0.43813806  0.25526357  0.87846219  1  0  0.280256  0  3.528167  0  0  0.213919  0  3.814636  0  0  0.235185  0  3.820446  0  0  0.191372  0.198855  0  3.812501  0
C  C43  1  0.56188526  0.74471818  0.12152974  1  0  0.279937  0  3.527191  0  0  0.213671  0  3.813816  0  0  0.234937  0  3.819621  0  0  0.191192  0.198596  0  3.811689  0
C  C44  1  0.37141729  0.27934401  0.05442174  1  0  -0.151975  0  3.602795  0  0  -0.211418  0  3.849447  0  0  -0.210628  0  3.855018  0  0  -0.05799  -0.21173  0  3.846026  0
C  C45  1  0.62858727  0.72067532  0.94557992  1  0  -0.152029  0  3.602083  0  0  -0.211463  0  3.848884  0  0  -0.210686  0  3.854437  0  0  -0.058026  -0.211757  0  3.845482  0
C  C46  1  0.35755583  0.38949100  0.08441989  1  0  0.681808  0  3.856262  0  0  0.631688  0  4.165064  0  0  0.664316  0  4.159412  0  0  0.208187  0.60961  0  4.167076  0
C  C47  1  0.64243567  0.61052233  0.91557627  1  0  0.681715  0  3.855965  0  0  0.6317  0  4.164661  0  0  0.664331  0  4.158996  0  0  0.208241  0.609623  0  4.166673  0
C  C48  1  0.04151688  0.48285442  0.83546704  1  0  0.618587  0  3.761233  0  0  0.5752  0  4.043384  0  0  0.600495  0  4.051057  0  0  0.358646  0.558467  0  4.0388  0
C  C49  1  0.95849090  0.51712653  0.16454523  1  0  0.617966  0  3.762411  0  0  0.57478  0  4.044387  0  0  0.600062  0  4.052078  0  0  0.358767  0.558058  0  4.039798  0
C  C50  1  0.16632713  0.42097034  0.70644440  1  0  0.144909  0  3.642223  0  0  0.105708  0  3.910911  0  0  0.113083  0  3.923655  0  0  0.084908  0.100105  0  3.904129  0
C  C51  1  0.83369991  0.57901063  0.29356707  1  0  0.145078  0  3.641859  0  0  0.105944  0  3.910427  0  0  0.113326  0  3.923154  0  0  0.084973  0.100339  0  3.903648  0
C  C52  1  0.87108545  0.28753606  0.39394535  1  0  0.124878  0  3.715598  0  0  0.124278  0  3.967556  0  0  0.136794  0  3.976407  0  0  0.133541  0.11591  0  3.962503  0
C  C53  1  0.12890521  0.71247902  0.60606464  1  0  0.124825  0  3.715775  0  0  0.124225  0  3.967752  0  0  0.136742  0  3.976607  0  0  0.133525  0.115848  0  3.96272  0
C  C54  1  0.88645911  0.30050471  0.28778696  1  0  0.157614  0  3.622287  0  0  0.119996  0  3.885386  0  0  0.127063  0  3.89301  0  0  0.085795  0.114402  0  3.881642  0
C  C55  1  0.11351729  0.69950864  0.71222042  1  0  0.157811  0  3.621645  0  0  0.120211  0  3.884672  0  0  0.127253  0  3.892312  0  0  0.085874  0.114618  0  3.880936  0
C  C56  1  0.67807583  0.43027778  0.25530730  1  0  0.594301  0  3.771821  0  0  0.548784  0  4.059957  0  0  0.568156  0  4.072468  0  0  0.354169  0.536043  0  4.051903  0
C  C57  1  0.32190109  0.56974151  0.74468920  1  0  0.594438  0  3.772142  0  0  0.548881  0  4.060258  0  0  0.568246  0  4.072779  0  0  0.354106  0.536143  0  4.052218  0
C  C58  1  0.74943699  0.35927013  0.42025754  1  0  0.318239  0  3.761594  0  0  0.28245  0  4.025908  0  0  0.294301  0  4.039183  0  0  0.258415  0.274289  0  4.017749  0
C  C59  1  0.25056075  0.64074065  0.57974285  1  0  0.318488  0  3.760858  0  0  0.282765  0  4.025077  0  0  0.294613  0  4.038338  0  0  0.258593  0.2746  0  4.016948  0
C  C60  1  0.66667878  0.39515587  0.59050308  1  0  -0.149575  0  3.614244  0  0  -0.213604  0  3.861135  0  0  -0.213124  0  3.867767  0  0  -0.056465  -0.213339  0  3.855857  0
C  C61  1  0.33330686  0.60485920  0.40950469  1  0  -0.149732  0  3.614543  0  0  -0.21345  0  3.861387  0  0  -0.21314  0  3.868197  0  0  -0.056331  -0.213128  0  3.856017  0
C  C62  1  0.71546383  0.44805364  0.66078921  1  0  0.672997  0  3.808547  0  0  0.625534  0  4.116585  0  0  0.655387  0  4.113226  0  0  0.217708  0.604912  0  4.116092  0
C  C63  1  0.28452503  0.55195116  0.33921014  1  0  0.673291  0  3.807922  0  0  0.6255  0  4.116289  0  0  0.655393  0  4.112953  0  0  0.217733  0.604866  0  4.115796  0
C  C64  1  0.88019557  0.26069003  0.55734553  1  0  0.304605  0  3.479916  0  0  0.239087  0  3.760615  0  0  0.265481  0  3.7588  0  0  0.20287  0.220173  0  3.763616  0
C  C65  1  0.11981579  0.73930625  0.44265323  1  0  0.30451  0  3.479603  0  0  0.23904  0  3.760336  0  0  0.26544  0  3.758495  0  0  0.202878  0.220132  0  3.763371  0
N  N66  1  0.39034661  0.28942510  0.78021966  1  0  -0.361942  0  3.025071  0  0  -0.328092  0  3.312447  0  0  -0.347163  0  3.327886  0  0  -0.317348  -0.316684  0  3.303824  0
N  N67  1  0.60969941  0.71053713  0.21980073  1  0  -0.362405  0  3.024821  0  0  -0.328542  0  3.312153  0  0  -0.347601  0  3.32758  0  0  -0.317491  -0.31714  0  3.303541  0
N  N68  1  0.35133179  0.29517823  0.94492098  1  0  -0.11893  0  3.501534  0  0  -0.034147  0  3.726826  0  0  -0.053617  0  3.748166  0  0  -0.228982  -0.021632  0  3.712913  0
N  N69  1  0.64867761  0.70482744  0.05507742  1  0  -0.118391  0  3.501371  0  0  -0.033731  0  3.72665  0  0  -0.05318  0  3.748018  0  0  -0.228793  -0.021217  0  3.712732  0
N  N70  1  0.13102404  0.42328128  0.91684848  1  0  -0.44847  0  2.93178  0  0  -0.41312  0  3.199523  0  0  -0.430812  0  3.206324  0  0  -0.296321  -0.402651  0  3.196151  0
N  N71  1  0.86901006  0.57669542  0.08316160  1  0  -0.448279  0  2.931881  0  0  -0.413177  0  3.199632  0  0  -0.430841  0  3.206454  0  0  -0.296465  -0.402723  0  3.196271  0
N  N72  1  0.05607455  0.48396755  0.73325543  1  0  -0.3601  0  2.934322  0  0  -0.328761  0  3.203871  0  0  -0.343181  0  3.215142  0  0  -0.29696  -0.320527  0  3.19788  0
N  N73  1  0.94396195  0.51600061  0.26675186  1  0  -0.359885  0  2.934423  0  0  -0.328566  0  3.203854  0  0  -0.342978  0  3.215126  0  0  -0.29688  -0.320335  0  3.19786  0
N  N74  1  0.92864399  0.54833011  0.85728765  1  0  -0.554629  0  3.061397  0  0  -0.508033  0  3.292858  0  0  -0.532371  0  3.292029  0  0  -0.495199  -0.494382  0  3.295965  0
N  N75  1  0.07136689  0.45163204  0.14271566  1  0  -0.554552  0  3.061395  0  0  -0.507927  0  3.292857  0  0  -0.532218  0  3.29211  0  0  -0.495302  -0.494313  0  3.295944  0
N  N76  1  0.94930040  0.22788412  0.47923568  1  0  -0.326119  0  2.935202  0  0  -0.291131  0  3.209908  0  0  -0.309037  0  3.216772  0  0  -0.295751  -0.279562  0  3.206137  0
N  N77  1  0.05068845  0.77212244  0.52078198  1  0  -0.326082  0  2.934399  0  0  -0.291086  0  3.209102  0  0  -0.308977  0  3.215951  0  0  -0.295677  -0.279522  0  3.205341  0
N  N78  1  0.65282679  0.43015805  0.35655000  1  0  -0.400493  0  2.876178  0  0  -0.36863  0  3.146718  0  0  -0.377199  0  3.15377  0  0  -0.281088  -0.364267  0  3.143095  0
N  N79  1  0.34716241  0.56984252  0.64346064  1  0  -0.400645  0  2.876398  0  0  -0.368719  0  3.146913  0  0  -0.377271  0  3.153953  0  0  -0.281112  -0.364366  0  3.143306  0
N  N80  1  0.76053027  0.33834405  0.52625205  1  0  -0.114999  0  3.477937  0  0  -0.026158  0  3.698815  0  0  -0.044922  0  3.719741  0  0  -0.220319  -0.014415  0  3.685237  0
N  N81  1  0.23946084  0.66167010  0.47373500  1  0  -0.114953  0  3.478643  0  0  -0.026192  0  3.699419  0  0  -0.044886  0  3.720384  0  0  -0.220345  -0.014475  0  3.68584  0
N  N82  1  0.79174578  0.37252556  0.22080530  1  0  -0.386504  0  2.977273  0  0  -0.359781  0  3.260105  0  0  -0.37089  0  3.271921  0  0  -0.305491  -0.352176  0  3.25245  0
N  N83  1  0.20824588  0.62746986  0.77919741  1  0  -0.386665  0  2.977219  0  0  -0.359907  0  3.26005  0  0  -0.371023  0  3.271896  0  0  -0.305455  -0.352302  0  3.252398  0
N  N84  1  0.58223627  0.49191278  0.18533377  1  0  -0.547196  0  3.000321  0  0  -0.497586  0  3.227548  0  0  -0.516412  0  3.225058  0  0  -0.479142  -0.486969  0  3.231273  0
N  N85  1  0.41775229  0.50813130  0.81466823  1  0  -0.547804  0  2.999979  0  0  -0.497854  0  3.227447  0  0  -0.516734  0  3.22484  0  0  -0.479338  -0.487256  0  3.231196  0
Cl  Cl86  1  0.72730861  0.17438075  0.78955059  1  0  -0.422325  0  1.216973  0  0  -0.355368  0  1.539302  0  0  -0.378123  0  1.520344  0  0  -0.222377  -0.339735  0  1.552274  0
Cl  Cl87  1  0.27269728  0.82561294  0.21044198  1  0  -0.422397  0  1.216862  0  0  -0.355418  0  1.53916  0  0  -0.378178  0  1.520201  0  0  -0.222416  -0.339812  0  1.552191  0
Cl  Cl88  1  0.92455742  0.77593805  0.90376923  1  0  -0.40537  0  1.157501  0  0  -0.345651  0  1.46687  0  0  -0.367241  0  1.448536  0  0  -0.220624  -0.329428  0  1.479327  0
Cl  Cl89  1  0.07543432  0.22406248  0.09623022  1  0  -0.40535  0  1.157431  0  0  -0.345647  0  1.466784  0  0  -0.367231  0  1.448452  0  0  -0.220619  -0.329419  0  1.47924  0
Cl  Cl90  1  0.99999687  0.99999976  0.99999842  1  0  -0.611224  0  1.268218  0  0  -0.542567  0  1.605154  0  0  -0.569169  0  1.581557  0  0  -0.312302  -0.520977  0  1.620337  0
Cl  Cl91  1  0.00708097  0.73856706  0.17812139  1  0  -0.399767  0  1.168825  0  0  -0.338975  0  1.478056  0  0  -0.362936  0  1.462222  0  0  -0.230906  -0.322098  0  1.488789  0
Cl  Cl92  1  0.99292607  0.26141895  0.82187122  1  0  -0.399749  0  1.168864  0  0  -0.338937  0  1.478067  0  0  -0.362886  0  1.462208  0  0  -0.230894  -0.322083  0  1.488845  0
Cl  Cl93  1  0.30227518  0.74146052  0.95125967  1  0  -0.389853  0  1.160307  0  0  -0.32842  0  1.471451  0  0  -0.350318  0  1.45333  0  0  -0.228598  -0.312641  0  1.483908  0
Cl  Cl94  1  0.69772672  0.25854683  0.04873245  1  0  -0.389794  0  1.160202  0  0  -0.328387  0  1.471403  0  0  -0.350287  0  1.453286  0  0  -0.228558  -0.31261  0  1.483864  0
Cl  Cl95  1  0.44722835  0.30721319  0.51518286  1  0  -0.406546  0  1.123441  0  0  -0.350286  0  1.431714  0  0  -0.371156  0  1.412411  0  0  -0.232086  -0.336033  0  1.444729  0
Cl  Cl96  1  0.55276885  0.69278819  0.48481417  1  0  -0.40652  0  1.123464  0  0  -0.350276  0  1.431783  0  0  -0.371149  0  1.412483  0  0  -0.232074  -0.336016  0  1.44479  0
Cl  Cl97  1  0.57494211  0.98306139  0.78420578  1  0  -0.423634  0  1.212707  0  0  -0.362115  0  1.536685  0  0  -0.385859  0  1.518968  0  0  -0.234487  -0.345516  0  1.548496  0
Cl  Cl98  1  0.42506873  0.01692719  0.21578781  1  0  -0.423633  0  1.212681  0  0  -0.362075  0  1.536578  0  0  -0.385813  0  1.518857  0  0  -0.234468  -0.345476  0  1.548395  0
Cl  Cl99  1  0.49999929  0.99999900  0.49999684  1  0  -0.605043  0  1.28915  0  0  -0.535574  0  1.628836  0  0  -0.563658  0  1.605836  0  0  -0.304008  -0.514372  0  1.643723  0
Cl  Cl100  1  0.20591408  0.25178013  0.35746084  1  0  -0.415944  0  1.154575  0  0  -0.359613  0  1.462657  0  0  -0.381348  0  1.442999  0  0  -0.229432  -0.343765  0  1.475973  0
Cl  Cl101  1  0.79408984  0.74822123  0.64252574  1  0  -0.415969  0  1.154599  0  0  -0.359623  0  1.462657  0  0  -0.381358  0  1.443016  0  0  -0.229456  -0.343772  0  1.475969  0
Cl  Cl102  1  0.61982519  0.17485761  0.29533860  1  0  -0.435546  0  1.123306  0  0  -0.376633  0  1.425981  0  0  -0.399261  0  1.409497  0  0  -0.263886  -0.360066  0  1.43743  0
Cl  Cl103  1  0.38017706  0.82514546  0.70465286  1  0  -0.435539  0  1.12331  0  0  -0.376607  0  1.42595  0  0  -0.399238  0  1.40947  0  0  -0.26388  -0.360036  0  1.437397  0
Cl  Cl104  1  0.67564660  0.98249974  0.04334524  1  0  -0.408339  0  1.093825  0  0  -0.34908  0  1.386066  0  0  -0.369835  0  1.36879  0  0  -0.251502  -0.334477  0  1.398795  0
Cl  Cl105  1  0.32435019  0.01750249  0.95664864  1  0  -0.4083  0  1.093812  0  0  -0.349027  0  1.386022  0  0  -0.369783  0  1.368747  0  0  -0.251464  -0.334421  0  1.398747  0
Cl  Cl106  1  0.94195940  0.01879714  0.27818400  1  0  -0.414307  0  1.154315  0  0  -0.347838  0  1.45981  0  0  -0.373302  0  1.443383  0  0  -0.237997  -0.329928  0  1.470916  0
Cl  Cl107  1  0.05804604  0.98119399  0.72180685  1  0  -0.414317  0  1.154261  0  0  -0.347858  0  1.45978  0  0  -0.373323  0  1.443351  0  0  -0.238006  -0.329947  0  1.470891  0
Cl  Cl108  1  0.21093776  0.94830174  0.42429065  1  0  -0.416261  0  1.160603  0  0  -0.356561  0  1.473239  0  0  -0.380535  0  1.45638  0  0  -0.250565  -0.33914  0  1.484383  0
Cl  Cl109  1  0.78904975  0.05169536  0.57570427  1  0  -0.416218  0  1.16058  0  0  -0.356519  0  1.473226  0  0  -0.380489  0  1.456362  0  0  -0.250524  -0.339104  0  1.484364  0
Cl  Cl110  1  0.22936327  0.16647517  0.65409792  1  0  -0.412534  0  1.174753  0  0  -0.348223  0  1.48351  0  0  -0.371486  0  1.465813  0  0  -0.233787  -0.331258  0  1.49498  0
Cl  Cl111  1  0.77064052  0.83351767  0.34589483  1  0  -0.412571  0  1.174804  0  0  -0.348252  0  1.48355  0  0  -0.371535  0  1.465891  0  0  -0.233795  -0.331283  0  1.495014  0
O  O112  1  0.37195134  0.46518592  0.02243628  1  0  -0.58655  0  1.947057  0  0  -0.543388  0  2.17773  0  0  -0.569827  0  2.171167  0  0  -0.306856  -0.522517  0  2.179883  0
O  O113  1  0.62804108  0.53483425  0.97756375  1  0  -0.586462  0  1.947048  0  0  -0.54336  0  2.177659  0  0  -0.569753  0  2.17108  0  0  -0.306903  -0.522513  0  2.179828  0
O  O114  1  0.33029795  0.39246565  0.17729071  1  0  -0.643205  0  2.099145  0  0  -0.576019  0  2.34055  0  0  -0.606007  0  2.329715  0  0  -0.323705  -0.554398  0  2.346045  0
O  O115  1  0.66969763  0.60753913  0.82269969  1  0  -0.643112  0  2.099072  0  0  -0.575966  0  2.340414  0  0  -0.605953  0  2.329623  0  0  -0.323713  -0.554358  0  2.345934  0
O  O116  1  0.65105899  0.46424774  0.74182869  1  0  -0.598278  0  2.127483  0  0  -0.535624  0  2.355756  0  0  -0.561616  0  2.340135  0  0  -0.333151  -0.515933  0  2.363369  0
O  O117  1  0.34892058  0.53575193  0.25817096  1  0  -0.598394  0  2.127325  0  0  -0.535671  0  2.355779  0  0  -0.561663  0  2.340061  0  0  -0.33326  -0.515972  0  2.363379  0
O  O118  1  0.80142336  0.47337536  0.64151952  1  0  -0.518591  0  1.91501  0  0  -0.486653  0  2.129822  0  0  -0.510108  0  2.126468  0  0  -0.285051  -0.464482  0  2.128373  0
O  O119  1  0.19855267  0.52664053  0.35848138  1  0  -0.518656  0  1.914807  0  0  -0.4866  0  2.129749  0  0  -0.510056  0  2.126372  0  0  -0.284948  -0.464425  0  2.128303  0
