# generated using pymatgen
data_CaH10C10(NCl)2
_symmetry_space_group_name_H-M   'P 1'
_cell_length_a   3.94946047
_cell_length_b   9.24794758
_cell_length_c   16.45803202
_cell_angle_alpha   88.46407372
_cell_angle_beta   83.14550979
_cell_angle_gamma   77.12632170
_symmetry_Int_Tables_number   1
_chemical_formula_structural   CaH10C10(NCl)2
_chemical_formula_sum   'Ca2 H20 C20 N4 Cl4'
_cell_volume   581.82129730
_cell_formula_units_Z   2
loop_
 _symmetry_equiv_pos_site_id
 _symmetry_equiv_pos_as_xyz
  1  'x, y, z'
loop_
 _atom_site_type_symbol
 _atom_site_label
 _atom_site_symmetry_multiplicity
 _atom_site_fract_x
 _atom_site_fract_y
 _atom_site_fract_z
 _atom_site_occupancy
 _atom_site_hle17_bader_spin_density
 _atom_site_hle17_ddec_charge
 _atom_site_hle17_ddec_spin_density
 _atom_site_hle17_ddec_sum_bond_order
 _atom_site_hle17_magmom
 _atom_site_hse06_10hf_bader_spin_density
 _atom_site_hse06_10hf_ddec_charge
 _atom_site_hse06_10hf_ddec_spin_density
 _atom_site_hse06_10hf_ddec_sum_bond_order
 _atom_site_hse06_10hf_magmom
 _atom_site_hse06_bader_spin_density
 _atom_site_hse06_ddec_charge
 _atom_site_hse06_ddec_spin_density
 _atom_site_hse06_ddec_sum_bond_order
 _atom_site_hse06_magmom
 _atom_site_pbe_bader_spin_density
 _atom_site_pbe_cm5_charge
 _atom_site_pbe_ddec_charge
 _atom_site_pbe_ddec_spin_density
 _atom_site_pbe_ddec_sum_bond_order
 _atom_site_pbe_magmom
Ca  Ca0  1  0.98453225  0.99937656  0.99958969  1  0  1.286405  0  1.37176  0  0  1.159947  0  1.717891  0  0  1.197061  0  1.689021  0  0  0.60861  1.131596  0  1.739876  0
Ca  Ca1  1  0.23459316  0.49913855  0.50033976  1  0  1.286626  0  1.371716  0  0  1.160872  0  1.716416  0  0  1.198022  0  1.687458  0  0  0.608941  1.132517  0  1.738473  0
H  H2  1  0.23942850  0.87815225  0.17959475  1  0  0.067417  0  0.966398  0  0  0.073955  0  1.037565  0  0  0.076321  0  1.035626  0  0  0.109917  0.072221  0  1.0392  0
H  H3  1  0.29670405  0.12101931  0.82010994  1  0  0.067143  0  0.967016  0  0  0.073667  0  1.038271  0  0  0.076108  0  1.036216  0  0  0.109857  0.071861  0  1.039869  0
H  H4  1  0.66949248  0.37810102  0.32031132  1  0  0.068161  0  0.965686  0  0  0.07437  0  1.037161  0  0  0.076821  0  1.035146  0  0  0.110219  0.072584  0  1.038836  0
H  H5  1  0.36726015  0.62016810  0.67998962  1  0  0.067803  0  0.966477  0  0  0.074279  0  1.037668  0  0  0.07681  0  1.035495  0  0  0.109992  0.072433  0  1.039324  0
H  H6  1  0.30571430  0.65990998  0.27551011  1  0  0.106604  0  0.966939  0  0  0.11349  0  1.03253  0  0  0.116801  0  1.031381  0  0  0.099098  0.111171  0  1.033129  0
H  H7  1  0.24133084  0.34094195  0.72558705  1  0  0.106219  0  0.966896  0  0  0.11344  0  1.031971  0  0  0.116727  0  1.030862  0  0  0.099618  0.110926  0  1.033211  0
H  H8  1  0.83175106  0.15980872  0.22446426  1  0  0.107536  0  0.966434  0  0  0.11401  0  1.032458  0  0  0.117387  0  1.031229  0  0  0.09933  0.111649  0  1.033097  0
H  H9  1  0.21823501  0.83994192  0.77460485  1  0  0.107052  0  0.965971  0  0  0.113922  0  1.03128  0  0  0.117237  0  1.03014  0  0  0.099398  0.111379  0  1.032568  0
H  H10  1  0.17632157  0.42340697  0.22881279  1  0  0.088783  0  0.954909  0  0  0.10102  0  1.014605  0  0  0.103103  0  1.013764  0  0  0.104787  0.09949  0  1.015164  0
H  H11  1  0.82469596  0.57872851  0.77299780  1  0  0.088433  0  0.953506  0  0  0.100588  0  1.013409  0  0  0.102619  0  1.012664  0  0  0.104781  0.099264  0  1.013714  0
H  H12  1  0.65537745  0.92336849  0.27114436  1  0  0.088873  0  0.954784  0  0  0.100786  0  1.014838  0  0  0.102873  0  1.014023  0  0  0.105026  0.099258  0  1.015392  0
H  H13  1  0.84958798  0.07798225  0.72720925  1  0  0.088019  0  0.954763  0  0  0.100065  0  1.014559  0  0  0.102082  0  1.013849  0  0  0.104719  0.098745  0  1.014845  0
H  H14  1  0.97823394  0.41581779  0.09051294  1  0  0.101502  0  0.967346  0  0  0.109311  0  1.031678  0  0  0.112315  0  1.030946  0  0  0.101025  0.10665  0  1.03344  0
H  H15  1  0.47740235  0.58564145  0.91071514  1  0  0.10228  0  0.967428  0  0  0.109608  0  1.032747  0  0  0.112696  0  1.031935  0  0  0.101315  0.107085  0  1.033921  0
H  H16  1  0.31913253  0.91578930  0.40934380  1  0  0.103199  0  0.965631  0  0  0.110857  0  1.029995  0  0  0.11388  0  1.029228  0  0  0.101664  0.108187  0  1.031785  0
H  H17  1  0.63973503  0.08532232  0.58941202  1  0  0.102695  0  0.968157  0  0  0.109988  0  1.033519  0  0  0.113101  0  1.032633  0  0  0.101505  0.107435  0  1.034752  0
H  H18  1  0.90458707  0.64747329  0.00445219  1  0  0.065376  0  0.971751  0  0  0.069715  0  1.04659  0  0  0.072252  0  1.044786  0  0  0.109064  0.068092  0  1.047348  0
H  H19  1  0.55076790  0.35277904  0.99573359  1  0  0.065831  0  0.970733  0  0  0.070212  0  1.045403  0  0  0.072654  0  1.043743  0  0  0.108935  0.068269  0  1.04685  0
H  H20  1  0.15963475  0.14745192  0.49536933  1  0  0.065767  0  0.971798  0  0  0.070124  0  1.046383  0  0  0.07258  0  1.044701  0  0  0.109081  0.068559  0  1.047077  0
H  H21  1  0.79701830  0.85258178  0.50434234  1  0  0.065398  0  0.971365  0  0  0.070434  0  1.045359  0  0  0.072908  0  1.043622  0  0  0.109084  0.068466  0  1.046861  0
C  C22  1  0.17940243  0.77380316  0.16302891  1  0  0.116158  0  3.733803  0  0  0.088592  0  3.987591  0  0  0.094527  0  4.006414  0  0  0.045726  0.084583  0  3.97563  0
C  C23  1  0.11383971  0.22588852  0.83696119  1  0  0.117811  0  3.734258  0  0  0.090149  0  3.988557  0  0  0.096079  0  4.007333  0  0  0.046257  0.085966  0  3.975755  0
C  C24  1  0.59292441  0.27373208  0.33686098  1  0  0.116661  0  3.734838  0  0  0.089212  0  3.988804  0  0  0.095069  0  4.00761  0  0  0.045637  0.085244  0  3.97687  0
C  C25  1  0.20134980  0.72512901  0.66315889  1  0  0.116973  0  3.734497  0  0  0.089497  0  3.988495  0  0  0.095351  0  4.00734  0  0  0.04627  0.085351  0  3.975662  0
C  C26  1  0.21885445  0.65223891  0.21565829  1  0  -0.118372  0  3.735418  0  0  -0.128818  0  3.982744  0  0  -0.135634  0  4.004733  0  0  -0.083778  -0.124445  0  3.967535  0
C  C27  1  0.08447791  0.34846200  0.78509302  1  0  -0.118665  0  3.738279  0  0  -0.129578  0  3.985858  0  0  -0.136374  0  4.007856  0  0  -0.084805  -0.125135  0  3.971491  0
C  C28  1  0.68501259  0.15215854  0.28427968  1  0  -0.119999  0  3.736533  0  0  -0.130181  0  3.984057  0  0  -0.137056  0  4.006036  0  0  -0.084107  -0.12576  0  3.968866  0
C  C29  1  0.12112751  0.84763897  0.71502460  1  0  -0.12047  0  3.737494  0  0  -0.131204  0  3.984977  0  0  -0.138028  0  4.007013  0  0  -0.084671  -0.126743  0  3.970574  0
C  C30  1  0.14638424  0.52120770  0.18962291  1  0  -0.003496  0  3.715438  0  0  -0.021675  0  3.958845  0  0  -0.018723  0  3.978168  0  0  -0.066742  -0.023287  0  3.946021  0
C  C31  1  0.85306413  0.48009871  0.81152937  1  0  -0.001201  0  3.716458  0  0  -0.018848  0  3.959586  0  0  -0.015841  0  3.978845  0  0  -0.06598  -0.020947  0  3.946277  0
C  C32  1  0.58621686  0.02117534  0.31030311  1  0  -0.003146  0  3.715532  0  0  -0.020895  0  3.95864  0  0  -0.017954  0  3.977916  0  0  -0.066806  -0.022517  0  3.945826  0
C  C33  1  0.91604363  0.97940254  0.68866036  1  0  0.000286  0  3.716213  0  0  -0.016832  0  3.958377  0  0  -0.013801  0  3.977617  0  0  -0.065622  -0.018942  0  3.945076  0
C  C34  1  0.03541041  0.51680242  0.11259342  1  0  -0.12377  0  3.740707  0  0  -0.131817  0  3.982815  0  0  -0.138704  0  4.005198  0  0  -0.084866  -0.127476  0  3.968893  0
C  C35  1  0.65872398  0.48414750  0.88826058  1  0  -0.125994  0  3.743034  0  0  -0.134281  0  3.986046  0  0  -0.141234  0  4.008363  0  0  -0.0857  -0.129297  0  3.970262  0
C  C36  1  0.39841955  0.01675821  0.38730220  1  0  -0.125447  0  3.740245  0  0  -0.133471  0  3.982187  0  0  -0.140372  0  4.004535  0  0  -0.086137  -0.129128  0  3.968328  0
C  C37  1  0.79869523  0.98376030  0.61182729  1  0  -0.127355  0  3.744579  0  0  -0.135928  0  3.987604  0  0  -0.142901  0  4.009939  0  0  -0.086314  -0.130907  0  3.971799  0
C  C38  1  0.99845180  0.64431872  0.06442302  1  0  0.121555  0  3.729151  0  0  0.094943  0  3.981401  0  0  0.100762  0  4.000333  0  0  0.04651  0.091365  0  3.968107  0
C  C39  1  0.70159097  0.35584582  0.93580700  1  0  0.119363  0  3.730236  0  0  0.09255  0  3.982861  0  0  0.098393  0  4.001877  0  0  0.045955  0.089422  0  3.968986  0
C  C40  1  0.31324504  0.14428594  0.43540979  1  0  0.119181  0  3.72992  0  0  0.092638  0  3.98234  0  0  0.098487  0  4.001282  0  0  0.045653  0.089032  0  3.969011  0
C  C41  1  0.88799143  0.85546303  0.56430832  1  0  0.120419  0  3.730768  0  0  0.093031  0  3.983624  0  0  0.09889  0  4.002671  0  0  0.046193  0.089893  0  3.969725  0
N  N42  1  0.06912847  0.77141952  0.08870418  1  0  -0.393529  0  3.213717  0  0  -0.333261  0  3.479246  0  0  -0.350246  0  3.499468  0  0  -0.374483  -0.321872  0  3.467198  0
N  N43  1  0.92497499  0.22803859  0.91100359  1  0  -0.393793  0  3.21691  0  0  -0.333631  0  3.483101  0  0  -0.350587  0  3.503337  0  0  -0.373678  -0.321461  0  3.468786  0
N  N44  1  0.40834040  0.27134251  0.41113744  1  0  -0.392291  0  3.213907  0  0  -0.33203  0  3.479257  0  0  -0.34904  0  3.499574  0  0  -0.373323  -0.320627  0  3.467162  0
N  N45  1  0.08679722  0.72757948  0.58902779  1  0  -0.393463  0  3.216801  0  0  -0.333453  0  3.483143  0  0  -0.350464  0  3.503517  0  0  -0.37417  -0.321246  0  3.468751  0
Cl  Cl46  1  0.37439447  0.11981992  0.09327725  1  0  -0.671582  0  0.780941  0  0  -0.615356  0  1.025028  0  0  -0.631164  0  1.00854  0  0  -0.310843  -0.602028  0  1.037467  0
Cl  Cl47  1  0.59333335  0.87861760  0.90596873  1  0  -0.670423  0  0.78195  0  0  -0.613758  0  1.02665  0  0  -0.62977  0  1.010293  0  0  -0.310374  -0.601832  0  1.038953  0
Cl  Cl48  1  0.71751358  0.61973343  0.40667181  1  0  -0.671728  0  0.780271  0  0  -0.616042  0  1.024632  0  0  -0.63183  0  1.008048  0  0  -0.311177  -0.60274  0  1.03716  0
Cl  Cl49  1  0.75036470  0.37823598  0.59394959  1  0  -0.670804  0  0.782246  0  0  -0.614211  0  1.026428  0  0  -0.63019  0  1.009951  0  0  -0.31059  -0.602306  0  1.038804  0
