# generated using pymatgen
data_Zn2H23C26I(NO4)2
_symmetry_space_group_name_H-M   'P 1'
_cell_length_a   9.74644566
_cell_length_b   10.85346106
_cell_length_c   11.10495122
_cell_angle_alpha   89.50264743
_cell_angle_beta   90.89888086
_cell_angle_gamma   89.75926294
_symmetry_Int_Tables_number   1
_chemical_formula_structural   Zn2H23C26I(NO4)2
_chemical_formula_sum   'Zn2 H23 C26 I1 N2 O8'
_cell_volume   1174.51150724
_cell_formula_units_Z   1
loop_
 _symmetry_equiv_pos_site_id
 _symmetry_equiv_pos_as_xyz
  1  'x, y, z'
loop_
 _atom_site_type_symbol
 _atom_site_label
 _atom_site_symmetry_multiplicity
 _atom_site_fract_x
 _atom_site_fract_y
 _atom_site_fract_z
 _atom_site_occupancy
 _atom_site_pbe_bader_charge
 _atom_site_pbe_bader_spin_density
 _atom_site_pbe_cm5_charge
 _atom_site_pbe_ddec_charge
 _atom_site_pbe_ddec_spin_density
 _atom_site_pbe_ddec_sum_bond_order
 _atom_site_pbe_magmom
Zn  Zn0  1  0.35418723  0.50841437  0.49565081  1  1.272933  0  0.659103  0.808518  0  2.4221  0
Zn  Zn1  1  0.63579023  0.50895108  0.49833995  1  1.264425  0  0.663916  0.812813  0  2.449701  0
H  H2  1  0.31668837  0.90502504  0.39904748  1  0.020269  0  0.080459  0.079654  0  1.021004  0
H  H3  1  0.35761393  0.23610036  0.12791426  1  0.062737  0  0.096375  0.106036  0  0.991764  0
H  H4  1  0.87039380  0.48061798  0.68250458  1  0.180991  0  0.136583  0.120437  0  0.978008  0
H  H5  1  0.46465653  0.88428754  0.31220984  1  0.012261  0  0.084827  0.082711  0  0.986204  0
H  H6  1  0.13079163  0.48817176  0.68112886  1  0.149082  0  0.135668  0.119595  0  0.984913  0
H  H7  1  0.12621580  0.48797529  0.21353925  1  0.14013  0  0.111559  0.124735  0  0.996167  0
H  H8  1  0.84994619  0.62867491  0.23510959  1  0.101013  0  0.10845  0.139703  0  0.99051  0
H  H9  1  0.86366377  0.46638459  0.21532050  1  0.11037  0  0.117576  0.151641  0  0.949208  0
H  H10  1  0.50768238  0.09656468  0.30183343  1  0.006131  0  0.087139  0.081721  0  0.983279  0
H  H11  1  0.33854235  0.11630631  0.35492134  1  0.004805  0  0.088  0.085281  0  0.992841  0
H  H12  1  0.33067787  0.89497666  0.62729402  1  0.018313  0  0.089799  0.091155  0  0.985356  0
H  H13  1  0.68489784  0.11371674  0.59964478  1  0.023118  0  0.085828  0.082637  0  0.980738  0
H  H14  1  0.30189694  0.10551671  0.58026984  1  0.063433  0  0.089108  0.089915  0  0.987277  0
H  H15  1  0.71040860  0.89977465  0.57850104  1  0.049823  0  0.086552  0.08572  0  0.994725  0
H  H16  1  0.69985038  0.91032576  0.42064424  1  0.022645  0  0.084914  0.081947  0  0.984651  0
H  H17  1  0.71121886  0.12492530  0.44364347  1  0.038416  0  0.085637  0.085314  0  0.996368  0
H  H18  1  0.49210943  0.92088539  0.69770162  1  0.01309  0  0.087421  0.082169  0  0.981617  0
H  H19  1  0.43905796  0.13138063  0.68209710  1  -0.021812  0  0.08692  0.079443  0  0.992872  0
H  H20  1  0.64400931  0.65128495  0.10214220  1  0.067958  0  0.099186  0.100837  0  1.009656  0
H  H21  1  0.64858814  0.63531507  0.87983443  1  0.0307  0  0.101582  0.106728  0  0.995228  0
H  H22  1  0.22048954  0.32201412  0.88946141  1  0.022204  0  0.092037  0.097432  0  0.992326  0
H  H23  1  0.36296311  0.21897435  0.90282185  1  0.065529  0  0.095397  0.102418  0  0.990027  0
H  H24  1  0.21540387  0.33876922  0.11500551  1  0.021918  0  0.089036  0.092737  0  1.010727  0
C  C25  1  0.49241166  0.51834951  0.26108658  1  1.57518  0  0.212101  0.594537  0  4.185763  0
C  C26  1  0.41756404  0.41400426  0.93899637  1  -0.008503  0  -0.013481  0.042751  0  3.902298  0
C  C27  1  0.31929383  0.30565922  0.93598157  1  -0.048697  0  -0.15171  -0.192971  0  3.881903  0
C  C28  1  0.50274112  0.74770998  0.51104231  1  1.584976  0  0.222028  0.595491  0  4.088887  0
C  C29  1  0.31627132  0.31623138  0.07795456  1  -0.012885  0  -0.152066  -0.192382  0  3.877963  0
C  C30  1  0.92024568  0.52771287  0.39866647  1  0.617528  0  0.150917  0.214893  0  3.857622  0
C  C31  1  0.92635417  0.49523218  0.59931132  1  0.469502  0  0.072446  0.054327  0  3.841708  0
C  C32  1  0.06968438  0.50016669  0.59869436  1  0.448836  0  0.070965  0.049475  0  3.844494  0
C  C33  1  0.06307415  0.53515109  0.39869141  1  0.546933  0  0.13764  0.16292  0  3.879693  0
C  C34  1  0.06802415  0.55557870  0.26455410  1  -0.175006  0  -0.087652  -0.070697  0  3.706424  0
C  C35  1  0.90568922  0.54557408  0.26413540  1  -0.013594  0  -0.142064  -0.2599  0  3.833333  0
C  C36  1  0.49754642  0.12898755  0.49389051  1  0.090397  0  -0.017349  0.025369  0  3.796784  0
C  C37  1  0.49920414  0.48812274  0.73404083  1  1.601382  0  0.217052  0.608779  0  4.172579  0
C  C38  1  0.48989507  0.26937682  0.48654893  1  1.513821  0  0.220317  0.591162  0  4.096329  0
C  C39  1  0.42458642  0.93231008  0.39123394  1  -0.009076  0  -0.164215  -0.176614  0  3.866905  0
C  C40  1  0.43858420  0.07353467  0.37617637  1  -0.002984  0  -0.159012  -0.171557  0  3.862365  0
C  C41  1  0.42974596  0.94140768  0.61637504  1  -0.010904  0  -0.158628  -0.171046  0  3.859647  0
C  C42  1  0.64993378  0.94014771  0.50372948  1  -0.023426  0  -0.167158  -0.17865  0  3.892757  0
C  C43  1  0.50335361  0.88829185  0.50578747  1  0.025138  0  -0.01737  0.028721  0  3.788733  0
C  C44  1  0.40981150  0.08210459  0.59942858  1  -0.032294  0  -0.160797  -0.171878  0  3.871237  0
C  C45  1  0.64569514  0.08225862  0.51168099  1  -0.062293  0  -0.166618  -0.17652  0  3.89093  0
C  C46  1  0.41502589  0.42312582  0.06430094  1  -0.012176  0  -0.010734  0.053419  0  3.898978  0
C  C47  1  0.49468843  0.50799563  0.12734762  1  -0.00891  0  -0.02017  -0.083645  0  4.004703  0
C  C48  1  0.57998109  0.58323817  0.05681345  1  -0.010195  0  -0.093011  -0.111109  0  4.01907  0
C  C49  1  0.58250774  0.57436353  0.93151673  1  -0.016819  0  -0.093425  -0.119065  0  4.009867  0
C  C50  1  0.49954541  0.48964307  0.86857301  1  -0.094313  0  -0.013175  -0.061057  0  3.980804  0
I  I51  1  0.14396386  0.73250757  0.20664914  1  0.076147  0  0.060666  -0.032885  0  1.275164  0
N  N52  1  0.84839140  0.50749350  0.49735021  1  -1.189714  0  -0.28234  -0.172488  0  3.441835  0
N  N53  1  0.14157066  0.51950996  0.49648681  1  -1.211046  0  -0.279569  -0.158952  0  3.440736  0
O  O54  1  0.37781133  0.49803062  0.31122398  1  -1.165614  0  -0.313405  -0.542396  0  2.336325  0
O  O55  1  0.60460706  0.54544840  0.31485835  1  -1.168391  0  -0.316203  -0.547242  0  2.312726  0
O  O56  1  0.38716203  0.69443459  0.49762757  1  -1.175165  0  -0.323836  -0.56418  0  2.349586  0
O  O57  1  0.61718582  0.69261448  0.52743775  1  -1.169827  0  -0.321512  -0.546639  0  2.339903  0
O  O58  1  0.38223825  0.49692024  0.68176381  1  -1.16191  0  -0.315539  -0.54877  0  2.294394  0
O  O59  1  0.61504522  0.48091287  0.68307488  1  -1.165669  0  -0.319132  -0.556846  0  2.300793  0
O  O60  1  0.37231084  0.31889740  0.49781901  1  -1.161373  0  -0.322706  -0.548704  0  2.315609  0
O  O61  1  0.60150390  0.32776153  0.46956170  1  -1.179541  0  -0.324331  -0.556947  0  2.350413  0
