# generated using pymatgen
data_CdH8C12(NO3)2
_symmetry_space_group_name_H-M   'P 1'
_cell_length_a   6.73164444
_cell_length_b   10.18351104
_cell_length_c   10.18349672
_cell_angle_alpha   90.81927454
_cell_angle_beta   88.00902902
_cell_angle_gamma   88.01181651
_symmetry_Int_Tables_number   1
_chemical_formula_structural   CdH8C12(NO3)2
_chemical_formula_sum   'Cd2 H16 C24 N4 O12'
_cell_volume   697.17134394
_cell_formula_units_Z   2
loop_
 _symmetry_equiv_pos_site_id
 _symmetry_equiv_pos_as_xyz
  1  'x, y, z'
loop_
 _atom_site_type_symbol
 _atom_site_label
 _atom_site_symmetry_multiplicity
 _atom_site_fract_x
 _atom_site_fract_y
 _atom_site_fract_z
 _atom_site_occupancy
 _atom_site_hle17_bader_spin_density
 _atom_site_hle17_ddec_charge
 _atom_site_hle17_ddec_spin_density
 _atom_site_hle17_ddec_sum_bond_order
 _atom_site_hle17_magmom
 _atom_site_hse06_10hf_bader_spin_density
 _atom_site_hse06_10hf_ddec_charge
 _atom_site_hse06_10hf_ddec_spin_density
 _atom_site_hse06_10hf_ddec_sum_bond_order
 _atom_site_hse06_10hf_magmom
 _atom_site_hse06_bader_spin_density
 _atom_site_hse06_ddec_charge
 _atom_site_hse06_ddec_spin_density
 _atom_site_hse06_ddec_sum_bond_order
 _atom_site_hse06_magmom
 _atom_site_pbe_bader_spin_density
 _atom_site_pbe_cm5_charge
 _atom_site_pbe_ddec_charge
 _atom_site_pbe_ddec_spin_density
 _atom_site_pbe_ddec_sum_bond_order
 _atom_site_pbe_magmom
Cd  Cd0  1  0.25000243  0.57665510  0.42335232  1  0  1.240986  0  1.647335  0  0  1.058555  0  2.121565  0  0  1.118343  0  2.058816  0  0  0.770258  1.013018  0  2.167631  0
Cd  Cd1  1  0.74999826  0.42334528  0.57664944  1  0  1.241021  0  1.647261  0  0  1.058582  0  2.12149  0  0  1.11837  0  2.058739  0  0  0.770264  1.013041  0  2.167558  0
H  H2  1  0.09529931  0.21965931  0.65306463  1  0  0.132592  0  0.950085  0  0  0.138842  0  1.012607  0  0  0.143315  0  1.007738  0  0  0.132515  0.135587  0  1.016298  0
H  H3  1  0.59531003  0.65305462  0.21965715  1  0  0.132532  0  0.950174  0  0  0.138855  0  1.012607  0  0  0.143331  0  1.007732  0  0  0.132541  0.135601  0  1.016298  0
H  H4  1  0.90469858  0.78033601  0.34692442  1  0  0.132615  0  0.950084  0  0  0.13896  0  1.012492  0  0  0.143447  0  1.007591  0  0  0.132542  0.135702  0  1.016186  0
H  H5  1  0.40468328  0.34694678  0.78035268  1  0  0.132515  0  0.950203  0  0  0.138861  0  1.012601  0  0  0.143348  0  1.007706  0  0  0.132554  0.135604  0  1.016297  0
H  H6  1  0.21884060  0.30379005  0.26237439  1  0  0.124901  0  0.94978  0  0  0.130654  0  1.015942  0  0  0.134722  0  1.012172  0  0  0.129049  0.127638  0  1.018775  0
H  H7  1  0.71880666  0.26236290  0.30379087  1  0  0.124816  0  0.949755  0  0  0.130551  0  1.01594  0  0  0.134614  0  1.012188  0  0  0.129001  0.127534  0  1.018778  0
H  H8  1  0.78117464  0.69621431  0.73762303  1  0  0.124768  0  0.949772  0  0  0.130458  0  1.016028  0  0  0.134516  0  1.012283  0  0  0.128966  0.127444  0  1.018857  0
H  H9  1  0.28119581  0.73763357  0.69621278  1  0  0.124711  0  0.949745  0  0  0.130479  0  1.015947  0  0  0.134548  0  1.012172  0  0  0.128987  0.12746  0  1.018782  0
H  H10  1  0.21168016  0.98209339  0.61862656  1  0  0.121214  0  0.924176  0  0  0.133134  0  0.976112  0  0  0.136227  0  0.975492  0  0  0.117861  0.130878  0  0.976961  0
H  H11  1  0.71168386  0.61860538  0.98209190  1  0  0.12134  0  0.924105  0  0  0.133219  0  0.97606  0  0  0.136317  0  0.975431  0  0  0.117911  0.130939  0  0.976947  0
H  H12  1  0.78831329  0.01790191  0.38136360  1  0  0.121297  0  0.924157  0  0  0.133135  0  0.976146  0  0  0.13622  0  0.975547  0  0  0.117917  0.130902  0  0.976972  0
H  H13  1  0.28830659  0.38139402  0.01791703  1  0  0.12133  0  0.924189  0  0  0.133223  0  0.976131  0  0  0.136318  0  0.975505  0  0  0.117873  0.130945  0  0.977004  0
H  H14  1  0.34946127  0.06731396  0.21376280  1  0  0.12629  0  0.921781  0  0  0.137566  0  0.972507  0  0  0.141406  0  0.970777  0  0  0.119892  0.134701  0  0.974129  0
H  H15  1  0.84942746  0.21374005  0.06731602  1  0  0.126283  0  0.921848  0  0  0.137532  0  0.972579  0  0  0.141362  0  0.970837  0  0  0.119865  0.134633  0  0.974242  0
H  H16  1  0.65054940  0.93269132  0.78623083  1  0  0.126265  0  0.92183  0  0  0.13755  0  0.972561  0  0  0.14139  0  0.970833  0  0  0.119907  0.134686  0  0.97418  0
H  H17  1  0.15057469  0.78626135  0.93268865  1  0  0.126265  0  0.921813  0  0  0.137529  0  0.97253  0  0  0.141363  0  0.97079  0  0  0.119893  0.134629  0  0.974195  0
C  C18  1  0.28747403  0.00641464  0.41270099  1  0  -0.015982  0  3.713508  0  0  -0.004776  0  3.954532  0  0  -0.006003  0  3.974323  0  0  -0.001237  -0.003996  0  3.941813  0
C  C19  1  0.78746115  0.41267452  0.00641762  1  0  -0.016252  0  3.713654  0  0  -0.004985  0  3.954546  0  0  -0.006219  0  3.974348  0  0  -0.001354  -0.004193  0  3.941805  0
C  C20  1  0.71252822  0.99358269  0.58729090  1  0  -0.016159  0  3.713432  0  0  -0.004848  0  3.954299  0  0  -0.006072  0  3.974092  0  0  -0.001425  -0.004065  0  3.941584  0
C  C21  1  0.21253371  0.58732590  0.99359217  1  0  -0.016125  0  3.713557  0  0  -0.004883  0  3.954477  0  0  -0.006115  0  3.974276  0  0  -0.001194  -0.004092  0  3.941741  0
C  C22  1  0.15332122  0.17892456  0.55895378  1  0  0.034496  0  3.550222  0  0  -0.005061  0  3.806941  0  0  0.00254  0  3.817004  0  0  0.051462  -0.010178  0  3.801158  0
C  C23  1  0.65331644  0.55894066  0.17892378  1  0  0.034535  0  3.550488  0  0  -0.005017  0  3.807076  0  0  0.002578  0  3.817152  0  0  0.051449  -0.010136  0  3.801293  0
C  C24  1  0.84667359  0.82107272  0.44103733  1  0  0.034258  0  3.550321  0  0  -0.005365  0  3.807009  0  0  0.002235  0  3.817078  0  0  0.051319  -0.010482  0  3.801237  0
C  C25  1  0.34667547  0.44105873  0.82108314  1  0  0.034702  0  3.550341  0  0  -0.00483  0  3.806868  0  0  0.002776  0  3.816917  0  0  0.051536  -0.009955  0  3.801087  0
C  C26  1  0.22486440  0.22605677  0.33474266  1  0  0.0004  0  3.588281  0  0  -0.040919  0  3.851816  0  0  -0.034908  0  3.864824  0  0  0.038677  -0.044772  0  3.842975  0
C  C27  1  0.72484411  0.33473379  0.22606037  1  0  0.000683  0  3.588006  0  0  -0.040637  0  3.851532  0  0  -0.034627  0  3.86453  0  0  0.038803  -0.044489  0  3.842684  0
C  C28  1  0.77514613  0.77395047  0.66525098  1  0  0.000645  0  3.588249  0  0  -0.040625  0  3.85183  0  0  -0.034618  0  3.86484  0  0  0.038759  -0.044484  0  3.842985  0
C  C29  1  0.27515388  0.66526367  0.77394637  1  0  0.000758  0  3.588083  0  0  -0.040668  0  3.851728  0  0  -0.034659  0  3.864741  0  0  0.038793  -0.044512  0  3.842866  0
C  C30  1  0.34693444  0.86389287  0.38599894  1  0  0.629593  0  3.964226  0  0  0.582213  0  4.264809  0  0  0.615141  0  4.258863  0  0  0.194646  0.559495  0  4.268585  0
C  C31  1  0.84691967  0.38597664  0.86389438  1  0  0.63015  0  3.963731  0  0  0.582743  0  4.264301  0  0  0.615671  0  4.258349  0  0  0.19477  0.560031  0  4.268076  0
C  C32  1  0.65307249  0.13610260  0.61399967  1  0  0.629415  0  3.964338  0  0  0.581992  0  4.264952  0  0  0.614923  0  4.259005  0  0  0.194616  0.559273  0  4.268722  0
C  C33  1  0.15307145  0.61403351  0.13610770  1  0  0.629973  0  3.96372  0  0  0.582575  0  4.264308  0  0  0.615503  0  4.258356  0  0  0.1947  0.559855  0  4.268092  0
C  C34  1  0.21724667  0.04983475  0.53720258  1  0  -0.085785  0  3.724817  0  0  -0.107358  0  3.978472  0  0  -0.1119  0  3.998295  0  0  -0.067589  -0.105128  0  3.966665  0
C  C35  1  0.71724232  0.53718301  0.04983134  1  0  -0.085915  0  3.724898  0  0  -0.107498  0  3.978524  0  0  -0.112041  0  3.998353  0  0  -0.067664  -0.105263  0  3.966723  0
C  C36  1  0.78275710  0.95016159  0.46278730  1  0  -0.085666  0  3.7248  0  0  -0.107186  0  3.978385  0  0  -0.111728  0  3.998202  0  0  -0.067528  -0.104977  0  3.966586  0
C  C37  1  0.28274959  0.46281741  0.95018049  1  0  -0.086131  0  3.724966  0  0  -0.107743  0  3.978592  0  0  -0.112281  0  3.998419  0  0  -0.067766  -0.105499  0  3.966788  0
C  C38  1  0.29373241  0.09807765  0.31152633  1  0  -0.101213  0  3.731466  0  0  -0.119599  0  3.978357  0  0  -0.124378  0  3.998062  0  0  -0.070442  -0.116383  0  3.96518  0
C  C39  1  0.79370433  0.31150550  0.09808436  1  0  -0.101284  0  3.731681  0  0  -0.119614  0  3.978426  0  0  -0.12437  0  3.998109  0  0  -0.070433  -0.116371  0  3.965264  0
C  C40  1  0.70628173  0.90191873  0.68846030  1  0  -0.10119  0  3.731575  0  0  -0.119609  0  3.978438  0  0  -0.12439  0  3.998148  0  0  -0.070419  -0.11639  0  3.965256  0
C  C41  1  0.20629804  0.68849296  0.90192127  1  0  -0.101239  0  3.731393  0  0  -0.119558  0  3.978195  0  0  -0.124321  0  3.997887  0  0  -0.070522  -0.116318  0  3.965038  0
N  N42  1  0.15399465  0.26333201  0.45712220  1  0  0.288641  0  3.67714  0  0  0.338351  0  3.93753  0  0  0.338592  0  3.958789  0  0  -0.112775  0.337145  0  3.922731  0
N  N43  1  0.65398244  0.45711675  0.26333133  1  0  0.288695  0  3.677037  0  0  0.338363  0  3.937457  0  0  0.338601  0  3.958718  0  0  -0.112715  0.337158  0  3.922661  0
N  N44  1  0.84600903  0.73666633  0.54287063  1  0  0.288652  0  3.677062  0  0  0.338355  0  3.937462  0  0  0.338595  0  3.958726  0  0  -0.112657  0.337148  0  3.922665  0
N  N45  1  0.34601239  0.54288365  0.73667649  1  0  0.288594  0  3.677251  0  0  0.338233  0  3.937727  0  0  0.338474  0  3.958992  0  0  -0.112784  0.33703  0  3.922927  0
O  O46  1  0.44161524  0.83227069  0.28234722  1  0  -0.594872  0  1.908145  0  0  -0.555065  0  2.120647  0  0  -0.577885  0  2.112891  0  0  -0.321747  -0.538688  0  2.125824  0
O  O47  1  0.94160012  0.28232342  0.83226430  1  0  -0.595119  0  1.907575  0  0  -0.555288  0  2.120077  0  0  -0.578108  0  2.112317  0  0  -0.321791  -0.538913  0  2.12525  0
O  O48  1  0.55839034  0.16772178  0.71764651  1  0  -0.594678  0  1.908289  0  0  -0.554872  0  2.120807  0  0  -0.577691  0  2.113049  0  0  -0.321637  -0.538496  0  2.125979  0
O  O49  1  0.05839842  0.71768677  0.16773657  1  0  -0.595025  0  1.907796  0  0  -0.555211  0  2.120299  0  0  -0.578034  0  2.112539  0  0  -0.321748  -0.538831  0  2.125471  0
O  O50  1  0.07849323  0.38451970  0.47681070  1  0  -0.590509  0  1.915037  0  0  -0.530385  0  2.190885  0  0  -0.557995  0  2.184768  0  0  -0.250083  -0.508644  0  2.194551  0
O  O51  1  0.57848546  0.47680522  0.38452407  1  0  -0.590573  0  1.914919  0  0  -0.530448  0  2.190791  0  0  -0.558057  0  2.184678  0  0  -0.250144  -0.508708  0  2.194458  0
O  O52  1  0.92151048  0.61547866  0.52318409  1  0  -0.590505  0  1.915005  0  0  -0.530389  0  2.190878  0  0  -0.557997  0  2.184756  0  0  -0.250106  -0.508643  0  2.19454  0
O  O53  1  0.42151435  0.52318838  0.61548751  1  0  -0.590477  0  1.915038  0  0  -0.530271  0  2.19084  0  0  -0.557879  0  2.184718  0  0  -0.250028  -0.50853  0  2.194501  0
O  O54  1  0.28726936  0.78573741  0.47761356  1  0  -0.690244  0  2.051037  0  0  -0.626883  0  2.321006  0  0  -0.658055  0  2.310525  0  0  -0.345392  -0.604164  0  2.327964  0
O  O55  1  0.78728041  0.47759009  0.78574169  1  0  -0.690402  0  2.051297  0  0  -0.627046  0  2.321311  0  0  -0.658222  0  2.310834  0  0  -0.345362  -0.604335  0  2.328278  0
O  O56  1  0.71274298  0.21426492  0.52238001  1  0  -0.690232  0  2.050971  0  0  -0.626858  0  2.320927  0  0  -0.658042  0  2.310471  0  0  -0.3454  -0.604143  0  2.32789  0
O  O57  1  0.21271405  0.52241622  0.21426813  1  0  -0.690357  0  2.050963  0  0  -0.627012  0  2.320985  0  0  -0.65819  0  2.310505  0  0  -0.345382  -0.604296  0  2.327953  0
