# generated using pymatgen
data_AlH6(C5O3)2
_symmetry_space_group_name_H-M   'P 1'
_cell_length_a   6.66012110
_cell_length_b   14.13134279
_cell_length_c   18.89544404
_cell_angle_alpha   101.09070604
_cell_angle_beta   90.00420564
_cell_angle_gamma   90.00143953
_symmetry_Int_Tables_number   1
_chemical_formula_structural   AlH6(C5O3)2
_chemical_formula_sum   'Al4 H24 C40 O24'
_cell_volume   1745.15909661
_cell_formula_units_Z   4
loop_
 _symmetry_equiv_pos_site_id
 _symmetry_equiv_pos_as_xyz
  1  'x, y, z'
loop_
 _atom_site_type_symbol
 _atom_site_label
 _atom_site_symmetry_multiplicity
 _atom_site_fract_x
 _atom_site_fract_y
 _atom_site_fract_z
 _atom_site_occupancy
 _atom_site_pbe_bader_charge
 _atom_site_pbe_bader_spin_density
 _atom_site_pbe_cm5_charge
 _atom_site_pbe_ddec_charge
 _atom_site_pbe_ddec_spin_density
 _atom_site_pbe_ddec_sum_bond_order
 _atom_site_pbe_magmom
Al  Al0  1  0.90789626  0.49930027  0.49575747  1  2.499638  0  0.399811  1.637227  0  2.582834  0
Al  Al1  1  0.40789275  0.50070327  0.50423204  1  2.499898  0  0.399544  1.636949  0  2.584642  0
Al  Al2  1  0.36971010  0.99957699  0.00213642  1  2.502414  0  0.398425  1.646917  0  2.580914  0
Al  Al3  1  0.86973345  0.00044443  0.99785416  1  2.502487  0  0.398541  1.646964  0  2.581071  0
H  H4  1  0.43085022  0.81267542  0.80899511  1  0.129648  0  0.119423  0.121773  0  0.969206  0
H  H5  1  0.93086137  0.18731945  0.19101567  1  0.129673  0  0.119424  0.121748  0  0.96925  0
H  H6  1  0.98070490  0.76121185  0.81328949  1  0.076187  0  0.115808  0.132585  0  0.98901  0
H  H7  1  0.48065203  0.23875338  0.18671697  1  0.075799  0  0.115918  0.132539  0  0.989061  0
H  H8  1  0.43401701  0.68633992  0.69726318  1  0.172022  0  0.11941  0.129354  0  0.993699  0
H  H9  1  0.93395423  0.31371474  0.30275221  1  0.172047  0  0.119473  0.129352  0  0.993278  0
H  H10  1  0.88731871  0.70671672  0.35877281  1  0.105257  0  0.114539  0.123293  0  0.987708  0
H  H11  1  0.38754611  0.29331840  0.64113731  1  0.101719  0  0.114525  0.123344  0  0.98754  0
H  H12  1  0.48835959  0.59878236  0.32007710  1  0.106075  0  0.113704  0.121521  0  0.98657  0
H  H13  1  0.98853611  0.40125666  0.67999879  1  0.106114  0  0.11384  0.121642  0  0.98665  0
H  H14  1  0.76508458  0.83593897  0.29491885  1  0.111056  0  0.111203  0.115668  0  0.998302  0
H  H15  1  0.26513154  0.16407827  0.70500919  1  0.11085  0  0.111234  0.11611  0  0.997971  0
H  H16  1  0.52923377  0.68920566  0.21965755  1  0.063864  0  0.104338  0.105421  0  1.001067  0
H  H17  1  0.02925370  0.31083613  0.78042089  1  0.063719  0  0.104286  0.105288  0  1.000751  0
H  H18  1  0.38912492  0.80303850  0.14646651  1  0.095313  0  0.111222  0.115413  0  0.993371  0
H  H19  1  0.88905817  0.19699329  0.85355921  1  0.095234  0  0.111222  0.115398  0  0.993415  0
H  H20  1  0.97763666  0.84189194  0.71134191  1  0.100197  0  0.102551  0.041416  0  0.988597  0
H  H21  1  0.47799214  0.15792770  0.28861072  1  0.098675  0  0.102295  0.041278  0  0.98864  0
H  H22  1  0.83448505  0.02144667  0.18492241  1  0.070347  0  0.101828  0.035678  0  1.024496  0
H  H23  1  0.33439521  0.97859686  0.81503412  1  0.071117  0  0.10162  0.035486  0  1.023996  0
H  H24  1  0.66655999  0.61954530  0.54041044  1  0.648227  0  0.350054  0.432109  0  0.860232  0
H  H25  1  0.16645401  0.38045390  0.45958117  1  0.64593  0  0.349996  0.432166  0  0.860289  0
H  H26  1  0.62419235  0.88373941  0.01950871  1  0.623188  0  0.359637  0.439464  0  0.839011  0
H  H27  1  0.12416703  0.11630459  0.98050182  1  0.622978  0  0.359589  0.439432  0  0.838993  0
C  C28  1  0.66528836  0.40636527  0.59506909  1  1.583582  0  0.264791  0.633993  0  4.111  0
C  C29  1  0.16505001  0.59365045  0.40491335  1  1.583264  0  0.264662  0.633547  0  4.111093  0
C  C30  1  0.65131986  0.36906093  0.39718306  1  1.603396  0  0.274152  0.657632  0  4.101206  0
C  C31  1  0.15143944  0.63088986  0.60280876  1  1.603077  0  0.274617  0.657462  0  4.101576  0
C  C32  1  0.28880806  0.78072006  0.78708426  1  -0.060329  0  -0.061557  -0.026581  0  3.974623  0
C  C33  1  0.78881261  0.21927878  0.21292153  1  -0.060386  0  -0.061588  -0.026642  0  3.974709  0
C  C34  1  0.12358750  0.79653260  0.82948231  1  -0.007033  0  -0.070748  -0.214767  0  3.84959  0
C  C35  1  0.62355419  0.20346034  0.17052448  1  -0.006367  0  -0.070703  -0.21449  0  3.849537  0
C  C36  1  0.29254750  0.72197449  0.71575856  1  -0.009165  0  -0.04288  -0.029546  0  3.887861  0
C  C37  1  0.79253850  0.27800273  0.28425202  1  -0.008207  0  -0.042821  -0.02953  0  3.888114  0
C  C38  1  0.13300480  0.70691209  0.66956545  1  -0.079324  0  -0.011437  -0.131122  0  3.869462  0
C  C39  1  0.63301192  0.29298763  0.33045211  1  -0.079496  0  -0.011279  -0.130675  0  3.869056  0
C  C40  1  0.18324814  0.64688867  0.34403870  1  -0.002398  0  -0.009328  -0.029288  0  3.974425  0
C  C41  1  0.68342141  0.35314254  0.65595544  1  -0.002253  0  -0.009463  -0.029697  0  3.974703  0
C  C42  1  0.10139271  0.86980333  0.16520074  1  0.018672  0  -0.008696  -0.074116  0  3.950712  0
C  C43  1  0.60126931  0.13026026  0.83481777  1  0.018429  0  -0.008606  -0.074117  0  3.951563  0
C  C44  1  0.89966104  0.82555915  0.26128490  1  -0.062365  0  -0.065403  -0.129551  0  3.918236  0
C  C45  1  0.39965979  0.17448447  0.73867616  1  -0.063419  0  -0.065698  -0.130521  0  3.918594  0
C  C46  1  0.92385549  0.88116605  0.20910549  1  -0.02946  0  -0.019528  -0.008552  0  3.990325  0
C  C47  1  0.42375125  0.11890977  0.79088616  1  -0.02747  0  -0.019077  -0.007944  0  3.989986  0
C  C48  1  0.25282008  0.80905603  0.17893077  1  -0.020551  0  -0.065975  -0.108717  0  3.923694  0
C  C49  1  0.75274484  0.19097451  0.82109157  1  -0.020182  0  -0.066051  -0.108755  0  3.924353  0
C  C50  1  0.23312131  0.75376393  0.23363986  1  -0.008925  0  0.003724  0.084774  0  3.985975  0
C  C51  1  0.73313201  0.24626319  0.76637807  1  -0.009058  0  0.003867  0.085054  0  3.985796  0
C  C52  1  0.04944732  0.75992526  0.27420572  1  0.049082  0  -0.00213  0.074791  0  4.007665  0
C  C53  1  0.54948986  0.24010865  0.72577292  1  0.048616  0  -0.002175  0.074761  0  4.006778  0
C  C54  1  0.02681757  0.70362795  0.32811053  1  -0.056963  0  -0.068977  -0.127689  0  3.910539  0
C  C55  1  0.52696877  0.29639178  0.67184935  1  -0.052033  0  -0.068916  -0.127441  0  3.909262  0
C  C56  1  0.36670462  0.64266665  0.30516371  1  -0.071409  0  -0.076515  -0.087863  0  3.968766  0
C  C57  1  0.86683214  0.35738271  0.69487745  1  -0.071708  0  -0.076621  -0.088127  0  3.968465  0
C  C58  1  0.38934619  0.69326527  0.25021452  1  -0.031633  0  -0.084253  -0.130425  0  3.986823  0
C  C59  1  0.88938944  0.30677070  0.74983169  1  -0.032334  0  -0.084508  -0.130449  0  3.985851  0
C  C60  1  0.62240788  0.13461840  0.10084161  1  1.572791  0  0.259363  0.672699  0  4.122695  0
C  C61  1  0.12240502  0.86540516  0.89915913  1  1.574118  0  0.259644  0.672954  0  4.122084  0
C  C62  1  0.61636833  0.08397003  0.89915542  1  1.565155  0  0.270247  0.646068  0  4.08622  0
C  C63  1  0.11647331  0.91605113  0.10083062  1  1.564103  0  0.270307  0.645997  0  4.086719  0
C  C64  1  0.94750570  0.76620978  0.68341838  1  0.895192  0  0.095751  0.286447  0  3.978141  0
C  C65  1  0.44767225  0.23354206  0.31664588  1  0.895964  0  0.095923  0.285886  0  3.97961  0
C  C66  1  0.77744310  0.96011624  0.20793861  1  0.925608  0  0.095078  0.276459  0  3.961372  0
C  C67  1  0.27731912  0.03993822  0.79201449  1  0.925694  0  0.095282  0.276467  0  3.961807  0
O  O68  1  0.48868985  0.39825180  0.42860462  1  -1.251121  0  -0.222597  -0.577741  0  2.401408  0
O  O69  1  0.98894004  0.60197232  0.57118731  1  -1.251716  0  -0.222949  -0.57742  0  2.40125  0
O  O70  1  0.83058296  0.42552704  0.56722203  1  -1.257167  0  -0.234128  -0.587395  0  2.360685  0
O  O71  1  0.33026595  0.57481035  0.43298494  1  -1.256228  0  -0.234389  -0.587192  0  2.360088  0
O  O72  1  0.82604739  0.39976496  0.41715593  1  -1.253435  0  -0.229585  -0.58587  0  2.334671  0
O  O73  1  0.32613499  0.59995756  0.58299875  1  -1.251915  0  -0.229756  -0.585888  0  2.335772  0
O  O74  1  0.98926055  0.57375004  0.42432830  1  -1.246543  0  -0.237186  -0.588857  0  2.323212  0
O  O75  1  0.48946991  0.42594734  0.57545061  1  -1.246604  0  -0.237247  -0.588737  0  2.322752  0
O  O76  1  0.65768182  0.55967437  0.50509199  1  -1.448633  0  -0.449889  -0.988378  0  2.169989  0
O  O77  1  0.15774842  0.44033896  0.49489337  1  -1.446417  0  -0.449836  -0.988365  0  2.170261  0
O  O78  1  0.78914530  0.06783620  0.92317576  1  -1.257346  0  -0.232506  -0.586237  0  2.325645  0
O  O79  1  0.28924112  0.93217208  0.07681373  1  -1.257247  0  -0.232477  -0.586168  0  2.326163  0
O  O80  1  0.44945459  0.10743330  0.07575175  1  -1.241875  0  -0.237819  -0.587316  0  2.289222  0
O  O81  1  0.94943200  0.89256840  0.92423514  1  -1.242186  0  -0.237817  -0.58733  0  2.288517  0
O  O82  1  0.44956783  0.06675612  0.92750432  1  -1.265549  0  -0.233016  -0.601223  0  2.382613  0
O  O83  1  0.94965659  0.93328259  0.07248693  1  -1.265108  0  -0.232954  -0.601155  0  2.383026  0
O  O84  1  0.29114552  0.89322596  0.92746795  1  -1.263183  0  -0.239618  -0.602516  0  2.347747  0
O  O85  1  0.79115824  0.10681641  0.07253228  1  -1.262557  0  -0.23947  -0.602475  0  2.34729  0
O  O86  1  0.62037890  0.94303319  0.00102008  1  -1.423836  0  -0.448158  -0.993048  0  2.203881  0
O  O87  1  0.12038453  0.05700847  0.99898973  1  -1.423592  0  -0.44813  -0.992987  0  2.203702  0
O  O88  1  0.77566126  0.74062634  0.66531651  1  -1.082377  0  -0.265545  -0.365498  0  2.137432  0
O  O89  1  0.27581124  0.25893595  0.33484571  1  -1.0823  0  -0.265716  -0.365137  0  2.138961  0
O  O90  1  0.60788587  0.96259193  0.23379738  1  -1.087792  0  -0.267567  -0.368539  0  2.133472  0
O  O91  1  0.10775188  0.03748783  0.76616077  1  -1.08922  0  -0.267578  -0.36845  0  2.134327  0
