# generated using pymatgen
data_Na2SiH50C40(N2O)2
_symmetry_space_group_name_H-M   'P 1'
_cell_length_a   10.70473862
_cell_length_b   15.42637137
_cell_length_c   15.42657220
_cell_angle_alpha   84.39806585
_cell_angle_beta   74.02194576
_cell_angle_gamma   74.02202089
_symmetry_Int_Tables_number   1
_chemical_formula_structural   Na2SiH50C40(N2O)2
_chemical_formula_sum   'Na4 Si2 H100 C80 N8 O4'
_cell_volume   2353.78461892
_cell_formula_units_Z   2
loop_
 _symmetry_equiv_pos_site_id
 _symmetry_equiv_pos_as_xyz
  1  'x, y, z'
loop_
 _atom_site_type_symbol
 _atom_site_label
 _atom_site_symmetry_multiplicity
 _atom_site_fract_x
 _atom_site_fract_y
 _atom_site_fract_z
 _atom_site_occupancy
 _atom_site_pbe_bader_charge
 _atom_site_pbe_bader_spin_density
 _atom_site_pbe_cm5_charge
 _atom_site_pbe_ddec_charge
 _atom_site_pbe_ddec_spin_density
 _atom_site_pbe_ddec_sum_bond_order
 _atom_site_pbe_magmom
Na  Na0  1  0.78844104  0.64766633  0.09178189  1  0.870436  0  0.701736  0.799496  0  0.559131  0
Na  Na1  1  0.28844276  0.09178768  0.64766299  1  0.870387  0  0.701724  0.799473  0  0.559167  0
Na  Na2  1  0.85091538  0.27679122  0.95274576  1  0.862257  0  0.697979  0.767061  0  0.623444  0
Na  Na3  1  0.35090961  0.95274825  0.27679279  1  0.862235  0  0.697968  0.767051  0  0.623446  0
Si  Si4  1  0.55701890  0.65407645  0.00677986  1  2.857279  0  0.232663  1.161349  0  4.119455  0
Si  Si5  1  0.05702417  0.00678064  0.65407541  1  2.857281  0  0.232717  1.161443  0  4.119204  0
H  H6  1  0.94575322  0.47373415  0.25886342  1  0.005859  0  0.091189  0.091742  0  1.019536  0
H  H7  1  0.44576402  0.25887402  0.47372235  1  0.005551  0  0.091187  0.09183  0  1.01948  0
H  H8  1  0.16780195  0.49516790  0.16779168  1  0.034801  0  0.093158  0.09307  0  1.009338  0
H  H9  1  0.66780927  0.16779760  0.49516402  1  0.034497  0  0.093143  0.093044  0  1.009484  0
H  H10  1  0.22963957  0.48290997  0.00121468  1  0.062433  0  0.091829  0.0915  0  1.04804  0
H  H11  1  0.72964283  0.00122047  0.48290676  1  0.062402  0  0.09183  0.091506  0  1.048045  0
H  H12  1  0.72777183  0.37757062  0.18217472  1  0.056194  0  0.091284  0.125425  0  1.018933  0
H  H13  1  0.22778849  0.18217800  0.37755826  1  0.056254  0  0.091249  0.125338  0  1.019004  0
H  H14  1  0.66673613  0.49557766  0.18347701  1  0.056001  0  0.095406  0.128452  0  1.013509  0
H  H15  1  0.16674345  0.18348331  0.49556446  1  0.056348  0  0.095367  0.128327  0  1.013447  0
H  H16  1  0.73945060  0.43870369  0.27129695  1  -0.000862  0  0.083515  0.112657  0  1.013499  0
H  H17  1  0.23945908  0.27130584  0.43868932  1  -0.00105  0  0.083493  0.112596  0  1.013377  0
H  H18  1  0.18137471  0.45984167  0.86585773  1  0.02643  0  0.0831  0.110833  0  1.029069  0
H  H19  1  0.68137866  0.86585588  0.45984213  1  0.026352  0  0.083083  0.110798  0  1.028995  0
H  H20  1  0.00704762  0.49257966  0.86763101  1  0.04634  0  0.092506  0.127266  0  0.998666  0
H  H21  1  0.50705021  0.86763126  0.49257907  1  0.04655  0  0.092513  0.127259  0  0.998715  0
H  H22  1  0.08944224  0.37788924  0.87619899  1  0.054786  0  0.089689  0.120554  0  1.041041  0
H  H23  1  0.58944621  0.87620066  0.37789066  1  0.054823  0  0.08968  0.120536  0  1.040951  0
H  H24  1  0.73376233  0.49639265  0.81251136  1  0.068569  0  0.106713  0.108045  0  0.987057  0
H  H25  1  0.23376658  0.81251157  0.49639729  1  0.068519  0  0.106731  0.108125  0  0.986985  0
H  H26  1  0.59174118  0.44357985  0.73658781  1  0.070483  0  0.099756  0.095145  0  0.994923  0
H  H27  1  0.09174791  0.73658583  0.44358378  1  0.070437  0  0.099766  0.095169  0  0.99494  0
H  H28  1  0.42217200  0.36402989  0.82612755  1  0.06113  0  0.09584  0.093668  0  1.044046  0
H  H29  1  0.92218109  0.82612364  0.36403248  1  0.061175  0  0.095856  0.093741  0  1.044028  0
H  H30  1  0.39996475  0.33460407  0.99020500  1  0.044194  0  0.097504  0.089373  0  1.031695  0
H  H31  1  0.89996874  0.99020250  0.33460770  1  0.044215  0  0.097526  0.089379  0  1.031655  0
H  H32  1  0.54411270  0.38618511  0.06571283  1  0.050997  0  0.105517  0.10397  0  1.002585  0
H  H33  1  0.04412026  0.06571314  0.38618732  1  0.050957  0  0.105463  0.103909  0  1.002584  0
H  H34  1  0.47893934  0.75030017  0.88038516  1  0.018344  0  0.079607  0.146875  0  1.073572  0
H  H35  1  0.97893821  0.88038785  0.75029153  1  0.018524  0  0.079599  0.146908  0  1.073475  0
H  H36  1  0.58174003  0.64245474  0.84214167  1  0.007817  0  0.079386  0.151549  0  1.062378  0
H  H37  1  0.08173368  0.84214114  0.64244637  1  0.007815  0  0.079439  0.151633  0  1.062351  0
H  H38  1  0.65675369  0.72592287  0.86137995  1  0.009827  0  0.084515  0.154866  0  1.051256  0
H  H39  1  0.15675403  0.86137435  0.72591116  1  0.010251  0  0.084566  0.154903  0  1.051293  0
H  H40  1  0.37832285  0.57873212  0.00222659  1  0.017962  0  0.082005  0.159349  0  1.048856  0
H  H41  1  0.87832413  0.00223729  0.57873022  1  0.018322  0  0.082035  0.159437  0  1.048801  0
H  H42  1  0.30774884  0.68160457  0.06183588  1  0.030879  0  0.08331  0.159667  0  1.051328  0
H  H43  1  0.80775459  0.06184277  0.68160406  1  0.030908  0  0.083316  0.159632  0  1.051485  0
H  H44  1  0.38978040  0.58303433  0.11441832  1  0.014154  0  0.082748  0.156811  0  1.034735  0
H  H45  1  0.88978710  0.11442703  0.58303719  1  0.014125  0  0.082753  0.15684  0  1.034608  0
H  H46  1  0.46364527  0.86956955  0.96143905  1  0.07818  0  0.105214  0.104716  0  1.015244  0
H  H47  1  0.96365595  0.96142742  0.86957304  1  0.078223  0  0.10517  0.104703  0  1.01524  0
H  H48  1  0.25885612  0.94983355  0.91182043  1  0.080081  0  0.103241  0.097912  0  1.024388  0
H  H49  1  0.75886552  0.91180534  0.94983379  1  0.080002  0  0.103135  0.097762  0  1.024608  0
H  H50  1  0.03287587  0.97564148  0.02132133  1  0.086906  0  0.096472  0.08867  0  1.033359  0
H  H51  1  0.53288786  0.02130921  0.97564174  1  0.086831  0  0.096503  0.088786  0  1.033187  0
H  H52  1  0.01496402  0.92026123  0.18117040  1  0.065084  0  0.094758  0.086973  0  1.038832  0
H  H53  1  0.51497523  0.18116178  0.92026485  1  0.065057  0  0.09479  0.08704  0  1.038729  0
H  H54  1  0.21941086  0.83720730  0.22891148  1  0.084671  0  0.099755  0.089233  0  1.045625  0
H  H55  1  0.71942132  0.22890264  0.83721247  1  0.084972  0  0.099778  0.089236  0  1.045686  0
H  H56  1  0.92849615  0.78750719  0.22020092  1  0.054028  0  0.094135  0.094188  0  1.03157  0
H  H57  1  0.42850009  0.22020280  0.78751329  1  0.053924  0  0.094091  0.0941  0  1.03164  0
H  H58  1  0.91791315  0.65195754  0.32091312  1  0.061394  0  0.095978  0.096146  0  1.002953  0
H  H59  1  0.41792774  0.32090730  0.65195887  1  0.061349  0  0.095966  0.096177  0  1.0029  0
H  H60  1  0.70808970  0.59942855  0.36454274  1  0.03776  0  0.094086  0.094047  0  1.010313  0
H  H61  1  0.20810243  0.36453907  0.59942898  1  0.037433  0  0.094086  0.094067  0  1.010172  0
H  H62  1  0.65969540  0.95524636  0.18155368  1  0.011447  0  0.091903  0.117833  0  1.013572  0
H  H63  1  0.15969514  0.18155056  0.95524812  1  0.011516  0  0.0919  0.117796  0  1.013563  0
H  H64  1  0.70022260  0.88768329  0.08709178  1  0.072541  0  0.095834  0.130859  0  1.03022  0
H  H65  1  0.20022662  0.08708936  0.88768278  1  0.072515  0  0.095822  0.130852  0  1.030195  0
H  H66  1  0.83172243  0.90500105  0.12761734  1  0.025719  0  0.085638  0.113664  0  1.032741  0
H  H67  1  0.33172298  0.12761538  0.90500632  1  0.025673  0  0.085696  0.11373  0  1.032564  0
H  H68  1  0.48410336  0.61313644  0.35926167  1  4e-05  0  0.084573  0.113512  0  1.006891  0
H  H69  1  0.98411296  0.35926414  0.61314063  1  0.000281  0  0.084559  0.113523  0  1.006987  0
H  H70  1  0.45925847  0.64974346  0.25031682  1  0.051144  0  0.095915  0.133736  0  1.003643  0
H  H71  1  0.95926553  0.25031846  0.64974712  1  0.050693  0  0.095902  0.133764  0  1.0036  0
H  H72  1  0.38732057  0.72458831  0.34076097  1  0.057598  0  0.088694  0.115231  0  1.033164  0
H  H73  1  0.88733508  0.34076315  0.72459087  1  0.057847  0  0.088718  0.115298  0  1.033206  0
H  H74  1  0.11008957  0.65767120  0.02930470  1  0.051895  0  0.093235  0.051343  0  1.029027  0
H  H75  1  0.61009137  0.02930775  0.65767659  1  0.051949  0  0.093215  0.051271  0  1.029116  0
H  H76  1  0.04948473  0.77683694  0.04526128  1  0.036619  0  0.094394  0.061937  0  1.019389  0
H  H77  1  0.54948046  0.04526954  0.77683965  1  0.036503  0  0.094383  0.061847  0  1.01942  0
H  H78  1  0.12768650  0.80940249  0.88622370  1  0.042753  0  0.08813  0.080957  0  1.012966  0
H  H79  1  0.62767536  0.88623174  0.80941244  1  0.042793  0  0.088091  0.080903  0  1.012967  0
H  H80  1  0.25468247  0.70952161  0.89612145  1  0.048908  0  0.098913  0.107725  0  0.985453  0
H  H81  1  0.75467254  0.89612458  0.70953079  1  0.048712  0  0.098912  0.107715  0  0.985567  0
H  H82  1  0.13352129  0.61595573  0.84942213  1  0.014478  0  0.092931  0.092182  0  1.006985  0
H  H83  1  0.63351247  0.84942627  0.61596537  1  0.014725  0  0.092828  0.092043  0  1.006846  0
H  H84  1  0.10579554  0.71280044  0.77702541  1  0.05033  0  0.094189  0.098994  0  1.004362  0
H  H85  1  0.60578471  0.77702903  0.71281171  1  0.050153  0  0.094189  0.098932  0  1.004458  0
H  H86  1  0.88417023  0.77633355  0.87270906  1  0.018403  0  0.091965  0.05101  0  1.000361  0
H  H87  1  0.38415805  0.87272039  0.77634221  1  0.01834  0  0.091938  0.051036  0  1.000408  0
H  H88  1  0.88970765  0.65924225  0.89304702  1  0.060338  0  0.104492  0.067348  0  1.006366  0
H  H89  1  0.38970009  0.89305093  0.65925029  1  0.060667  0  0.104471  0.067375  0  1.006402  0
H  H90  1  0.66093010  0.13756211  0.09902773  1  0.062413  0  0.100995  0.065195  0  1.029156  0
H  H91  1  0.16091949  0.09903187  0.13757078  1  0.062488  0  0.10095  0.065168  0  1.029158  0
H  H92  1  0.82404178  0.06610641  0.09640438  1  0.028787  0  0.093316  0.052451  0  1.005293  0
H  H93  1  0.32403121  0.09640761  0.06611516  1  0.029004  0  0.093312  0.052409  0  1.005349  0
H  H94  1  0.62680565  0.17807795  0.25544368  1  0.025107  0  0.093154  0.095606  0  0.99273  0
H  H95  1  0.12679732  0.25544904  0.17808588  1  0.024869  0  0.09312  0.095598  0  0.992646  0
H  H96  1  0.72687042  0.06643345  0.25941256  1  0.050224  0  0.093079  0.094221  0  1.006487  0
H  H97  1  0.22685460  0.25941774  0.06644094  1  0.05026  0  0.093099  0.094237  0  1.006473  0
H  H98  1  0.79879762  0.22880083  0.28169611  1  0.028998  0  0.093255  0.093541  0  0.988323  0
H  H99  1  0.29879632  0.28170423  0.22879741  1  0.028948  0  0.093241  0.093521  0  0.988378  0
H  H100  1  0.91510370  0.12150143  0.26254074  1  0.025796  0  0.091761  0.089177  0  1.01338  0
H  H101  1  0.41509665  0.26254501  0.12149866  1  0.025437  0  0.091753  0.089146  0  1.013462  0
H  H102  1  0.99487124  0.15107911  0.10799724  1  0.018352  0  0.093002  0.045172  0  1.034218  0
H  H103  1  0.49486395  0.10800021  0.15107889  1  0.018324  0  0.092958  0.045035  0  1.034151  0
H  H104  1  0.92142115  0.26810769  0.13309533  1  0.092312  0  0.107835  0.076647  0  1.02279  0
H  H105  1  0.42142192  0.13310207  0.26810626  1  0.08191  0  0.107888  0.076736  0  1.022755  0
C  C106  1  0.92030498  0.44073742  0.04890800  1  0.410254  0  0.080764  0.131405  0  4.065294  0
C  C107  1  0.42030653  0.04891640  0.44073715  1  0.410319  0  0.080778  0.131368  0  4.065449  0
C  C108  1  0.88355762  0.44890661  0.14411028  1  -0.103182  0  -0.031068  0.041726  0  4.010893  0
C  C109  1  0.38356412  0.14411689  0.44890146  1  -0.103362  0  -0.031131  0.041706  0  4.011187  0
C  C110  1  0.97440824  0.46753257  0.18564172  1  -0.044626  0  -0.111803  -0.181491  0  4.091017  0
C  C111  1  0.47441470  0.18564940  0.46752955  1  -0.044069  0  -0.111799  -0.181702  0  4.091243  0
C  C112  1  0.09872832  0.47951383  0.13496773  1  -0.053065  0  -0.113753  -0.114911  0  4.12007  0
C  C113  1  0.59873047  0.13497494  0.47951465  1  -0.05298  0  -0.113662  -0.114705  0  4.120179  0
C  C114  1  0.13352852  0.47236548  0.04132581  1  -0.119968  0  -0.106574  -0.16377  0  4.049104  0
C  C115  1  0.63352793  0.04132939  0.47236906  1  -0.119166  0  -0.10668  -0.163953  0  4.049132  0
C  C116  1  0.04668538  0.45253538  0.99747262  1  -0.02586  0  -0.016531  0.076308  0  3.963518  0
C  C117  1  0.54668842  0.99747528  0.45253848  1  -0.026686  0  -0.01646  0.076439  0  3.963341  0
C  C118  1  0.74761861  0.43947143  0.19872034  1  -0.071678  0  -0.240455  -0.399341  0  3.990428  0
C  C119  1  0.24763154  0.19872474  0.43945851  1  -0.072003  0  -0.240354  -0.39904  0  3.99013  0
C  C120  1  0.08356911  0.44551036  0.89670837  1  -0.062372  0  -0.240195  -0.393932  0  3.982376  0
C  C121  1  0.58357133  0.89671168  0.44551297  1  -0.062421  0  -0.240174  -0.393869  0  3.982231  0
C  C122  1  0.73038069  0.48105168  0.99017885  1  1.180263  0  0.225415  0.434006  0  4.235249  0
C  C123  1  0.23038870  0.99018154  0.48104722  1  1.179909  0  0.2254  0.434024  0  4.235331  0
C  C124  1  0.64688370  0.44613007  0.94432066  1  -0.03422  0  -0.008599  0.002823  0  3.980281  0
C  C125  1  0.14688795  0.94432053  0.44613185  1  -0.034235  0  -0.008548  0.002823  0  3.980337  0
C  C126  1  0.66017837  0.46101699  0.85132191  1  -0.068571  0  -0.086038  -0.129875  0  3.998775  0
C  C127  1  0.16018569  0.85132060  0.46102004  1  -0.067897  0  -0.086063  -0.130071  0  3.998785  0
C  C128  1  0.58027782  0.43138995  0.80888838  1  -0.071813  0  -0.094144  -0.088381  0  4.045757  0
C  C129  1  0.08028498  0.80888647  0.43139325  1  -0.072652  0  -0.094115  -0.088247  0  4.045677  0
C  C130  1  0.48588637  0.38621308  0.85878494  1  -0.087745  0  -0.099381  -0.101112  0  4.023555  0
C  C131  1  0.98589284  0.85878364  0.38621761  1  -0.087049  0  -0.099411  -0.101274  0  4.023569  0
C  C132  1  0.47376691  0.36956531  0.95101031  1  -0.039309  0  -0.09264  -0.087482  0  4.05103  0
C  C133  1  0.97377604  0.95100972  0.36956989  1  -0.039741  0  -0.092702  -0.087488  0  4.051126  0
C  C134  1  0.55398066  0.39880332  0.99353502  1  -0.077181  0  -0.092476  -0.145502  0  3.997792  0
C  C135  1  0.05398588  0.99353328  0.39880538  1  -0.077092  0  -0.092412  -0.145394  0  3.997845  0
C  C136  1  0.56930597  0.69755544  0.88648014  1  -0.73696  0  -0.306228  -0.769415  0  3.876996  0
C  C137  1  0.06930972  0.88647760  0.69754463  1  -0.73748  0  -0.306375  -0.769626  0  3.877011  0
C  C138  1  0.39286210  0.62106824  0.05004043  1  -0.75198  0  -0.304463  -0.763267  0  3.85093  0
C  C139  1  0.89286232  0.05004924  0.62106553  1  -0.752257  0  -0.304526  -0.763373  0  3.850922  0
C  C140  1  0.48197565  0.79723687  0.12536384  1  1.176427  0  0.229362  0.442136  0  4.209819  0
C  C141  1  0.98198414  0.12535657  0.79723944  1  1.176421  0  0.229373  0.442082  0  4.209824  0
C  C142  1  0.35615191  0.84846691  0.09829158  1  -0.055234  0  0.002764  0.022983  0  3.949898  0
C  C143  1  0.85616943  0.09828306  0.84846763  1  -0.055894  0  0.002752  0.022864  0  3.949863  0
C  C144  1  0.36473817  0.88086351  0.00917501  1  -0.035094  0  -0.084213  -0.115495  0  3.960415  0
C  C145  1  0.86474709  0.00916222  0.88086436  1  -0.034318  0  -0.08417  -0.11555  0  3.960353  0
C  C146  1  0.24957947  0.92594384  0.98161020  1  -0.115364  0  -0.092149  -0.084836  0  4.020789  0
C  C147  1  0.74958775  0.98159561  0.92594490  1  -0.116099  0  -0.091988  -0.084568  0  4.020783  0
C  C148  1  0.12293063  0.94066599  0.04318583  1  -0.115156  0  -0.099091  -0.104471  0  4.038365  0
C  C149  1  0.62293895  0.04317546  0.94066520  1  -0.114656  0  -0.099219  -0.104704  0  4.038362  0
C  C150  1  0.11299890  0.90947535  0.13235390  1  -0.072741  0  -0.099325  -0.099659  0  4.062198  0
C  C151  1  0.61301320  0.13233890  0.90947691  1  -0.072694  0  -0.099242  -0.099695  0  4.062288  0
C  C152  1  0.22851673  0.86346537  0.15967611  1  -0.075634  0  -0.09637  -0.146586  0  4.001437  0
C  C153  1  0.72853162  0.15966752  0.86346623  1  -0.075794  0  -0.096449  -0.146448  0  4.00136  0
C  C154  1  0.60783553  0.78094981  0.23086261  1  0.324829  0  0.076521  0.123566  0  4.07694  0
C  C155  1  0.10784569  0.23085768  0.78094830  1  0.325092  0  0.076391  0.123358  0  4.076828  0
C  C156  1  0.72571383  0.81220582  0.20814963  1  0.027972  0  -0.023264  0.064691  0  3.993749  0
C  C157  1  0.22571630  0.20814835  0.81221074  1  0.028122  0  -0.023204  0.064863  0  3.993324  0
C  C158  1  0.83640728  0.76472125  0.24039022  1  -0.136425  0  -0.108605  -0.175881  0  4.05921  0
C  C159  1  0.33641227  0.24038898  0.76472401  1  -0.136241  0  -0.108507  -0.175705  0  4.059053  0
C  C160  1  0.83083073  0.68846602  0.29659287  1  -0.099641  0  -0.114238  -0.123198  0  4.134925  0
C  C161  1  0.33084256  0.29658725  0.68846476  1  -0.099441  0  -0.114311  -0.123392  0  4.135151  0
C  C162  1  0.71329494  0.65897148  0.32054951  1  -0.048082  0  -0.106399  -0.168781  0  4.060731  0
C  C163  1  0.21331050  0.32054300  0.65897006  1  -0.048206  0  -0.106412  -0.168798  0  4.060741  0
C  C164  1  0.60175679  0.70356251  0.28797086  1  -0.035591  0  -0.016852  0.073505  0  3.976343  0
C  C165  1  0.10176905  0.28796791  0.70356345  1  -0.03582  0  -0.0168  0.073557  0  3.976283  0
C  C166  1  0.73038827  0.89425693  0.14795282  1  -0.067124  0  -0.238199  -0.398267  0  3.990605  0
C  C167  1  0.23039167  0.14794973  0.89425789  1  -0.067198  0  -0.238244  -0.398299  0  3.990327  0
C  C168  1  0.47666898  0.67060207  0.31130313  1  -0.052406  0  -0.237893  -0.389634  0  3.98527  0
C  C169  1  0.97667824  0.31130598  0.67060520  1  -0.052357  0  -0.237841  -0.389703  0  3.985397  0
C  C170  1  0.06437453  0.72246582  0.99958585  1  0.380695  0  -0.076813  0.031535  0  3.880826  0
C  C171  1  0.56436861  0.99959506  0.72246689  1  0.380807  0  -0.076707  0.031854  0  3.88064  0
C  C172  1  0.14618365  0.73702602  0.90412091  1  -0.037358  0  -0.166918  -0.181368  0  3.934397  0
C  C173  1  0.64617829  0.90412547  0.73703345  1  -0.037209  0  -0.16699  -0.181522  0  3.934434  0
C  C174  1  0.08893618  0.68908040  0.84763076  1  -0.021193  0  -0.168589  -0.187033  0  3.938593  0
C  C175  1  0.58892551  0.84763539  0.68909157  1  -0.021145  0  -0.168434  -0.186723  0  3.938465  0
C  C176  1  0.93994167  0.71150518  0.89710069  1  0.38654  0  -0.070734  0.038948  0  3.878487  0
C  C177  1  0.43993132  0.89710980  0.71151350  1  0.386196  0  -0.070733  0.038749  0  3.878761  0
C  C178  1  0.75026308  0.12920194  0.12358785  1  0.384173  0  -0.071542  0.038166  0  3.892122  0
C  C179  1  0.25025594  0.12359262  0.12920980  1  0.384296  0  -0.071469  0.038303  0  3.892323  0
C  C180  1  0.72537329  0.13262622  0.22582644  1  -0.018203  0  -0.167604  -0.189999  0  3.905563  0
C  C181  1  0.22536413  0.22583284  0.13263024  1  -0.017882  0  -0.167637  -0.190084  0  3.905481  0
C  C182  1  0.83929683  0.17181078  0.23589841  1  -0.020956  0  -0.165205  -0.178196  0  3.885415  0
C  C183  1  0.33929508  0.23590352  0.17181034  1  -0.020798  0  -0.165183  -0.17813  0  3.885421  0
C  C184  1  0.90150210  0.20147741  0.13919586  1  0.370845  0  -0.077072  0.019321  0  3.876369  0
C  C185  1  0.40149670  0.13920214  0.20147881  1  0.38113  0  -0.077096  0.019365  0  3.87629  0
N  N186  1  0.83613539  0.41727004  0.00494254  1  -1.273803  0  -0.491997  -0.585847  0  3.402946  0
N  N187  1  0.33614081  0.00494830  0.41727070  1  -1.273897  0  -0.492018  -0.585811  0  3.402987  0
N  N188  1  0.69769033  0.56678418  0.01061687  1  -1.681455  0  -0.527013  -0.85444  0  3.266038  0
N  N189  1  0.19769816  0.01062152  0.56678026  1  -1.681067  0  -0.52701  -0.854522  0  3.26598  0
N  N190  1  0.56889552  0.72947948  0.07759215  1  -1.67968  0  -0.528487  -0.862443  0  3.279304  0
N  N191  1  0.06890049  0.07758794  0.72947984  1  -1.679811  0  -0.528453  -0.862298  0  3.279209  0
N  N192  1  0.49615313  0.82842127  0.19928258  1  -1.289436  0  -0.50413  -0.595592  0  3.395538  0
N  N193  1  0.99615615  0.19927800  0.82842299  1  -1.289276  0  -0.504126  -0.595557  0  3.395401  0
O  O194  1  0.93319506  0.72009433  0.99141862  1  -1.052342  0  -0.312508  -0.309972  0  2.420457  0
O  O195  1  0.43319610  0.99142452  0.72009562  1  -1.0524  0  -0.312471  -0.309891  0  2.420397  0
O  O196  1  0.80469871  0.20479949  0.08907096  1  -1.059153  0  -0.317078  -0.299877  0  2.483009  0
O  O197  1  0.30468755  0.08907663  0.20480541  1  -1.059286  0  -0.317034  -0.299903  0  2.483209  0
