# generated using pymatgen
data_NiH11C15N2O5
_symmetry_space_group_name_H-M   'P 1'
_cell_length_a   8.30456528
_cell_length_b   11.23373585
_cell_length_c   14.99215616
_cell_angle_alpha   98.07188359
_cell_angle_beta   89.99972837
_cell_angle_gamma   89.99973474
_symmetry_Int_Tables_number   1
_chemical_formula_structural   NiH11C15N2O5
_chemical_formula_sum   'Ni4 H44 C60 N8 O20'
_cell_volume   1384.78088073
_cell_formula_units_Z   4
loop_
 _symmetry_equiv_pos_site_id
 _symmetry_equiv_pos_as_xyz
  1  'x, y, z'
loop_
 _atom_site_type_symbol
 _atom_site_label
 _atom_site_symmetry_multiplicity
 _atom_site_fract_x
 _atom_site_fract_y
 _atom_site_fract_z
 _atom_site_occupancy
 _atom_site_hle17_ddec_charge
 _atom_site_hle17_ddec_spin_density
 _atom_site_hle17_ddec_sum_bond_order
 _atom_site_hle17_magmom
 _atom_site_hse06_10hf_ddec_charge
 _atom_site_hse06_10hf_ddec_spin_density
 _atom_site_hse06_10hf_ddec_sum_bond_order
 _atom_site_hse06_10hf_magmom
 _atom_site_hse06_ddec_charge
 _atom_site_hse06_ddec_spin_density
 _atom_site_hse06_ddec_sum_bond_order
 _atom_site_hse06_magmom
 _atom_site_pbe_cm5_charge
 _atom_site_pbe_ddec_charge
 _atom_site_pbe_ddec_spin_density
 _atom_site_pbe_ddec_sum_bond_order
 _atom_site_pbe_magmom
Ni  Ni0  1  0.83117377  0.76162028  0.65562093  1  0.875182  -1.83319  1.999334  -1.511  0.878296  -1.858872  2.391686  -1.633  0.967674  -1.920595  2.31873  -1.72  0.642239  0.809448  -1.798671  2.448564  -1.552
Ni  Ni1  1  0.66882341  0.26161561  0.15562010  1  0.875182  -1.833192  1.999355  -1.511  0.878297  -1.858879  2.391717  -1.633  0.967802  -1.920603  2.318527  -1.72  0.642275  0.809495  -1.798672  2.448508  -1.552
Ni  Ni2  1  0.16882540  0.23838051  0.34438025  1  0.87526  1.833198  1.999325  1.511  0.878379  1.858873  2.391675  1.633  0.967863  1.920594  2.318526  1.72  0.642294  0.809558  1.798675  2.448513  1.552
Ni  Ni3  1  0.33117215  0.73838249  0.84437878  1  0.875159  1.833192  1.999369  1.511  0.878276  1.858879  2.391742  1.633  0.967773  1.920599  2.318559  1.72  0.642251  0.80941  1.79868  2.44865  1.552
H  H4  1  0.16541600  0.71340870  0.65959628  1  0.436845  -0.000313  0.856947  0.0  0.408218  -0.000525  0.921768  -0.001  0.420097  -0.000397  0.904652  -0.001  0.301252  0.399651  -0.000637  0.93405  -0.001
H  H5  1  0.33458209  0.21340607  0.15959457  1  0.436847  -0.000313  0.856912  0.0  0.408234  -0.000525  0.921736  -0.001  0.420113  -0.000397  0.904621  -0.001  0.301239  0.399665  -0.000637  0.93402  -0.001
H  H6  1  0.83458678  0.28659478  0.34040653  1  0.436817  0.000313  0.856989  0.0  0.408198  0.000525  0.921794  0.001  0.420074  0.000397  0.904683  0.001  0.301259  0.39963  0.000637  0.934077  0.001
H  H7  1  0.66541347  0.78659294  0.84040375  1  0.436791  0.000313  0.857034  0.0  0.408175  0.000525  0.921822  0.001  0.420055  0.000397  0.904706  0.001  0.30124  0.39961  0.000637  0.934103  0.001
H  H8  1  0.12615672  0.82512229  0.61286845  1  0.393568  7.3e-05  0.863224  0.0  0.376009  -0.000293  0.925207  0.0  0.38502  -0.000122  0.914925  0.0  0.309661  0.369435  -0.000471  0.932711  0.0
H  H9  1  0.37384588  0.32512218  0.11287026  1  0.393614  7.4e-05  0.863167  0.0  0.376054  -0.000293  0.92515  0.0  0.385065  -0.000122  0.91487  0.0  0.309704  0.369482  -0.000471  0.932653  0.0
H  H10  1  0.87384365  0.17487851  0.38713139  1  0.393592  -7.4e-05  0.8632  0.0  0.376039  0.000293  0.925172  0.0  0.385048  0.000122  0.914893  0.0  0.309686  0.369469  0.000471  0.932673  0.0
H  H11  1  0.62615449  0.67487773  0.88712883  1  0.393615  -7.4e-05  0.863176  0.0  0.37605  0.000293  0.925166  0.0  0.385062  0.000122  0.914885  0.0  0.3097  0.369481  0.000471  0.932665  0.0
H  H12  1  0.35823248  0.47020709  0.63934102  1  0.096409  -0.000181  0.975859  0.0  0.103413  -8.4e-05  1.043514  0.0  0.10694  -6.8e-05  1.042123  0.0  0.099528  0.100879  -0.000105  1.044627  0.0
H  H13  1  0.14176899  0.97019831  0.13933663  1  0.096409  -0.00018  0.975889  0.0  0.103422  -8.4e-05  1.043518  0.0  0.106949  -6.8e-05  1.042127  0.0  0.099548  0.10089  -0.000105  1.044629  0.0
H  H14  1  0.64176669  0.52979368  0.36066349  1  0.096466  0.000181  0.975818  0.0  0.103437  8.4e-05  1.04349  0.0  0.106964  6.8e-05  1.042099  0.0  0.099549  0.100908  0.000104  1.044601  0.0
H  H15  1  0.85822898  0.02979977  0.86066559  1  0.096424  0.00018  0.975813  0.0  0.103442  8.4e-05  1.043447  0.0  0.106969  6.8e-05  1.042057  0.0  0.099576  0.100914  0.000104  1.04456  0.0
H  H16  1  0.88808103  0.54763399  0.52905096  1  0.079006  -0.000728  0.973819  -0.002  0.085653  -0.000561  1.04122  -0.001  0.087369  -0.000372  1.04042  -0.001  0.116636  0.084307  -0.000753  1.041958  -0.001
H  H17  1  0.61191857  0.04762958  0.02904430  1  0.078985  -0.000729  0.973806  -0.002  0.085613  -0.000562  1.041229  -0.001  0.087328  -0.000373  1.040432  -0.001  0.116603  0.084249  -0.000753  1.041986  -0.001
H  H18  1  0.11192295  0.45236768  0.47095432  1  0.078956  0.000728  0.973868  0.002  0.085594  0.000561  1.04129  0.001  0.087311  0.000372  1.040492  0.001  0.116603  0.084241  0.000753  1.042031  0.001
H  H19  1  0.38808541  0.95236944  0.97095201  1  0.078946  0.000728  0.973886  0.002  0.085613  0.000561  1.041258  0.001  0.087328  0.000372  1.040461  0.001  0.116641  0.0843  0.000753  1.04196  0.001
H  H20  1  0.89128482  0.32511802  0.52209818  1  0.118966  -0.000251  0.983046  0.0  0.127632  -0.000214  1.045297  0.0  0.131414  -0.000169  1.043318  0.0  0.105849  0.124746  -0.000252  1.047089  0.0
H  H21  1  0.60872034  0.82511567  0.02209457  1  0.119118  -0.000251  0.983048  0.0  0.127774  -0.000214  1.045281  0.0  0.131561  -0.000169  1.043305  0.0  0.105881  0.124885  -0.000252  1.047077  0.0
H  H22  1  0.10871315  0.67488008  0.47790204  1  0.119051  0.000251  0.98305  0.0  0.127719  0.000214  1.04527  0.0  0.131501  0.000169  1.043294  0.0  0.105867  0.124833  0.000252  1.047064  0.0
H  H23  1  0.39129208  0.17488246  0.97790165  1  0.119088  0.000251  0.983028  0.0  0.127761  0.000214  1.045242  0.0  0.131541  0.000169  1.04327  0.0  0.10588  0.124876  0.000252  1.047037  0.0
H  H24  1  0.79339389  0.37701465  0.80894729  1  0.132432  -0.000307  0.975177  0.0  0.138281  -0.000304  1.040917  0.0  0.143258  -0.000214  1.037685  0.0  0.108871  0.134574  -0.000395  1.04342  -0.001
H  H25  1  0.70661209  0.87700561  0.30894336  1  0.132378  -0.000307  0.975131  0.0  0.138283  -0.000305  1.040825  0.0  0.14326  -0.000214  1.037593  0.0  0.108865  0.134576  -0.000395  1.043329  -0.001
H  H26  1  0.20660046  0.62299422  0.19105611  1  0.132392  0.000307  0.975137  0.0  0.138299  0.000305  1.040824  0.0  0.143277  0.000214  1.037592  0.0  0.108865  0.134592  0.000395  1.043329  0.001
H  H27  1  0.29339190  0.12299341  0.69105363  1  0.132432  0.000307  0.975071  0.0  0.138311  0.000305  1.040793  0.0  0.143289  0.000214  1.03756  0.0  0.108883  0.134603  0.000395  1.043297  0.001
H  H28  1  0.80206918  0.59838155  0.80216533  1  0.067284  -0.000703  0.969364  -0.001  0.077182  -0.000538  1.031379  -0.001  0.079585  -0.000382  1.028509  -0.001  0.114623  0.075092  -0.000689  1.03409  -0.001
H  H29  1  0.69794342  0.09837590  0.30215965  1  0.067419  -0.000704  0.969356  -0.001  0.077239  -0.000538  1.031444  -0.001  0.079692  -0.000383  1.028513  -0.001  0.114657  0.075149  -0.000689  1.034158  -0.001
H  H30  1  0.19793360  0.40162464  0.19783511  1  0.067383  0.000703  0.969295  0.001  0.07724  0.000538  1.031362  0.001  0.079663  0.000382  1.028461  0.001  0.114639  0.07515  0.000689  1.034074  0.001
H  H31  1  0.30206177  0.90162133  0.69783581  1  0.067378  0.000704  0.969323  0.001  0.077218  0.000538  1.031395  0.001  0.079654  0.000382  1.028487  0.001  0.114624  0.075126  0.000689  1.034107  0.001
H  H32  1  0.62838548  0.19413341  0.75026037  1  0.110435  -0.000308  0.955696  0.0  0.120164  -0.000302  1.016383  0.0  0.122514  -0.000218  1.016942  0.0  0.110082  0.118473  -0.000382  1.016225  0.0
H  H33  1  0.87160890  0.69412998  0.25026063  1  0.110519  -0.000308  0.955646  0.0  0.120174  -0.000302  1.016402  0.0  0.122523  -0.000218  1.016962  0.0  0.110091  0.118483  -0.000382  1.016242  0.0
H  H34  1  0.37160165  0.80586740  0.24973815  1  0.11049  0.000307  0.955716  0.0  0.120161  0.000302  1.016449  0.0  0.122511  0.000218  1.017008  0.0  0.110097  0.11847  0.000382  1.016288  0.0
H  H35  1  0.12839027  0.30586813  0.74973759  1  0.110507  0.000307  0.955637  0.0  0.120175  0.000302  1.016384  0.0  0.122525  0.000218  1.016942  0.0  0.110085  0.118483  0.000382  1.016225  0.0
H  H36  1  0.02401633  0.94701734  0.56633543  1  0.058382  -0.000587  0.977257  -0.001  0.071025  -0.000482  1.038722  -0.001  0.072202  -0.000328  1.037502  -0.001  0.115138  0.070064  -0.000632  1.03987  -0.001
H  H37  1  0.47598591  0.44701143  0.06633433  1  0.058336  -0.000587  0.977182  -0.001  0.070973  -0.000482  1.038668  -0.001  0.07215  -0.000328  1.037446  -0.001  0.115104  0.070009  -0.000632  1.039828  -0.001
H  H38  1  0.97598645  0.05298706  0.43366548  1  0.058387  0.000587  0.977215  0.001  0.071001  0.000482  1.038728  0.001  0.07218  0.000328  1.037503  0.001  0.115115  0.070036  0.000632  1.039887  0.001
H  H39  1  0.52401206  0.55298669  0.93366256  1  0.058362  0.000588  0.977345  0.001  0.071028  0.000482  1.03878  0.001  0.072207  0.000328  1.037556  0.001  0.115118  0.07006  0.000631  1.039938  0.001
H  H40  1  0.04238334  0.16733392  0.57354626  1  0.128544  -0.000163  0.976722  0.0  0.133021  -0.000179  1.046037  0.0  0.138525  -0.000149  1.042261  0.0  0.108611  0.128856  -0.000205  1.049015  0.0
H  H41  1  0.45762059  0.66732841  0.07353739  1  0.128553  -0.000164  0.976696  0.0  0.13299  -0.000179  1.046049  0.0  0.138491  -0.000149  1.042273  0.0  0.108643  0.128827  -0.000205  1.049017  0.0
H  H42  1  0.95761583  0.83267222  0.42646218  1  0.128506  0.000163  0.976739  0.0  0.132929  0.000179  1.046119  0.0  0.138426  0.000149  1.042348  0.0  0.108621  0.128769  0.000205  1.049087  0.0
H  H43  1  0.54238581  0.33266973  0.92645750  1  0.1286  0.000163  0.976635  0.0  0.132989  0.000179  1.046054  0.0  0.138489  0.000149  1.042283  0.0  0.108621  0.12883  0.000205  1.049023  0.0
H  H44  1  0.63655931  0.97022797  0.74148385  1  0.08864  -0.000637  0.955446  -0.001  0.094298  -0.000415  1.021501  -0.001  0.096485  -0.000296  1.019641  -0.001  0.118402  0.092653  -0.000528  1.023023  -0.001
H  H45  1  0.86342740  0.47022786  0.24149035  1  0.088644  -0.000636  0.955479  -0.001  0.094409  -0.000415  1.021425  -0.001  0.09659  -0.000296  1.019584  -0.001  0.118379  0.092763  -0.000527  1.022955  -0.001
H  H46  1  0.36343263  0.02977198  0.25850990  1  0.088598  0.000637  0.955552  0.001  0.094349  0.000415  1.021501  0.001  0.096531  0.000296  1.019656  0.001  0.118372  0.092704  0.000527  1.023028  0.001
H  H47  1  0.13656937  0.52977113  0.75851130  1  0.088609  0.000637  0.955484  0.001  0.094366  0.000415  1.021438  0.001  0.096547  0.000296  1.019595  0.001  0.118387  0.092721  0.000528  1.022967  0.001
C  C48  1  0.47987928  0.68890639  0.65468181  1  0.655606  0.001915  3.823597  0.002  0.61359  0.000172  4.124315  0.0  0.653763  -9.2e-05  4.112807  0.0  0.220489  0.584185  0.00058  4.131953  0.001
C  C49  1  0.02011539  0.18890232  0.15468077  1  0.655713  0.001917  3.823573  0.002  0.613717  0.000174  4.124306  0.0  0.653911  -9e-05  4.112767  0.0  0.220505  0.584313  0.000583  4.131954  0.001
C  C50  1  0.52012712  0.31109348  0.34532194  1  0.655707  -0.001915  3.823335  -0.002  0.613669  -0.000171  4.124133  0.0  0.65386  9.1e-05  4.112601  0.0  0.220462  0.584266  -0.000582  4.131774  -0.001
C  C51  1  0.97987896  0.81109668  0.84531955  1  0.655478  -0.001915  3.824005  -0.002  0.61353  -0.000172  4.124649  0.0  0.65371  9.1e-05  4.113134  0.0  0.22038  0.584128  -0.000583  4.132288  -0.001
C  C52  1  0.49399144  0.59484517  0.57312700  1  -0.07272  0.001763  3.719257  0.002  -0.065406  0.0011  3.962239  0.001  -0.070623  0.000721  3.980688  0.001  -0.016526  -0.062044  0.001364  3.950586  0.002
C  C53  1  0.00601415  0.09483935  0.07312647  1  -0.072665  0.001771  3.719313  0.002  -0.065461  0.001099  3.962441  0.001  -0.070686  0.000721  3.98089  0.001  -0.016501  -0.062098  0.001362  3.95079  0.002
C  C54  1  0.50600894  0.40516009  0.42687733  1  -0.072656  -0.001763  3.719294  -0.002  -0.065431  -0.001101  3.96242  -0.001  -0.070659  -0.000721  3.980869  -0.001  -0.016457  -0.062071  -0.001365  3.95077  -0.002
C  C55  1  0.99398742  0.90515962  0.92687718  1  -0.072702  -0.001772  3.719424  -0.002  -0.065436  -0.0011  3.962463  -0.001  -0.070658  -0.000721  3.980916  -0.001  -0.016475  -0.062076  -0.001363  3.950813  -0.002
C  C56  1  0.57618507  0.61188942  0.49345466  1  -0.053337  0.002148  3.703148  0.002  -0.040249  0.001061  3.94252  0.001  -0.042124  0.000936  3.959666  0.001  -0.008332  -0.039594  0.001331  3.931569  0.001
C  C57  1  0.92381978  0.11189256  0.99345494  1  -0.053178  0.002137  3.703001  0.002  -0.040098  0.001061  3.942427  0.001  -0.041975  0.000936  3.959579  0.001  -0.008318  -0.039441  0.001333  3.931473  0.001
C  C58  1  0.42381049  0.38811135  0.50654918  1  -0.05318  -0.002148  3.702842  -0.002  -0.040104  -0.001061  3.942244  -0.001  -0.041976  -0.000937  3.959393  -0.001  -0.008304  -0.039448  -0.001333  3.931286  -0.001
C  C59  1  0.07618300  0.88810821  0.00654824  1  -0.053046  -0.002138  3.702998  -0.002  -0.040026  -0.001061  3.942467  -0.001  -0.0419  -0.000936  3.959617  -0.001  -0.008369  -0.039371  -0.001333  3.931513  -0.001
C  C60  1  0.42049243  0.48341218  0.57755020  1  -0.080645  0.001609  3.696398  0.002  -0.112861  0.001014  3.95056  0.001  -0.112584  0.000832  3.967563  0.001  -0.083245  -0.112977  0.001313  3.939444  0.001
C  C61  1  0.07950948  0.98340545  0.07754685  1  -0.080709  0.001599  3.696527  0.002  -0.112877  0.001014  3.95072  0.001  -0.1126  0.000831  3.967723  0.001  -0.083207  -0.112995  0.001314  3.939608  0.001
C  C62  1  0.57950915  0.51659310  0.42245281  1  -0.08063  -0.001609  3.696462  -0.002  -0.112795  -0.001014  3.950647  -0.001  -0.112516  -0.000831  3.96765  -0.001  -0.083184  -0.112913  -0.001309  3.939539  -0.001
C  C63  1  0.92049210  0.01659444  0.92245423  1  -0.080612  -0.001597  3.696539  -0.002  -0.112834  -0.001014  3.950712  -0.001  -0.112556  -0.000831  3.967717  -0.001  -0.083202  -0.112954  -0.001309  3.939606  -0.001
C  C64  1  0.66683253  0.72354862  0.47574032  1  0.641224  0.003061  3.919118  0.005  0.599356  -0.001617  4.228246  -0.001  0.635496  -0.001287  4.21919  -0.001  0.198495  0.573765  -0.002025  4.23303  -0.001
C  C65  1  0.83316937  0.22355840  0.97574356  1  0.641219  0.003062  3.919431  0.005  0.599428  -0.001618  4.228414  -0.001  0.635567  -0.001287  4.219365  -0.001  0.198549  0.573834  -0.002026  4.2332  -0.001
C  C66  1  0.33317146  0.27643325  0.52426413  1  0.641034  -0.003056  3.919646  -0.005  0.599263  0.001619  4.228593  0.001  0.6354  0.001289  4.219543  0.001  0.198454  0.57367  0.002028  4.233373  0.001
C  C67  1  0.16683100  0.77644329  0.02425772  1  0.641073  -0.003061  3.919561  -0.005  0.599249  0.001618  4.228623  0.001  0.635388  0.001288  4.219578  0.001  0.198502  0.573655  0.002026  4.233404  0.001
C  C68  1  0.86794981  0.50524883  0.58900641  1  0.125085  0.007472  3.703662  0.009  0.100073  0.002092  3.956845  0.003  0.107189  0.002418  3.977506  0.004  0.046068  0.095021  0.001925  3.943068  0.003
C  C69  1  0.63204473  0.00524702  0.08900465  1  0.125088  0.007483  3.703736  0.009  0.100116  0.002092  3.956871  0.003  0.107229  0.002417  3.977544  0.004  0.046121  0.095077  0.001924  3.943107  0.003
C  C70  1  0.13204936  0.49475105  0.41099534  1  0.125118  -0.007474  3.703682  -0.009  0.100113  -0.002092  3.956852  -0.003  0.107226  -0.002417  3.977521  -0.004  0.046093  0.095072  -0.001924  3.943081  -0.003
C  C71  1  0.36795444  0.99475110  0.91099357  1  0.125127  -0.007473  3.703739  -0.009  0.100117  -0.002092  3.956921  -0.003  0.107233  -0.002417  3.977591  -0.004  0.046065  0.095045  -0.001925  3.943136  -0.003
C  C72  1  0.86774310  0.38126888  0.58604890  1  -0.144559  -0.006713  3.670115  -0.008  -0.162371  -0.002176  3.910959  -0.003  -0.169634  -0.002054  3.930647  -0.003  -0.078287  -0.157826  -0.002423  3.898563  -0.003
C  C73  1  0.63225032  0.88126554  0.08604513  1  -0.144781  -0.006726  3.670296  -0.008  -0.162608  -0.002176  3.911117  -0.003  -0.169891  -0.002053  3.930807  -0.003  -0.078331  -0.158062  -0.002423  3.898717  -0.003
C  C74  1  0.13225968  0.61873370  0.41395381  1  -0.144635  0.006714  3.670103  0.008  -0.162441  0.002176  3.910919  0.003  -0.169713  0.002054  3.930607  0.003  -0.078252  -0.157897  0.002425  3.898524  0.003
C  C75  1  0.36774524  0.11873167  0.91395300  1  -0.144733  0.006714  3.670226  0.008  -0.162566  0.002176  3.911055  0.003  -0.169832  0.002054  3.930744  0.003  -0.07832  -0.158023  0.002425  3.898676  0.003
C  C76  1  0.80891324  0.41074853  0.74457711  1  -0.161428  -0.007042  3.675558  -0.009  -0.178917  -0.002534  3.919855  -0.003  -0.186363  -0.002348  3.938488  -0.003  -0.078475  -0.174092  -0.002814  3.908044  -0.004
C  C77  1  0.69109188  0.91074405  0.24457372  1  -0.161307  -0.007054  3.675314  -0.009  -0.178835  -0.002533  3.91956  -0.003  -0.186291  -0.002348  3.938201  -0.003  -0.078408  -0.174011  -0.002814  3.907751  -0.004
C  C78  1  0.19109075  0.58925494  0.25542569  1  -0.161338  0.007042  3.675399  0.009  -0.178851  0.002534  3.919629  0.003  -0.186306  0.002349  3.938267  0.003  -0.07842  -0.174026  0.002815  3.907817  0.004
C  C79  1  0.30890488  0.08925405  0.75542516  1  -0.161451  0.007044  3.675366  0.009  -0.178934  0.002533  3.919575  0.003  -0.186386  0.002349  3.938222  0.003  -0.078467  -0.174107  0.002817  3.907759  0.004
C  C80  1  0.81462900  0.53374204  0.74139771  1  0.127541  0.006017  3.705903  0.008  0.09903  0.000804  3.968278  0.002  0.107272  0.001275  3.986449  0.002  0.042992  0.093056  0.00054  3.956413  0.001
C  C81  1  0.68537730  0.03373732  0.24139417  1  0.127359  0.006027  3.705715  0.008  0.098909  0.000804  3.968116  0.002  0.107115  0.001274  3.986279  0.002  0.042926  0.092937  0.00054  3.956257  0.001
C  C82  1  0.18537619  0.46625785  0.25860337  1  0.127404  -0.006017  3.705762  -0.008  0.098913  -0.000804  3.968157  -0.002  0.107145  -0.001275  3.986327  -0.002  0.04294  0.092941  -0.00054  3.956294  -0.001
C  C83  1  0.31462067  0.96625900  0.75860319  1  0.127396  -0.006021  3.705795  -0.008  0.098931  -0.000804  3.968165  -0.002  0.107147  -0.001274  3.986332  -0.002  0.042931  0.09296  -0.000541  3.956299  -0.001
C  C84  1  0.83585684  0.33168660  0.66489544  1  0.101585  0.006652  3.741373  0.007  0.114197  0.002241  3.968765  0.003  0.119493  0.002152  3.987749  0.002  0.01648  0.11026  0.002541  3.956458  0.003
C  C85  1  0.66413501  0.83168314  0.16489090  1  0.101633  0.006663  3.741269  0.007  0.114262  0.002241  3.968667  0.003  0.119581  0.002152  3.987618  0.002  0.016502  0.110326  0.002541  3.956357  0.003
C  C86  1  0.16414113  0.66831597  0.33510794  1  0.101623  -0.00665  3.741395  -0.007  0.114259  -0.002241  3.968814  -0.003  0.119569  -0.002152  3.98778  -0.002  0.016482  0.110324  -0.002542  3.95651  -0.003
C  C87  1  0.33585935  0.16831407  0.83510789  1  0.101689  -0.006652  3.741295  -0.007  0.114344  -0.002241  3.968687  -0.003  0.119641  -0.002152  3.987669  -0.002  0.016534  0.110408  -0.002544  3.956385  -0.003
C  C88  1  0.72090841  0.14246602  0.71075642  1  -0.120372  -0.005956  3.663818  -0.007  -0.137852  -0.002039  3.904635  -0.003  -0.143325  -0.001962  3.923042  -0.003  -0.067021  -0.134599  -0.002217  3.892889  -0.003
C  C89  1  0.77908543  0.64246386  0.21075639  1  -0.120442  -0.005939  3.663703  -0.007  -0.137831  -0.002039  3.90455  -0.003  -0.143305  -0.001962  3.922957  -0.003  -0.067019  -0.134577  -0.002212  3.8928  -0.003
C  C90  1  0.27907992  0.85753570  0.28924086  1  -0.120494  0.005965  3.663915  0.007  -0.137886  0.002039  3.904802  0.003  -0.143362  0.001962  3.923211  0.003  -0.067058  -0.134631  0.002214  3.893049  0.003
C  C91  1  0.22091495  0.35753606  0.78924003  1  -0.120486  0.005968  3.663821  0.007  -0.137874  0.002039  3.904707  0.003  -0.143349  0.001962  3.923114  0.003  -0.067064  -0.13462  0.002215  3.892953  0.003
C  C92  1  0.94114838  0.00410028  0.60957666  1  0.117156  0.005503  3.730423  0.007  0.090421  0.001012  3.985809  0.002  0.097737  0.001483  4.006212  0.002  0.044201  0.085183  0.00075  3.97218  0.001
C  C93  1  0.55885683  0.50409544  0.10957158  1  0.11722  0.005488  3.730287  0.007  0.090479  0.001012  3.985663  0.002  0.097792  0.001483  4.006073  0.002  0.044247  0.085241  0.000746  3.972037  0.001
C  C94  1  0.05885440  0.99590320  0.39042614  1  0.11714  -0.005509  3.730465  -0.007  0.090433  -0.001012  3.985844  -0.002  0.09775  -0.001484  4.006247  -0.002  0.044258  0.085195  -0.000746  3.97222  -0.001
C  C95  1  0.44114957  0.49590180  0.89042321  1  0.117106  -0.005515  3.730579  -0.007  0.090372  -0.001012  3.985915  -0.002  0.097688  -0.001483  4.006325  -0.002  0.044234  0.085137  -0.000747  3.972286  -0.001
C  C96  1  0.94841267  0.12796666  0.61142518  1  -0.172553  -0.005872  3.693389  -0.007  -0.189317  -0.002159  3.938131  -0.003  -0.196917  -0.002042  3.956929  -0.003  -0.084476  -0.1844  -0.00237  3.926185  -0.003
C  C97  1  0.55158934  0.62796187  0.11141811  1  -0.172482  -0.005855  3.69314  -0.007  -0.189229  -0.002159  3.937939  -0.003  -0.196827  -0.002043  3.956737  -0.003  -0.084505  -0.184309  -0.002367  3.925988  -0.003
C  C98  1  0.05158410  0.87203771  0.38857840  1  -0.172418  0.005879  3.693194  0.007  -0.189114  0.002159  3.937979  0.003  -0.196708  0.002043  3.956776  0.003  -0.084479  -0.184197  0.002367  3.926036  0.003
C  C99  1  0.44841705  0.37203358  0.88857515  1  -0.172453  0.005884  3.693212  0.007  -0.189129  0.002159  3.938006  0.003  -0.196727  0.002043  3.956806  0.003  -0.084452  -0.184215  0.00237  3.926065  0.003
C  C100  1  0.83498545  0.20002364  0.66305446  1  0.104147  0.005703  3.744455  0.006  0.116635  0.002029  3.970589  0.002  0.120602  0.001986  3.990345  0.002  0.019708  0.113865  0.002263  3.95761  0.002
C  C101  1  0.66500844  0.70002103  0.16305534  1  0.104071  0.005686  3.744434  0.006  0.116558  0.002029  3.970564  0.002  0.120519  0.001987  3.990315  0.002  0.019667  0.113786  0.002259  3.957581  0.002
C  C102  1  0.16501011  0.79997986  0.33694568  1  0.104075  -0.005709  3.744529  -0.006  0.116472  -0.002029  3.970791  -0.002  0.120437  -0.001988  3.990543  -0.002  0.019627  0.1137  -0.002262  3.957813  -0.002
C  C103  1  0.33498953  0.29997708  0.83694354  1  0.104038  -0.005711  3.744524  -0.006  0.116432  -0.002029  3.97077  -0.002  0.1204  -0.001987  3.990525  -0.002  0.019645  0.113659  -0.002262  3.957791  -0.002
C  C104  1  0.72415282  0.01794088  0.70577168  1  0.131653  0.006133  3.668673  0.008  0.10698  0.001523  3.921526  0.002  0.115041  0.001888  3.938198  0.003  0.05226  0.101218  0.001348  3.91064  0.002
C  C105  1  0.77584064  0.51793781  0.20577490  1  0.131679  0.006118  3.668533  0.008  0.106859  0.001523  3.921423  0.002  0.114915  0.001888  3.9381  0.003  0.05231  0.101087  0.001345  3.910546  0.002
C  C106  1  0.27584274  0.98206176  0.29422236  1  0.131803  -0.006144  3.66847  -0.008  0.107039  -0.001523  3.921362  -0.002  0.115096  -0.001888  3.938037  -0.003  0.052376  0.101268  -0.001345  3.910478  -0.002
C  C107  1  0.22415853  0.48206119  0.79422475  1  0.131756  -0.006143  3.668522  -0.008  0.106981  -0.001523  3.921434  -0.002  0.115038  -0.001887  3.938112  -0.003  0.052336  0.101209  -0.001348  3.910542  -0.002
N  N108  1  0.84159868  0.58123872  0.66518977  1  -0.297419  -0.055173  3.32894  -0.082  -0.257537  -0.035199  3.620174  -0.053  -0.285703  -0.028646  3.641878  -0.044  -0.333061  -0.237382  -0.040472  3.605197  -0.06
N  N109  1  0.65839955  0.08123411  0.16518697  1  -0.297306  -0.055181  3.328847  -0.082  -0.257438  -0.035198  3.620051  -0.053  -0.285624  -0.028645  3.641767  -0.044  -0.333052  -0.237288  -0.040472  3.605064  -0.06
N  N110  1  0.15840290  0.41876296  0.33481218  1  -0.297434  0.055173  3.32903  0.082  -0.257565  0.035198  3.620266  0.053  -0.285746  0.028645  3.64197  0.044  -0.333084  -0.237414  0.040471  3.605286  0.06
N  N111  1  0.34159962  0.91876221  0.83481105  1  -0.297341  0.055175  3.328863  0.082  -0.25747  0.035199  3.620084  0.053  -0.285656  0.028646  3.641799  0.044  -0.333036  -0.237315  0.040472  3.605122  0.06
N  N112  1  0.83290356  0.94869097  0.65610114  1  -0.274608  -0.049932  3.281666  -0.074  -0.234149  -0.032571  3.563572  -0.049  -0.260002  -0.02687  3.584196  -0.042  -0.321227  -0.215695  -0.036954  3.549574  -0.054
N  N113  1  0.66709606  0.44868991  0.15609937  1  -0.27471  -0.049922  3.281581  -0.073  -0.234163  -0.032571  3.563453  -0.049  -0.260031  -0.02687  3.58407  -0.042  -0.321261  -0.215714  -0.036951  3.549453  -0.054
N  N114  1  0.16709682  0.05131072  0.34390014  1  -0.274679  0.049943  3.281596  0.074  -0.234222  0.032572  3.563542  0.049  -0.260086  0.026871  3.584158  0.042  -0.321289  -0.215768  0.036952  3.54954  0.054
N  N115  1  0.33290431  0.55131090  0.84389914  1  -0.274599  0.049942  3.281544  0.074  -0.234147  0.03257  3.563512  0.049  -0.260016  0.026869  3.584134  0.042  -0.321256  -0.215688  0.036952  3.549509  0.054
O  O116  1  0.58990878  0.76536049  0.67751632  1  -0.58279  -0.051716  2.138264  -0.08  -0.562128  -0.031858  2.421072  -0.051  -0.599631  -0.024182  2.411243  -0.039  -0.299153  -0.532967  -0.039474  2.426531  -0.061
O  O117  1  0.91009421  0.26536294  0.17751564  1  -0.58279  -0.051721  2.138251  -0.08  -0.562168  -0.031861  2.421104  -0.051  -0.599691  -0.024184  2.411243  -0.039  -0.299163  -0.533019  -0.03948  2.426569  -0.061
O  O118  1  0.41008919  0.23464028  0.32248752  1  -0.582866  0.05172  2.138179  0.08  -0.562196  0.031859  2.421028  0.051  -0.599718  0.024184  2.411174  0.039  -0.299166  -0.533036  0.039475  2.426483  0.061
O  O119  1  0.08990616  0.73463966  0.82248307  1  -0.582752  0.051719  2.138385  0.08  -0.562125  0.031859  2.421186  0.051  -0.599643  0.024183  2.411335  0.039  -0.299121  -0.532958  0.039474  2.426645  0.061
O  O120  1  0.61829065  0.77657950  0.41308143  1  -0.584189  -0.01818  1.871257  -0.027  -0.55655  -0.008438  2.086401  -0.013  -0.581275  -0.005233  2.079455  -0.008  -0.327893  -0.536975  -0.012486  2.089665  -0.019
O  O121  1  0.88171867  0.27659090  0.91308271  1  -0.584338  -0.018181  1.871373  -0.027  -0.556688  -0.008438  2.086433  -0.013  -0.581413  -0.005234  2.079488  -0.008  -0.327922  -0.537112  -0.012486  2.089698  -0.019
O  O122  1  0.38171213  0.22341589  0.58691917  1  -0.584123  0.018163  1.871909  0.027  -0.556513  0.008434  2.087004  0.013  -0.581228  0.005232  2.080053  0.008  -0.327842  -0.536945  0.012479  2.090271  0.019
O  O123  1  0.11828411  0.72340721  0.08691551  1  -0.584202  0.018181  1.871405  0.027  -0.556558  0.008439  2.086503  0.013  -0.581282  0.005235  2.079559  0.008  -0.327857  -0.536984  0.012486  2.089765  0.019
O  O124  1  0.79885000  0.74933775  0.52021514  1  -0.631962  -0.059485  2.091227  -0.093  -0.613022  -0.033653  2.374903  -0.054  -0.654954  -0.024771  2.366634  -0.041  -0.331287  -0.579937  -0.041945  2.378347  -0.066
O  O125  1  0.70115323  0.24933922  0.02021757  1  -0.631914  -0.059472  2.091492  -0.093  -0.612991  -0.033649  2.375113  -0.054  -0.654943  -0.024767  2.366836  -0.04  -0.331314  -0.579913  -0.04194  2.37855  -0.066
O  O126  1  0.20114796  0.25065676  0.47978335  1  -0.631901  0.059485  2.091269  0.093  -0.612969  0.033654  2.374841  0.054  -0.654934  0.024771  2.366595  0.041  -0.331276  -0.579888  0.041945  2.378279  0.066
O  O127  1  0.29884594  0.75065978  0.97978142  1  -0.631897  0.059475  2.09148  0.093  -0.612952  0.033649  2.375094  0.054  -0.654907  0.024767  2.366823  0.04  -0.331307  -0.579869  0.041938  2.378547  0.066
O  O128  1  0.08161997  0.74798331  0.62255995  1  -0.770428  -0.028407  1.975524  -0.042  -0.74205  -0.024641  2.191242  -0.037  -0.76692  -0.020032  2.160345  -0.03  -0.555445  -0.723169  -0.028714  2.213231  -0.042
O  O129  1  0.41838062  0.24797944  0.12255856  1  -0.770478  -0.028409  1.975501  -0.042  -0.742114  -0.024642  2.191223  -0.037  -0.766997  -0.020033  2.160305  -0.03  -0.555481  -0.723237  -0.028715  2.213206  -0.042
O  O130  1  0.91838161  0.25201928  0.37744210  1  -0.770438  0.028407  1.975596  0.042  -0.742047  0.024641  2.191283  0.037  -0.76694  0.020032  2.160403  0.03  -0.555471  -0.723169  0.028716  2.21327  0.042
O  O131  1  0.58161975  0.75201868  0.87743900  1  -0.770422  0.028407  1.975602  0.042  -0.742057  0.024641  2.191342  0.037  -0.766939  0.020033  2.160417  0.03  -0.555464  -0.723174  0.028714  2.21333  0.042
O  O132  1  0.34983374  0.68733108  0.70145726  1  -0.642824  0.026026  2.144564  0.041  -0.601197  0.020089  2.405553  0.032  -0.637773  0.016629  2.394272  0.027  -0.307262  -0.573204  0.022439  2.412601  0.035
O  O133  1  0.15016174  0.18733098  0.20145631  1  -0.642995  0.026021  2.144477  0.041  -0.601363  0.020085  2.405475  0.032  -0.637944  0.016626  2.394173  0.027  -0.307338  -0.573375  0.022434  2.412527  0.035
O  O134  1  0.65016904  0.31266701  0.29854363  1  -0.642854  -0.026024  2.144367  -0.041  -0.601229  -0.020087  2.405395  -0.032  -0.637805  -0.016627  2.394102  -0.027  -0.307276  -0.573244  -0.022437  2.412436  -0.035
O  O135  1  0.84983502  0.81267522  0.79854279  1  -0.642778  -0.026025  2.144635  -0.041  -0.60119  -0.020088  2.405609  -0.032  -0.637745  -0.016629  2.394314  -0.027  -0.307237  -0.573198  -0.022436  2.412657  -0.035
