# generated using pymatgen
data_AgH9C10SN4O7
_symmetry_space_group_name_H-M   'P 1'
_cell_length_a   8.40029032
_cell_length_b   9.22948137
_cell_length_c   9.44959481
_cell_angle_alpha   70.45543592
_cell_angle_beta   70.56356982
_cell_angle_gamma   79.96731660
_symmetry_Int_Tables_number   1
_chemical_formula_structural   AgH9C10SN4O7
_chemical_formula_sum   'Ag2 H18 C20 S2 N8 O14'
_cell_volume   649.43887135
_cell_formula_units_Z   2
loop_
 _symmetry_equiv_pos_site_id
 _symmetry_equiv_pos_as_xyz
  1  'x, y, z'
loop_
 _atom_site_type_symbol
 _atom_site_label
 _atom_site_symmetry_multiplicity
 _atom_site_fract_x
 _atom_site_fract_y
 _atom_site_fract_z
 _atom_site_occupancy
 _atom_site_hle17_bader_spin_density
 _atom_site_hle17_ddec_charge
 _atom_site_hle17_ddec_spin_density
 _atom_site_hle17_ddec_sum_bond_order
 _atom_site_hle17_magmom
 _atom_site_hse06_10hf_bader_spin_density
 _atom_site_hse06_10hf_ddec_charge
 _atom_site_hse06_10hf_ddec_spin_density
 _atom_site_hse06_10hf_ddec_sum_bond_order
 _atom_site_hse06_10hf_magmom
 _atom_site_hse06_bader_spin_density
 _atom_site_hse06_ddec_charge
 _atom_site_hse06_ddec_spin_density
 _atom_site_hse06_ddec_sum_bond_order
 _atom_site_hse06_magmom
 _atom_site_pbe_bader_spin_density
 _atom_site_pbe_cm5_charge
 _atom_site_pbe_ddec_charge
 _atom_site_pbe_ddec_spin_density
 _atom_site_pbe_ddec_sum_bond_order
 _atom_site_pbe_magmom
Ag  Ag0  1  0.30399479  0.62650265  0.48168887  1  0  0.784092  0  1.139119  0  0  0.69128  0  1.541038  0  0  0.713014  0  1.491143  0  0  0.47665  0.674189  0  1.577044  0
Ag  Ag1  1  0.69600370  0.37349549  0.51831039  1  0  0.784111  0  1.139121  0  0  0.691299  0  1.541009  0  0  0.713035  0  1.491115  0  0  0.476643  0.674206  0  1.577016  0
H  H2  1  0.05341022  0.05802432  0.02944429  1  0  0.104198  0  0.975536  0  0  0.112916  0  1.039214  0  0  0.115915  0  1.037269  0  0  0.10607  0.110511  0  1.041678  0
H  H3  1  0.94659197  0.94197498  0.97055453  1  0  0.104221  0  0.975496  0  0  0.112929  0  1.039185  0  0  0.115927  0  1.037241  0  0  0.106082  0.110524  0  1.041651  0
H  H4  1  0.93476364  0.04308941  0.31191972  1  0  0.113278  0  0.952704  0  0  0.12034  0  1.015447  0  0  0.124176  0  1.013357  0  0  0.104428  0.117591  0  1.01668  0
H  H5  1  0.06523990  0.95690873  0.68807802  1  0  0.113358  0  0.952682  0  0  0.12037  0  1.015461  0  0  0.124205  0  1.01337  0  0  0.104463  0.117622  0  1.016688  0
H  H6  1  0.99432865  0.24378675  0.40669629  1  0  0.09661  0  0.958701  0  0  0.107087  0  1.020914  0  0  0.110899  0  1.017012  0  0  0.102111  0.104628  0  1.023659  0
H  H7  1  0.00567111  0.75621139  0.59330365  1  0  0.0966  0  0.958728  0  0  0.10709  0  1.020928  0  0  0.110903  0  1.017023  0  0  0.102108  0.104631  0  1.023675  0
H  H8  1  0.16739582  0.46114711  0.21655398  1  0  0.115133  0  0.970908  0  0  0.12024  0  1.040178  0  0  0.124291  0  1.037144  0  0  0.10808  0.117062  0  1.04261  0
H  H9  1  0.83260259  0.53885218  0.78344598  1  0  0.115123  0  0.970921  0  0  0.120226  0  1.040191  0  0  0.124277  0  1.037155  0  0  0.108073  0.117051  0  1.042625  0
H  H10  1  0.37128242  0.49727633  0.79786208  1  0  0.281872  0  0.949987  0  0  0.25657  0  1.022944  0  0  0.266422  0  1.014355  0  0  0.317662  0.249749  0  1.028796  0
H  H11  1  0.62871707  0.50272527  0.20213785  1  0  0.281824  0  0.950044  0  0  0.256588  0  1.022891  0  0  0.266441  0  1.014303  0  0  0.317683  0.249777  0  1.028739  0
H  H12  1  0.67004578  0.86205681  0.47837978  1  0  0.342438  0  0.864985  0  0  0.320029  0  0.928247  0  0  0.329559  0  0.920392  0  0  0.322229  0.313176  0  0.934058  0
H  H13  1  0.32995499  0.13794480  0.52162189  1  0  0.342529  0  0.864878  0  0  0.320102  0  0.928156  0  0  0.329638  0  0.920302  0  0  0.322245  0.313254  0  0.93396  0
H  H14  1  0.57853687  0.03872208  0.84692804  1  0  0.349802  0  0.877545  0  0  0.323241  0  0.946376  0  0  0.333765  0  0.937167  0  0  0.319951  0.315779  0  0.953016  0
H  H15  1  0.42146282  0.96127722  0.15307471  1  0  0.349744  0  0.877597  0  0  0.323186  0  0.946432  0  0  0.333706  0  0.937229  0  0  0.319937  0.315727  0  0.953061  0
H  H16  1  0.04064412  0.65405660  0.31178408  1  0  0.426989  0  0.871677  0  0  0.401938  0  0.925314  0  0  0.410806  0  0.912443  0  0  0.288518  0.395455  0  0.934785  0
H  H17  1  0.95935545  0.34594384  0.68821515  1  0  0.426997  0  0.871667  0  0  0.401943  0  0.925309  0  0  0.410811  0  0.912438  0  0  0.288515  0.395458  0  0.934783  0
H  H18  1  0.21129454  0.73786991  0.19899822  1  0  0.421561  0  0.878618  0  0  0.386302  0  0.950411  0  0  0.396498  0  0.935253  0  0  0.287337  0.378907  0  0.961549  0
H  H19  1  0.78870495  0.26213170  0.80100171  1  0  0.421571  0  0.878608  0  0  0.386306  0  0.950411  0  0  0.396502  0  0.935253  0  0  0.287321  0.378914  0  0.961544  0
C  C20  1  0.20269771  0.38342906  0.01707790  1  0  0.191384  0  3.763727  0  0  0.173677  0  4.018476  0  0  0.179691  0  4.043468  0  0  0.096438  0.169421  0  4.001513  0
C  C21  1  0.79730186  0.61657138  0.98292027  1  0  0.191372  0  3.763678  0  0  0.173562  0  4.018507  0  0  0.179573  0  4.043503  0  0  0.0964  0.16933  0  4.001538  0
C  C22  1  0.16910593  0.26892414  0.96366526  1  0  -0.187539  0  3.67956  0  0  -0.167909  0  3.935628  0  0  -0.176788  0  3.957524  0  0  -0.02046  -0.163373  0  3.92147  0
C  C23  1  0.83089501  0.73107516  0.03633500  1  0  -0.187573  0  3.679545  0  0  -0.167927  0  3.935636  0  0  -0.176809  0  3.957536  0  0  -0.020452  -0.163386  0  3.921468  0
C  C24  1  0.07344271  0.14775587  0.07096401  1  0  -0.042896  0  3.73775  0  0  -0.074215  0  3.998736  0  0  -0.072817  0  4.018999  0  0  -0.084761  -0.075335  0  3.98518  0
C  C25  1  0.92655822  0.85224342  0.92903520  1  0  -0.042881  0  3.7378  0  0  -0.074187  0  3.998762  0  0  -0.072788  0  4.019024  0  0  -0.084766  -0.07531  0  3.985208  0
C  C26  1  0.00840943  0.13898780  0.22974117  1  0  -0.04478  0  3.694622  0  0  -0.066548  0  3.957687  0  0  -0.07056  0  3.979007  0  0  -0.085476  -0.060773  0  3.940669  0
C  C27  1  0.99159294  0.86100919  0.77025836  1  0  -0.04488  0  3.694676  0  0  -0.066614  0  3.957775  0  0  -0.07062  0  3.979086  0  0  -0.08554  -0.060833  0  3.940754  0
C  C28  1  0.04136616  0.25239932  0.28184048  1  0  -0.050352  0  3.749958  0  0  -0.066713  0  4.011345  0  0  -0.065724  0  4.029882  0  0  -0.088459  -0.068059  0  3.996685  0
C  C29  1  0.95863234  0.74759882  0.71815984  1  0  -0.050311  0  3.749961  0  0  -0.066683  0  4.011314  0  0  -0.065695  0  4.029852  0  0  -0.088427  -0.068034  0  3.996664  0
C  C30  1  0.13837801  0.37371984  0.17671366  1  0  -0.14159  0  3.712792  0  0  -0.169062  0  3.978743  0  0  -0.174941  0  4.000731  0  0  -0.092912  -0.16159  0  3.960854  0
C  C31  1  0.86162292  0.62627945  0.82328449  1  0  -0.141574  0  3.712814  0  0  -0.16901  0  3.978761  0  0  -0.174888  0  4.00075  0  0  -0.092889  -0.161547  0  3.960879  0
C  C32  1  0.42445019  0.72722972  0.84879163  1  0  -0.168559  0  3.735237  0  0  -0.160762  0  4.009025  0  0  -0.180059  0  4.028488  0  0  0.083974  -0.149245  0  3.997156  0
C  C33  1  0.57554821  0.27276957  0.15120833  1  0  -0.168529  0  3.735124  0  0  -0.160756  0  4.00893  0  0  -0.18005  0  4.028399  0  0  0.083976  -0.149233  0  3.997053  0
C  C34  1  0.51305559  0.73175565  0.68654611  1  0  0.572156  0  3.817296  0  0  0.520486  0  4.10178  0  0  0.552884  0  4.100254  0  0  0.242861  0.498965  0  4.102567  0
C  C35  1  0.48694381  0.26824710  0.31345347  1  0  0.57223  0  3.817229  0  0  0.520563  0  4.101712  0  0  0.552954  0  4.100201  0  0  0.242851  0.499039  0  4.102501  0
C  C36  1  0.44528403  0.84822923  0.90784572  1  0  0.586422  0  3.811608  0  0  0.521938  0  4.116658  0  0  0.554058  0  4.116187  0  0  0.249024  0.499677  0  4.117119  0
C  C37  1  0.55471564  0.15177006  0.09215387  1  0  0.586387  0  3.811605  0  0  0.521926  0  4.116636  0  0  0.554041  0  4.116167  0  0  0.249036  0.499664  0  4.117099  0
C  C38  1  0.63464968  0.97068766  0.64693631  1  0  0.764263  0  3.827914  0  0  0.691759  0  4.133464  0  0  0.727485  0  4.129099  0  0  0.349584  0.667519  0  4.136034  0
C  C39  1  0.36534768  0.02930934  0.35306896  1  0  0.764356  0  3.828041  0  0  0.691909  0  4.133495  0  0  0.72763  0  4.129132  0  0  0.349756  0.667666  0  4.136065  0
S  S40  1  0.25237022  0.27541256  0.76170902  1  0  1.303055  0  5.633296  0  0  1.200641  0  6.150968  0  0  1.249079  0  6.128175  0  0  0.509795  1.167865  0  6.164147  0
S  S41  1  0.74763080  0.72458558  0.23829054  1  0  1.303045  0  5.633346  0  0  1.200643  0  6.151018  0  0  1.249081  0  6.128228  0  0  0.509809  1.167854  0  6.164212  0
N  N42  1  0.30330539  0.50358824  0.91024607  1  0  -0.163077  0  3.450308  0  0  -0.103819  0  3.687738  0  0  -0.120546  0  3.702706  0  0  -0.234236  -0.092882  0  3.677815  0
N  N43  1  0.69669419  0.49641220  0.08975316  1  0  -0.163088  0  3.450459  0  0  -0.103754  0  3.687729  0  0  -0.120479  0  3.702696  0  0  -0.234223  -0.092869  0  3.677856  0
N  N44  1  0.32397689  0.61770632  0.95192125  1  0  -0.026011  0  3.071917  0  0  -0.026229  0  3.346496  0  0  -0.010307  0  3.355135  0  0  -0.146143  -0.036239  0  3.340464  0
N  N45  1  0.67602387  0.38229528  0.04807830  1  0  -0.026012  0  3.071972  0  0  -0.026266  0  3.34653  0  0  -0.010344  0  3.35517  0  0  -0.146174  -0.036263  0  3.340512  0
N  N46  1  0.60895985  0.85537847  0.59482290  1  0  -0.520295  0  3.248811  0  0  -0.457266  0  3.490599  0  0  -0.48335  0  3.49225  0  0  -0.383744  -0.440158  0  3.488825  0
N  N47  1  0.39104091  0.14462314  0.40517770  1  0  -0.520563  0  3.248868  0  0  -0.45753  0  3.490619  0  0  -0.483622  0  3.49228  0  0  -0.383814  -0.440423  0  3.488839  0
N  N48  1  0.55793552  0.95588032  0.80405300  1  0  -0.531852  0  3.275784  0  0  -0.469689  0  3.525927  0  0  -0.496162  0  3.527323  0  0  -0.382626  -0.451921  0  3.525105  0
N  N49  1  0.44206408  0.04412015  0.19595045  1  0  -0.531764  0  3.275699  0  0  -0.469639  0  3.525852  0  0  -0.496098  0  3.527231  0  0  -0.382658  -0.451871  0  3.525025  0
O  O50  1  0.50397601  0.62953951  0.62978994  1  0  -0.573325  0  2.092731  0  0  -0.529004  0  2.3664  0  0  -0.548151  0  2.351971  0  0  -0.284909  -0.515955  0  2.376317  0
O  O51  1  0.49601949  0.37046438  0.37020726  1  0  -0.573345  0  2.092582  0  0  -0.529041  0  2.366268  0  0  -0.548176  0  2.351821  0  0  -0.28494  -0.515994  0  2.376186  0
O  O52  1  0.37082242  0.85659927  0.04339284  1  0  -0.533792  0  2.00773  0  0  -0.475146  0  2.23319  0  0  -0.4971  0  2.225486  0  0  -0.263829  -0.460941  0  2.238966  0
O  O53  1  0.62917717  0.14340119  0.95660956  1  0  -0.53381  0  2.007722  0  0  -0.475171  0  2.233179  0  0  -0.497124  0  2.225474  0  0  -0.263849  -0.460965  0  2.238955  0
O  O54  1  0.72148975  0.07837766  0.55597637  1  0  -0.574883  0  1.950647  0  0  -0.528085  0  2.19936  0  0  -0.549904  0  2.189243  0  0  -0.280231  -0.512453  0  2.205809  0
O  O55  1  0.27851733  0.92162396  0.44402340  1  0  -0.574789  0  1.95075  0  0  -0.528033  0  2.19946  0  0  -0.549849  0  2.189341  0  0  -0.280277  -0.512413  0  2.205925  0
O  O56  1  0.14592864  0.68977609  0.30875872  1  0  -0.858773  0  1.886785  0  0  -0.798375  0  2.089256  0  0  -0.818355  0  2.05423  0  0  -0.606417  -0.784693  0  2.114964  0
O  O57  1  0.85406931  0.31022897  0.69124053  1  0  -0.858781  0  1.88675  0  0  -0.798381  0  2.089226  0  0  -0.818362  0  2.054203  0  0  -0.606395  -0.784701  0  2.114936  0
O  O58  1  0.15639224  0.40783154  0.67703719  1  0  -0.706345  0  2.063967  0  0  -0.638188  0  2.333434  0  0  -0.662668  0  2.317315  0  0  -0.339916  -0.62068  0  2.344143  0
O  O59  1  0.84360869  0.59216775  0.32296096  1  0  -0.706404  0  2.064017  0  0  -0.638233  0  2.333465  0  0  -0.662713  0  2.317346  0  0  -0.339956  -0.620724  0  2.34418  0
O  O60  1  0.22621930  0.12930427  0.74651243  1  0  -0.640759  0  1.936833  0  0  -0.582875  0  2.17458  0  0  -0.604343  0  2.162389  0  0  -0.328253  -0.567844  0  2.181973  0
O  O61  1  0.77378173  0.87069387  0.25348819  1  0  -0.640679  0  1.936828  0  0  -0.582837  0  2.174607  0  0  -0.604303  0  2.162415  0  0  -0.328245  -0.567807  0  2.182008  0
O  O62  1  0.43043635  0.30445242  0.72284280  1  0  -0.688464  0  2.115982  0  0  -0.634567  0  2.411937  0  0  -0.656786  0  2.39442  0  0  -0.342314  -0.618347  0  2.423271  0
O  O63  1  0.56956459  0.69554688  0.27715746  1  0  -0.688446  0  2.115961  0  0  -0.634575  0  2.411954  0  0  -0.656783  0  2.394411  0  0  -0.342317  -0.618349  0  2.423281  0
