# generated using pymatgen
data_CuH8C7N2O3
_symmetry_space_group_name_H-M   'P 1'
_cell_length_a   7.26517188
_cell_length_b   9.43248515
_cell_length_c   13.15207895
_cell_angle_alpha   89.99643289
_cell_angle_beta   90.00037630
_cell_angle_gamma   107.52089602
_symmetry_Int_Tables_number   1
_chemical_formula_structural   CuH8C7N2O3
_chemical_formula_sum   'Cu4 H32 C28 N8 O12'
_cell_volume   859.48036516
_cell_formula_units_Z   4
loop_
 _symmetry_equiv_pos_site_id
 _symmetry_equiv_pos_as_xyz
  1  'x, y, z'
loop_
 _atom_site_type_symbol
 _atom_site_label
 _atom_site_symmetry_multiplicity
 _atom_site_fract_x
 _atom_site_fract_y
 _atom_site_fract_z
 _atom_site_occupancy
 _atom_site_hle17_ddec_charge
 _atom_site_hle17_ddec_spin_density
 _atom_site_hle17_ddec_sum_bond_order
 _atom_site_hle17_magmom
 _atom_site_hse06_10hf_ddec_charge
 _atom_site_hse06_10hf_ddec_spin_density
 _atom_site_hse06_10hf_ddec_sum_bond_order
 _atom_site_hse06_10hf_magmom
 _atom_site_hse06_ddec_charge
 _atom_site_hse06_ddec_spin_density
 _atom_site_hse06_ddec_sum_bond_order
 _atom_site_hse06_magmom
 _atom_site_pbe_cm5_charge
 _atom_site_pbe_ddec_charge
 _atom_site_pbe_ddec_spin_density
 _atom_site_pbe_ddec_sum_bond_order
 _atom_site_pbe_magmom
Cu  Cu0  1  0.65350623  0.95794142  0.91999034  1  0.831132  0.610403  1.816288  0.436  0.80517  0.754119  2.226496  0.586  0.899263  0.848153  2.150176  0.68  0.721459  0.740426  0.602451  2.282687  0.462
Cu  Cu1  1  0.65345639  0.45789583  0.58001066  1  0.83094  -0.61044  1.817004  -0.436  0.805171  -0.754123  2.226827  -0.586  0.899379  -0.848185  2.150456  -0.68  0.721515  0.740463  -0.602472  2.283059  -0.462
Cu  Cu2  1  0.34653222  0.04207988  0.08000919  1  0.830811  -0.610441  1.816865  -0.436  0.805015  -0.754117  2.226755  -0.586  0.899198  -0.848173  2.150422  -0.68  0.721463  0.740246  -0.602445  2.283029  -0.462
Cu  Cu3  1  0.34649607  0.54207263  0.41999420  1  0.831139  0.610446  1.816242  0.436  0.805003  0.754109  2.226502  0.586  0.899118  0.848158  2.150198  0.68  0.721466  0.740275  0.602459  2.282706  0.462
H  H4  1  0.48691521  0.12918306  0.84322545  1  0.310173  -0.000756  0.879411  -0.002  0.305022  0.000411  0.931035  0.0  0.311527  0.000167  0.928263  -0.001  0.302045  0.300141  0.000503  0.933627  0.0
H  H5  1  0.48679918  0.62908876  0.65679483  1  0.310259  0.000753  0.879254  0.002  0.304931  -0.000413  0.93112  0.0  0.311439  -0.000169  0.928342  0.001  0.301964  0.300049  -0.000505  0.933716  0.0
H  H6  1  0.51316560  0.87085799  0.15678624  1  0.31047  0.000751  0.879127  0.002  0.305075  -0.000414  0.93107  0.0  0.311582  -0.000169  0.928296  0.001  0.302049  0.300195  -0.000505  0.933672  0.0
H  H7  1  0.51312730  0.37086987  0.34320698  1  0.310168  -0.000755  0.87924  -0.002  0.304935  0.000413  0.930952  0.0  0.311442  0.000169  0.928177  -0.001  0.30204  0.300054  0.000504  0.933546  0.0
H  H8  1  0.53938068  0.04610002  0.74292974  1  0.315677  -0.000578  0.884557  -0.001  0.31271  0.000222  0.930561  0.0  0.319776  4.8e-05  0.926518  0.0  0.301552  0.307472  0.000318  0.934174  0.0
H  H9  1  0.53929287  0.54600071  0.75707501  1  0.31584  0.000576  0.884164  0.001  0.312738  -0.000223  0.930333  0.0  0.319797  -4.9e-05  0.926298  0.0  0.301624  0.307501  -0.000319  0.93395  0.0
H  H10  1  0.46068502  0.95394449  0.25706066  1  0.315754  0.000576  0.884304  0.001  0.312794  -0.000221  0.930297  0.0  0.319862  -4.7e-05  0.926244  0.0  0.301569  0.30756  -0.000317  0.933917  0.0
H  H11  1  0.46063816  0.45395899  0.24292072  1  0.315655  -0.000576  0.884412  -0.001  0.312596  0.000224  0.93051  0.0  0.319659  4.9e-05  0.926474  0.0  0.30159  0.307356  0.000319  0.934131  0.0
H  H12  1  0.08267496  0.25122429  0.80818451  1  0.080392  0.001844  0.904385  0.003  0.098499  0.001393  0.957268  0.002  0.098621  0.001116  0.956939  0.002  0.110079  0.098294  0.001283  0.957764  0.002
H  H13  1  0.08258779  0.75116629  0.69183254  1  0.080324  -0.001836  0.904502  -0.003  0.098533  -0.00139  0.957291  -0.002  0.098663  -0.001114  0.956955  -0.002  0.110075  0.098306  -0.001281  0.957797  -0.002
H  H14  1  0.91737349  0.74880474  0.19182567  1  0.08044  -0.00184  0.904508  -0.003  0.09863  -0.00139  0.957284  -0.002  0.098766  -0.001114  0.956947  -0.002  0.110169  0.0984  -0.00128  0.957791  -0.002
H  H15  1  0.91733835  0.24877784  0.30819056  1  0.080329  0.001843  0.904465  0.003  0.098457  0.001391  0.957278  0.002  0.098576  0.001115  0.956944  0.002  0.110127  0.098251  0.001281  0.957769  0.002
H  H16  1  0.95949146  0.09518963  0.73228329  1  0.064161  0.000245  0.93575  0.0  0.081367  0.000116  0.995176  0.0  0.07982  0.000143  0.997419  0.0  0.101589  0.082485  7.5e-05  0.993544  0.0
H  H17  1  0.95938415  0.59508937  0.76771949  1  0.063993  -0.000236  0.936162  0.0  0.08128  -0.000116  0.995483  0.0  0.079734  -0.000142  0.997729  0.0  0.101524  0.082388  -7.5e-05  0.993843  0.0
H  H18  1  0.04059339  0.90486142  0.26771928  1  0.063924  -0.000245  0.936111  0.0  0.081211  -0.000116  0.995462  0.0  0.079669  -0.000142  0.99771  0.0  0.10156  0.082324  -7.4e-05  0.993826  0.0
H  H19  1  0.04052102  0.40484712  0.23228992  1  0.064045  0.000249  0.935891  0.0  0.081216  0.000116  0.995337  0.0  0.079664  0.000143  0.997578  0.0  0.101542  0.082331  7.5e-05  0.993706  0.0
H  H20  1  0.78306755  0.29929104  0.85383842  1  0.062366  -7.7e-05  0.95265  0.0  0.079264  -5.3e-05  1.01086  0.0  0.078167  -4.3e-05  1.013937  0.0  0.103375  0.079817  -5.2e-05  1.008938  0.0
H  H21  1  0.78294725  0.79919676  0.64615792  1  0.062166  7.3e-05  0.952598  0.0  0.079032  5.3e-05  1.01085  0.0  0.077926  4.3e-05  1.013927  0.0  0.103346  0.079585  5.2e-05  1.008933  0.0
H  H22  1  0.21700629  0.70076344  0.14615350  1  0.062289  7.8e-05  0.952707  0.0  0.079188  5.3e-05  1.011033  0.0  0.078098  4.4e-05  1.014119  0.0  0.10342  0.079741  5.2e-05  1.009114  0.0
H  H23  1  0.21699857  0.20074498  0.35383705  1  0.06226  -7.6e-05  0.952619  0.0  0.079183  -5.2e-05  1.010869  0.0  0.078086  -4.3e-05  1.013952  0.0  0.103413  0.079737  -5.2e-05  1.008947  0.0
H  H24  1  0.76646634  0.26748120  0.71957128  1  0.059542  0.002523  0.955922  0.003  0.063759  0.002022  1.039877  0.002  0.06396  0.001596  1.037498  0.002  0.09779  0.0629  0.001975  1.042297  0.002
H  H25  1  0.76635873  0.76737295  0.78042019  1  0.059385  -0.00253  0.955966  -0.003  0.06354  -0.002023  1.039982  -0.002  0.063734  -0.001597  1.037591  -0.002  0.097693  0.062683  -0.001977  1.042402  -0.002
H  H26  1  0.23360621  0.73256325  0.28042065  1  0.059245  -0.002528  0.956012  -0.003  0.063536  -0.002024  1.040021  -0.002  0.063742  -0.001598  1.037646  -0.002  0.097663  0.06268  -0.001977  1.042438  -0.002
H  H27  1  0.23356506  0.23257901  0.21957022  1  0.059472  0.002526  0.95568  0.003  0.063696  0.002022  1.039725  0.002  0.0639  0.001596  1.037345  0.002  0.097728  0.062831  0.001975  1.042156  0.002
H  H28  1  0.29475971  0.41694024  0.00634411  1  0.118171  -1e-05  0.970732  0.0  0.123406  6e-06  1.037976  0.0  0.127464  1e-05  1.035163  0.0  0.10236  0.120295  2e-06  1.040463  0.0
H  H29  1  0.29472417  0.91687741  0.49365412  1  0.118107  1e-05  0.970963  0.0  0.123376  -6e-06  1.03815  0.0  0.127362  -1e-05  1.03543  0.0  0.102346  0.120266  -2e-06  1.040632  0.0
H  H30  1  0.70526438  0.58310349  0.99364325  1  0.11807  8e-06  0.970754  0.0  0.123327  -6e-06  1.03798  0.0  0.127401  -1e-05  1.035151  0.0  0.102372  0.120218  -2e-06  1.040461  0.0
H  H31  1  0.70523624  0.08306979  0.50633781  1  0.118139  -1.1e-05  0.970604  0.0  0.1234  6e-06  1.037848  0.0  0.127473  1e-05  1.035017  0.0  0.102361  0.120293  2e-06  1.040332  0.0
H  H32  1  0.02070110  0.74927459  0.93124861  1  0.093414  -1.6e-05  0.959567  0.0  0.105615  1.4e-05  1.018824  0.0  0.107855  5e-06  1.018125  0.0  0.102424  0.103981  2.3e-05  1.019506  0.0
H  H33  1  0.02067963  0.24921098  0.56873180  1  0.093485  1.8e-05  0.959243  0.0  0.105518  -1.4e-05  1.018767  0.0  0.107755  -5e-06  1.018067  0.0  0.102392  0.103884  -2.3e-05  1.019446  0.0
H  H34  1  0.97933150  0.25079025  0.06873419  1  0.093381  2e-05  0.959294  0.0  0.105453  -1.4e-05  1.018764  0.0  0.10769  -5e-06  1.018064  0.0  0.102386  0.103819  -2.3e-05  1.019447  0.0
H  H35  1  0.97928938  0.75074731  0.43125404  1  0.093488  -1.8e-05  0.959606  0.0  0.105715  1.4e-05  1.018823  0.0  0.107953  5e-06  1.018125  0.0  0.102471  0.104083  2.3e-05  1.019505  0.0
C  C36  1  0.04534420  0.05017564  0.95552483  1  0.395333  -0.003032  3.953007  -0.003  0.363709  -0.001031  4.244123  -0.001  0.392871  -0.001871  4.250712  -0.002  0.210012  0.342194  -0.000432  4.240425  0.0
C  C37  1  0.04530859  0.55015141  0.54449245  1  0.395485  0.003016  3.952552  0.003  0.363513  0.001031  4.24399  0.001  0.392673  0.001865  4.250598  0.002  0.209998  0.342014  0.000433  4.24027  0.0
C  C38  1  0.95467873  0.94984133  0.04449447  1  0.395624  0.003019  3.952599  0.003  0.36363  0.001031  4.244097  0.001  0.392794  0.001866  4.250686  0.002  0.210045  0.342124  0.000437  4.240389  0.0
C  C39  1  0.95464295  0.44981816  0.45552305  1  0.395307  -0.003035  3.952656  -0.003  0.363593  -0.001029  4.243864  -0.001  0.392755  -0.001868  4.250468  -0.002  0.20999  0.342072  -0.000434  4.240172  0.0
C  C40  1  0.94844364  0.15860414  0.80118671  1  0.032068  0.001305  3.662334  0.0  -0.016708  0.001951  3.922097  0.0  -0.009682  0.001223  3.935742  0.0  -0.065266  -0.021587  0.00205  3.912851  0.001
C  C41  1  0.94832633  0.65851555  0.69881048  1  0.032233  -0.001343  3.662028  0.0  -0.01668  -0.001953  3.921756  0.0  -0.009666  -0.001222  3.935391  0.0  -0.065209  -0.021503  -0.00205  3.912461  -0.001
C  C42  1  0.05163480  0.84144807  0.19880293  1  0.032186  -0.001306  3.661766  0.0  -0.016597  -0.001954  3.921541  0.0  -0.009584  -0.001224  3.935212  0.0  -0.065352  -0.021426  -0.00205  3.912254  -0.001
C  C43  1  0.05158569  0.34142088  0.30119970  1  0.032172  0.001298  3.662165  0.0  -0.016484  0.001949  3.921802  0.0  -0.009429  0.001221  3.9354  0.0  -0.065292  -0.021341  0.002048  3.912531  0.001
C  C44  1  0.77302137  0.21641701  0.79406395  1  0.055623  -8.4e-05  3.597784  -0.002  0.004289  0.001914  3.862872  0.0  0.009325  0.001211  3.877256  -0.001  -0.074176  0.001218  0.002113  3.853808  0.0
C  C45  1  0.77289387  0.71631995  0.70592652  1  0.056273  0.000107  3.596971  0.002  0.005  -0.00191  3.862118  0.0  0.010069  -0.001204  3.876459  0.001  -0.073968  0.001925  -0.002109  3.853046  0.0
C  C46  1  0.22707580  0.78363729  0.20592266  1  0.056245  8.3e-05  3.59734  0.002  0.00461  -0.001911  3.862954  0.0  0.009615  -0.001205  3.877401  0.001  -0.074087  0.001542  -0.002109  3.853878  0.0
C  C47  1  0.22702538  0.28362757  0.29406768  1  0.056111  -9.3e-05  3.596882  -0.002  0.004573  0.001909  3.862147  0.0  0.009595  0.001207  3.876535  -0.001  -0.074049  0.001511  0.00211  3.853073  0.0
C  C48  1  0.36713876  0.69489401  0.93068233  1  0.638766  -0.001919  3.910143  -0.004  0.599492  -3.6e-05  4.200644  -0.001  0.636936  -0.000177  4.191002  -0.001  0.200028  0.573697  0.000123  4.206488  -0.001
C  C49  1  0.36708659  0.19483615  0.56931971  1  0.639343  0.001918  3.908964  0.004  0.600014  3.5e-05  4.199598  0.001  0.637455  0.000176  4.189958  0.001  0.200237  0.574229  -0.000122  4.205462  0.001
C  C50  1  0.63291873  0.30514722  0.06932100  1  0.639015  0.001919  3.909365  0.004  0.599694  3.4e-05  4.199995  0.001  0.637133  0.000174  4.190359  0.001  0.200069  0.573921  -0.000123  4.205826  0.001
C  C51  1  0.63286503  0.80512339  0.43068210  1  0.638986  -0.001926  3.909672  -0.004  0.599708  -3.7e-05  4.200192  -0.001  0.637172  -0.000178  4.190516  -0.001  0.200114  0.573903  0.000122  4.206061  -0.001
C  C52  1  0.17631674  0.59358362  0.96451439  1  -0.063963  0.00419  3.775349  0.005  -0.041055  0.002498  4.004393  0.003  -0.047197  0.001931  4.023942  0.002  -0.019871  -0.036909  0.002448  3.991239  0.003
C  C53  1  0.17627840  0.09352023  0.53548567  1  -0.064132  -0.004173  3.774876  -0.004  -0.04128  -0.002495  4.003987  -0.003  -0.047413  -0.001931  4.023514  -0.002  -0.019994  -0.037194  -0.002447  3.990933  -0.003
C  C54  1  0.82372132  0.40648453  0.03548742  1  -0.064292  -0.004191  3.775246  -0.005  -0.041432  -0.002496  4.004343  -0.003  -0.04757  -0.001931  4.023891  -0.002  -0.020006  -0.037324  -0.002447  3.991247  -0.003
C  C55  1  0.82368005  0.90644260  0.46451386  1  -0.064005  0.00418  3.775472  0.004  -0.041145  0.002497  4.0046  0.003  -0.047293  0.001931  4.024155  0.002  -0.019877  -0.036991  0.002447  3.991457  0.003
C  C56  1  0.16541685  0.45241844  0.00258940  1  -0.083907  0.000662  3.716125  0.001  -0.107598  0.00064  3.967277  0.001  -0.108006  0.00045  3.985056  0.001  -0.088673  -0.107127  0.000755  3.955616  0.001
C  C57  1  0.16538754  0.95236410  0.49741457  1  -0.083505  -0.000679  3.715935  -0.001  -0.107147  -0.00064  3.967049  -0.001  -0.107495  -0.00045  3.984848  -0.001  -0.088513  -0.106664  -0.000755  3.955414  -0.001
C  C58  1  0.83463363  0.54763958  0.99741393  1  -0.083452  -0.000653  3.716279  -0.001  -0.107122  -0.000639  3.967438  -0.001  -0.107537  -0.000449  3.985193  -0.001  -0.088606  -0.106641  -0.000755  3.955776  -0.001
C  C59  1  0.83459342  0.04758629  0.50258801  1  -0.083777  0.000678  3.716568  0.001  -0.107474  0.00064  3.967696  0.001  -0.107888  0.00045  3.985461  0.001  -0.088663  -0.107008  0.000755  3.95603  0.001
C  C60  1  0.01028603  0.63991092  0.96187253  1  -0.078309  8e-05  3.752198  0.0  -0.100153  0.000175  4.002382  0.0  -0.099868  9.1e-05  4.021694  0.0  -0.088503  -0.10045  0.000138  3.98952  0.0
C  C61  1  0.01024306  0.13984618  0.53812966  1  -0.078095  -0.000102  3.751783  0.0  -0.099775  -0.000175  4.0019  0.0  -0.099486  -9.1e-05  4.021205  0.0  -0.088488  -0.100051  -0.000139  3.989057  0.0
C  C62  1  0.98974754  0.36014611  0.03813232  1  -0.077857  -9.1e-05  3.751404  0.0  -0.099556  -0.000175  4.001515  0.0  -0.099264  -9.1e-05  4.020803  0.0  -0.08845  -0.099846  -0.000138  3.988676  0.0
C  C63  1  0.98970688  0.86009553  0.46186683  1  -0.078422  0.000101  3.751931  0.0  -0.100293  0.000175  4.002116  0.0  -0.100001  9.1e-05  4.0214  0.0  -0.088579  -0.100591  0.000139  3.989256  0.0
N  N64  1  0.91694133  0.06105735  0.88896559  1  -0.456429  0.082116  3.335522  0.101  -0.420324  0.060372  3.661192  0.078  -0.464177  0.054343  3.680615  0.073  -0.416627  -0.389133  0.052172  3.648396  0.065
N  N65  1  0.91681423  0.56096787  0.61102091  1  -0.4567  -0.082018  3.335681  -0.101  -0.420438  -0.060331  3.661475  -0.078  -0.464316  -0.054307  3.680928  -0.073  -0.416701  -0.389286  -0.052136  3.648666  -0.065
N  N66  1  0.08317715  0.93901908  0.11102102  1  -0.45662  -0.082006  3.335552  -0.101  -0.420376  -0.060317  3.661367  -0.078  -0.46422  -0.054294  3.680791  -0.073  -0.416603  -0.38922  -0.052126  3.648583  -0.065
N  N67  1  0.08310776  0.43897964  0.38898242  1  -0.456508  0.082072  3.335296  0.101  -0.420278  0.060346  3.660826  0.078  -0.464138  0.054323  3.680249  0.073  -0.416543  -0.389106  0.052151  3.648047  0.065
N  N68  1  0.59308109  0.09194389  0.81171273  1  -0.589668  0.090679  3.081297  0.111  -0.567837  0.07134  3.348101  0.091  -0.601287  0.060911  3.348907  0.082  -0.626924  -0.547408  0.065502  3.350162  0.081
N  N69  1  0.59297285  0.59184739  0.68829116  1  -0.590026  -0.090672  3.080726  -0.111  -0.567891  -0.071334  3.347692  -0.091  -0.601368  -0.060903  3.348493  -0.082  -0.626969  -0.547496  -0.065497  3.349782  -0.081
N  N70  1  0.40700152  0.90810160  0.18828071  1  -0.590167  -0.09066  3.081076  -0.111  -0.568039  -0.071337  3.348148  -0.091  -0.60149  -0.06091  3.348968  -0.082  -0.627  -0.547641  -0.065499  3.350248  -0.081
N  N71  1  0.40695584  0.40812014  0.31170913  1  -0.589818  0.090667  3.080639  0.111  -0.567649  0.071331  3.347494  0.091  -0.601096  0.060905  3.348316  0.082  -0.627021  -0.547237  0.065493  3.349583  0.081
O  O72  1  0.22850110  0.11272484  0.95425948  1  -0.527279  -0.054591  2.022482  -0.071  -0.502732  -0.047734  2.284537  -0.067  -0.543965  -0.040374  2.279162  -0.06  -0.30768  -0.470146  -0.043269  2.287614  -0.059
O  O73  1  0.22848945  0.61267464  0.54574457  1  -0.527265  0.054565  2.022179  0.071  -0.502576  0.04771  2.284423  0.067  -0.543775  0.040361  2.279031  0.06  -0.307612  -0.470011  0.043248  2.287503  0.059
O  O74  1  0.77149831  0.88731573  0.04572561  1  -0.527379  0.054525  2.022481  0.071  -0.502702  0.047681  2.284784  0.067  -0.543915  0.040341  2.279421  0.06  -0.307659  -0.470127  0.043216  2.287852  0.059
O  O75  1  0.77147362  0.38728258  0.45427017  1  -0.527212  -0.054574  2.022471  -0.071  -0.50269  -0.047722  2.28462  -0.067  -0.543918  -0.040366  2.279241  -0.06  -0.307716  -0.470128  -0.043255  2.287709  -0.059
O  O76  1  0.39341368  0.83561946  0.94843343  1  -0.640756  0.057315  2.104882  0.075  -0.610463  0.039385  2.404332  0.055  -0.653466  0.032783  2.39068  0.047  -0.348794  -0.58063  0.037671  2.414172  0.051
O  O77  1  0.39333504  0.33556141  0.55156388  1  -0.640977  -0.057324  2.104181  -0.075  -0.61065  -0.039386  2.403594  -0.055  -0.653679  -0.032774  2.389946  -0.047  -0.348783  -0.580831  -0.037674  2.413441  -0.051
O  O78  1  0.60666988  0.16442157  0.05157218  1  -0.640719  -0.057323  2.104097  -0.075  -0.610396  -0.039383  2.403516  -0.055  -0.653409  -0.032772  2.389869  -0.047  -0.348713  -0.580576  -0.037671  2.413357  -0.051
O  O79  1  0.60661020  0.66439594  0.44844401  1  -0.640724  0.057332  2.104438  0.075  -0.610412  0.039389  2.403906  0.055  -0.653433  0.032782  2.390264  0.047  -0.348753  -0.580593  0.037675  2.413771  0.051
O  O80  1  0.48978733  0.64380758  0.89046939  1  -0.616678  -0.001667  1.960064  -0.001  -0.575622  -0.001375  2.186262  -0.001  -0.598176  -0.001496  2.173823  -0.001  -0.316255  -0.559681  -0.000932  2.19495  0.0
O  O81  1  0.48974951  0.14375327  0.60953208  1  -0.617031  0.001667  1.960026  0.001  -0.575995  0.001375  2.186296  0.001  -0.598566  0.001497  2.173859  0.001  -0.316415  -0.560048  0.000931  2.194986  0.0
O  O82  1  0.51025745  0.35622260  0.10952558  1  -0.616848  0.001667  1.960102  0.001  -0.575799  0.001375  2.186359  0.001  -0.598365  0.001498  2.173934  0.001  -0.316291  -0.559856  0.000931  2.195038  0.0
O  O83  1  0.51021757  0.85621730  0.39047049  1  -0.616859  -0.001672  1.95992  -0.001  -0.575817  -0.001375  2.186149  -0.001  -0.598375  -0.001496  2.173678  -0.001  -0.316353  -0.559874  -0.000931  2.19485  0.0
