# generated using pymatgen
data_CeCuH8C14(NO4)2
_symmetry_space_group_name_H-M   'P 1'
_cell_length_a   9.26116675
_cell_length_b   11.44576466
_cell_length_c   17.23056389
_cell_angle_alpha   106.87371780
_cell_angle_beta   89.97324499
_cell_angle_gamma   113.83118787
_symmetry_Int_Tables_number   1
_chemical_formula_structural   CeCuH8C14(NO4)2
_chemical_formula_sum   'Ce4 Cu4 H32 C56 N8 O32'
_cell_volume   1584.50539994
_cell_formula_units_Z   4
loop_
 _symmetry_equiv_pos_site_id
 _symmetry_equiv_pos_as_xyz
  1  'x, y, z'
loop_
 _atom_site_type_symbol
 _atom_site_label
 _atom_site_symmetry_multiplicity
 _atom_site_fract_x
 _atom_site_fract_y
 _atom_site_fract_z
 _atom_site_occupancy
 _atom_site_pbe_bader_charge
 _atom_site_pbe_bader_spin_density
 _atom_site_pbe_cm5_charge
 _atom_site_pbe_ddec_charge
 _atom_site_pbe_ddec_spin_density
 _atom_site_pbe_ddec_sum_bond_order
 _atom_site_pbe_magmom
Ce  Ce0  1  0.66208625  0.96611345  0.92477024  1  2.276456  0.829404  1.31095  1.993196  0.966141  2.362741  0.807
Ce  Ce1  1  0.69585757  0.03396775  0.57526854  1  2.281235  0.829545  1.310434  1.993082  0.966474  2.362816  0.807
Ce  Ce2  1  0.33797213  0.03381097  0.07519015  1  2.277356  0.82922  1.311022  1.993592  0.966545  2.362609  0.807
Ce  Ce3  1  0.30422550  0.96612932  0.42477098  1  2.280636  0.829832  1.31032  1.993096  0.967392  2.362727  0.808
Cu  Cu4  1  0.08503870  0.33298680  0.13477561  1  0.666747  0.004342  0.54627  0.353866  0.002152  2.092796  0.004
Cu  Cu5  1  0.75191436  0.66664470  0.36489756  1  0.663304  0.004354  0.546068  0.352997  0.002161  2.090925  0.004
Cu  Cu6  1  0.91454491  0.66680415  0.86503798  1  0.6671  0.004339  0.546112  0.353826  0.00215  2.092151  0.004
Cu  Cu7  1  0.24784584  0.33341353  0.63524520  1  0.663376  0.004342  0.546042  0.353172  0.002155  2.09078  0.004
H  H8  1  0.58342294  0.19906126  0.77979042  1  0.145003  0.000269  0.118705  0.129729  2.5e-05  1.024049  0.0
H  H9  1  0.52186285  0.30918053  0.68803177  1  0.103296  0.000458  0.119615  0.086804  0.000128  1.01468  0.0
H  H10  1  0.07413442  0.23536779  0.76125723  1  0.142692  2.2e-05  0.12091  0.100229  -4.4e-05  1.022415  0.0
H  H11  1  0.12313812  0.13114079  0.86123806  1  0.120547  6.4e-05  0.115779  0.128592  -4e-05  1.0066  0.0
H  H12  1  0.17435355  0.73229886  0.05749327  1  0.190104  0.000169  0.119938  0.128499  -7.3e-05  1.060566  0.0
H  H13  1  0.07680108  0.57374205  0.13490745  1  0.119203  8.4e-05  0.11934  0.089912  -0.000124  0.995313  0.0
H  H14  1  0.28527444  0.33280021  0.99984141  1  0.119954  4.1e-05  0.122858  0.100428  -0.000106  1.000963  0.0
H  H15  1  0.40430896  0.49211902  0.91927947  1  0.107358  0.000249  0.110828  0.12033  -0.000128  1.009337  0.0
H  H16  1  0.38443344  0.80097140  0.72021800  1  0.150362  0.000268  0.118592  0.130224  2.4e-05  1.023673  0.0
H  H17  1  0.21298105  0.69100630  0.81211647  1  0.095609  0.000458  0.119689  0.08688  0.000127  1.014086  0.0
H  H18  1  0.83899821  0.76479565  0.73897885  1  0.121681  2.3e-05  0.121119  0.099633  -4.4e-05  1.022427  0.0
H  H19  1  0.99203577  0.86877349  0.63884366  1  0.117675  6.4e-05  0.116226  0.129531  -4.1e-05  1.005603  0.0
H  H20  1  0.44157051  0.26780930  0.44265455  1  0.168632  0.000176  0.119575  0.127681  -7.4e-05  1.060958  0.0
H  H21  1  0.50267734  0.42596841  0.36492337  1  0.103113  8.9e-05  0.119335  0.09  -0.000124  0.995053  0.0
H  H22  1  0.95194515  0.66657878  0.49961960  1  0.121772  4.2e-05  0.12286  0.100421  -0.000106  1.000154  0.0
H  H23  1  0.91162898  0.50763485  0.58042105  1  0.114744  0.000234  0.110968  0.120709  -0.000128  1.009044  0.0
H  H24  1  0.41658554  0.80097934  0.22013606  1  0.145515  0.000268  0.118885  0.130025  2.5e-05  1.023779  0.0
H  H25  1  0.47800126  0.69092781  0.31198024  1  0.102916  0.000458  0.119699  0.086935  0.000128  1.014638  0.0
H  H26  1  0.92586636  0.76473544  0.23895234  1  0.14254  2.2e-05  0.120978  0.100251  -4.4e-05  1.022077  0.0
H  H27  1  0.87701638  0.86884429  0.13887503  1  0.120956  6.4e-05  0.115886  0.128759  -4e-05  1.006407  0.0
H  H28  1  0.82564474  0.26763923  0.94242145  1  0.189157  0.000169  0.119929  0.128663  -7.3e-05  1.060777  0.0
H  H29  1  0.92301763  0.42613268  0.86496321  1  0.119258  8.4e-05  0.119254  0.090104  -0.000124  0.994822  0.0
H  H30  1  0.71460060  0.66708139  0.00009203  1  0.122102  4.2e-05  0.122639  0.100045  -0.000106  1.001243  0.0
H  H31  1  0.59565343  0.50777753  0.08068571  1  0.117832  0.000243  0.110831  0.120214  -0.000129  1.0096  0.0
H  H32  1  0.61551703  0.19906995  0.27986535  1  0.150201  0.000268  0.11862  0.130177  2.4e-05  1.023745  0.0
H  H33  1  0.78670115  0.30882649  0.18782317  1  0.095835  0.000458  0.119745  0.08703  0.000128  1.014507  0.0
H  H34  1  0.16085038  0.23510852  0.26080605  1  0.122305  2.3e-05  0.12114  0.099895  -4.4e-05  1.022477  0.0
H  H35  1  0.00810631  0.13136164  0.36109717  1  0.115913  6.4e-05  0.116183  0.129475  -4e-05  1.005612  0.0
H  H36  1  0.55840741  0.73215299  0.55739810  1  0.169139  0.000175  0.119576  0.127793  -7.5e-05  1.060713  0.0
H  H37  1  0.49717558  0.57403548  0.63517868  1  0.104393  8.8e-05  0.119273  0.090104  -0.000124  0.994818  0.0
H  H38  1  0.04794965  0.33345916  0.50041669  1  0.118669  4.2e-05  0.122815  0.100315  -0.000106  1.000148  0.0
H  H39  1  0.08844090  0.49239472  0.41957190  1  0.115046  0.000234  0.110868  0.120775  -0.000128  1.009033  0.0
C  C40  1  0.39071282  0.08707700  0.88342753  1  1.595078  0.008695  0.23391  0.621707  0.002869  4.165537  0.006
C  C41  1  0.35727125  0.15479267  0.82768661  1  -0.093696  0.004913  0.00269  0.001531  0.001365  3.93503  0.002
C  C42  1  0.47038548  0.20692650  0.77860465  1  0.062634  0.003246  -0.069647  -0.120362  0.000995  3.926417  0.002
C  C43  1  0.43605113  0.26749961  0.72675647  1  0.403848  0.001917  0.046288  0.088515  0.000476  3.911128  0.001
C  C44  1  0.18596956  0.22692330  0.76842456  1  0.417498  0.001762  0.041468  0.079736  0.000447  3.905413  0.001
C  C45  1  0.21396524  0.16816088  0.82334869  1  -0.003539  0.002835  -0.077585  -0.139451  0.000856  3.944683  0.001
C  C46  1  0.39024377  0.73585611  0.94619845  1  1.503639  0.031837  0.202789  0.564407  0.011212  4.217524  0.02
C  C47  1  0.30365103  0.62858921  0.98307488  1  -0.014698  0.021646  -0.001037  -0.000297  0.00666  3.945927  0.011
C  C48  1  0.20410348  0.64668209  0.04203770  1  -0.059303  0.011764  -0.074199  -0.130903  0.003702  3.940843  0.006
C  C49  1  0.14678935  0.55678755  0.08555844  1  0.421286  0.007853  0.037952  0.072417  0.001928  3.947399  0.002
C  C50  1  0.26548251  0.42353329  0.01054816  1  0.488107  0.004638  0.041497  0.082563  0.000763  3.899384  0.001
C  C51  1  0.33021033  0.51160015  0.96588297  1  -0.072262  0.014647  -0.075298  -0.136244  0.004614  3.936414  0.008
C  C52  1  0.98113577  0.92693051  0.97393433  1  1.599213  0.001453  0.218406  0.492736  0.000378  4.206672  0.001
C  C53  1  0.70963558  0.92347855  0.72854237  1  1.602776  0.000584  0.220098  0.483371  6.5e-05  4.254868  0.0
C  C54  1  0.30362061  0.91281054  0.61653249  1  1.606655  0.008655  0.233694  0.622344  0.002856  4.163667  0.006
C  C55  1  0.20249038  0.84508370  0.67230019  1  -0.045181  0.004877  0.00306  0.001131  0.001349  3.934063  0.002
C  C56  1  0.26349905  0.79302578  0.72142715  1  -0.001756  0.003245  -0.070129  -0.121226  0.000986  3.925683  0.002
C  C57  1  0.16869298  0.73259305  0.77337437  1  0.457381  0.001865  0.04624  0.087796  0.000467  3.910402  0.001
C  C58  1  0.95924669  0.77315041  0.73177183  1  0.460607  0.001724  0.041716  0.08141  0.000438  3.903422  0.0
C  C59  1  0.04586508  0.83178828  0.67674028  1  -0.044328  0.002817  -0.077923  -0.140408  0.000848  3.943723  0.001
C  C60  1  0.65364558  0.26415592  0.55392302  1  1.510958  0.031776  0.203765  0.564703  0.011193  4.215455  0.02
C  C61  1  0.67448837  0.37134029  0.51688435  1  -0.039176  0.021689  -0.001056  -0.000322  0.006694  3.945042  0.011
C  C62  1  0.55693167  0.35329150  0.45795320  1  -0.006467  0.011681  -0.074402  -0.13049  0.003678  3.941669  0.006
C  C63  1  0.58956955  0.44295877  0.41425480  1  0.426973  0.007893  0.038462  0.073033  0.001941  3.946577  0.002
C  C64  1  0.84142445  0.57597232  0.48901350  1  0.428683  0.004839  0.041242  0.082353  0.000769  3.900855  0.001
C  C65  1  0.81806279  0.48810365  0.53383914  1  -0.025081  0.014436  -0.075137  -0.136431  0.004599  3.936845  0.007
C  C66  1  0.05412215  0.07306910  0.52610935  1  1.581975  0.001443  0.218396  0.493484  0.000374  4.206207  0.001
C  C67  1  0.78615484  0.07639093  0.77148828  1  1.570829  0.000589  0.219182  0.480753  6.7e-05  4.253158  0.0
C  C68  1  0.60944583  0.91292925  0.11655708  1  1.597011  0.008673  0.233571  0.621394  0.002863  4.16535  0.006
C  C69  1  0.64282946  0.84524893  0.17234045  1  -0.051993  0.004916  0.002831  0.001664  0.001365  3.934321  0.002
C  C70  1  0.52961955  0.79312025  0.22139261  1  0.019865  0.003234  -0.069822  -0.120534  0.000991  3.926048  0.002
C  C71  1  0.56389995  0.73259263  0.27328741  1  0.404484  0.001918  0.046396  0.088274  0.000477  3.911435  0.001
C  C72  1  0.81402792  0.77314520  0.23172933  1  0.416854  0.001763  0.04156  0.079585  0.000447  3.905753  0.001
C  C73  1  0.78613444  0.83186359  0.17674142  1  -0.001071  0.002831  -0.077737  -0.139744  0.000856  3.944701  0.001
C  C74  1  0.60980635  0.26407339  0.05376404  1  1.502726  0.031865  0.203046  0.564775  0.01122  4.216463  0.02
C  C75  1  0.69633933  0.37132872  0.01686866  1  -0.014036  0.021687  -0.001241  -0.000399  0.006674  3.946059  0.011
C  C76  1  0.79586524  0.35324438  0.95788999  1  -0.060011  0.01178  -0.074416  -0.131696  0.003705  3.941033  0.006
C  C77  1  0.85310889  0.44312534  0.91434995  1  0.422216  0.007873  0.038131  0.072742  0.001935  3.94618  0.002
C  C78  1  0.73441170  0.57635212  0.98937843  1  0.48527  0.004651  0.04126  0.082772  0.000767  3.898813  0.001
C  C79  1  0.66975020  0.48831210  0.03407115  1  -0.081736  0.014674  -0.074817  -0.135523  0.00462  3.935792  0.008
C  C80  1  0.01891325  0.07299895  0.02602698  1  1.579165  0.001449  0.218497  0.492269  0.000376  4.206801  0.001
C  C81  1  0.29037376  0.07652494  0.27144873  1  1.602758  0.000584  0.220026  0.483199  6.5e-05  4.255172  0.0
C  C82  1  0.69652958  0.08734741  0.38353382  1  1.605548  0.008638  0.233883  0.622401  0.002852  4.163102  0.006
C  C83  1  0.79755653  0.15500364  0.32771493  1  -0.045513  0.00485  0.003063  0.00077  0.00134  3.934417  0.002
C  C84  1  0.73644026  0.20698669  0.27859520  1  -0.003963  0.003239  -0.070138  -0.121262  0.000984  3.926305  0.002
C  C85  1  0.83107738  0.26730382  0.22656593  1  0.459053  0.001857  0.046395  0.088222  0.000465  3.911117  0.001
C  C86  1  0.04063394  0.22677689  0.26808288  1  0.461485  0.001711  0.041492  0.080917  0.000434  3.903886  0.0
C  C87  1  0.95415205  0.16825453  0.32319299  1  -0.042709  0.002819  -0.078015  -0.140109  0.000848  3.943894  0.001
C  C88  1  0.34646343  0.73588936  0.44612620  1  1.509943  0.031743  0.203868  0.564802  0.011182  4.215748  0.02
C  C89  1  0.32554248  0.62865442  0.48314809  1  -0.038197  0.02166  -0.001199  -0.000359  0.006682  3.944981  0.011
C  C90  1  0.44304724  0.64667493  0.54210368  1  -0.00797  0.011663  -0.074364  -0.130458  0.003673  3.940599  0.006
C  C91  1  0.41031983  0.55701216  0.58581743  1  0.426487  0.007882  0.038378  0.072702  0.001936  3.946242  0.002
C  C92  1  0.15851658  0.42402632  0.51101502  1  0.431619  0.004825  0.041361  0.082825  0.000763  3.900053  0.001
C  C93  1  0.18195539  0.51188729  0.46616766  1  -0.025464  0.014418  -0.075284  -0.136994  0.004594  3.936662  0.007
C  C94  1  0.94601976  0.92709386  0.47392363  1  1.605373  0.001437  0.217544  0.492098  0.000372  4.207588  0.001
C  C95  1  0.21393282  0.92362239  0.22853072  1  1.570526  0.000588  0.219525  0.481512  6.7e-05  4.253462  0.0
N  N96  1  0.29461156  0.27518542  0.71976779  1  -1.206242  0.005924  -0.379871  -0.207331  0.00184  3.73492  0.005
N  N97  1  0.17796687  0.44683749  0.07157132  1  -1.214169  0.028614  -0.381162  -0.210849  0.009033  3.736839  0.023
N  N98  1  0.01960148  0.72492536  0.78045287  1  -1.226163  0.00587  -0.380046  -0.207503  0.001825  3.73457  0.005
N  N99  1  0.73067100  0.55273023  0.42806303  1  -1.203424  0.028606  -0.381234  -0.211017  0.009016  3.737914  0.023
N  N100  1  0.70532232  0.72491353  0.28036555  1  -1.208968  0.005916  -0.380054  -0.206758  0.001838  3.734285  0.005
N  N101  1  0.82187712  0.55305110  0.92832741  1  -1.21478  0.028649  -0.380947  -0.211271  0.009044  3.73656  0.023
N  N102  1  0.98013723  0.27493619  0.21941192  1  -1.226878  0.005856  -0.380056  -0.207897  0.001821  3.735047  0.005
N  N103  1  0.26919192  0.44726772  0.57200833  1  -1.204445  0.028567  -0.380713  -0.210587  0.009003  3.737646  0.023
O  O104  1  0.49143186  0.03731986  0.86418372  1  -1.187176  -0.000305  -0.36819  -0.63513  -0.003358  2.32222  -0.004
O  O105  1  0.31777533  0.08573650  0.94577235  1  -1.18477  0.002208  -0.347918  -0.618306  -0.001217  2.289841  -0.002
O  O106  1  0.48632038  0.72017740  0.89567852  1  -1.149731  0.00901  -0.348337  -0.576261  0.000786  2.151407  0.002
O  O107  1  0.37594944  0.84849186  0.97005064  1  -1.196364  0.00729  -0.381635  -0.700034  -0.00024  2.381065  -0.002
O  O108  1  0.86163887  0.86732070  0.91843127  1  -1.167276  -0.002143  -0.338728  -0.562997  -0.003759  2.33351  -0.004
O  O109  1  0.07109958  0.87563020  0.98938541  1  -1.162479  0.001033  -0.331125  -0.547671  -0.000947  2.333707  -0.001
O  O110  1  0.64869107  0.84880372  0.77231766  1  -1.17522  -0.001887  -0.328718  -0.556709  -0.003249  2.232877  -0.003
O  O111  1  0.71816466  0.88602228  0.65238775  1  -1.172377  -0.002558  -0.346575  -0.575148  -0.003566  2.303151  -0.003
O  O112  1  0.45397879  0.96276609  0.63587562  1  -1.194115  -0.000324  -0.367917  -0.635358  -0.003373  2.322714  -0.004
O  O113  1  0.23211267  0.91394718  0.55412305  1  -1.185063  0.002175  -0.347786  -0.618345  -0.001243  2.287991  -0.002
O  O114  1  0.76510690  0.27993268  0.60460554  1  -1.156773  0.009057  -0.348535  -0.576297  0.000785  2.149209  0.002
O  O115  1  0.52696320  0.15150958  0.53001147  1  -1.201547  0.007324  -0.382185  -0.700027  -0.000225  2.380554  -0.002
O  O116  1  0.99408281  0.13260136  0.58165349  1  -1.172372  -0.00211  -0.3383  -0.562724  -0.003755  2.332471  -0.004
O  O117  1  0.19533163  0.12434741  0.51062607  1  -1.164798  0.001012  -0.331374  -0.548806  -0.000961  2.33143  -0.001
O  O118  1  0.79970370  0.15103788  0.72771164  1  -1.169838  -0.001886  -0.328371  -0.555847  -0.003247  2.2309  -0.003
O  O119  1  0.83238592  0.11389749  0.84760793  1  -1.173281  -0.002558  -0.346385  -0.574218  -0.00357  2.30204  -0.003
O  O120  1  0.50874047  0.96270078  0.13578031  1  -1.188054  -0.000307  -0.368402  -0.635463  -0.003355  2.322178  -0.004
O  O121  1  0.68237025  0.91417444  0.05420705  1  -1.185146  0.002198  -0.347487  -0.617747  -0.001221  2.289424  -0.002
O  O122  1  0.51375515  0.27975759  0.10430005  1  -1.148739  0.009024  -0.348295  -0.576285  0.000794  2.150979  0.002
O  O123  1  0.62416425  0.15145465  0.02991204  1  -1.196854  0.007299  -0.381892  -0.700426  -0.000232  2.380299  -0.002
O  O124  1  0.13839868  0.13261607  0.08153950  1  -1.167757  -0.002143  -0.338756  -0.562927  -0.003757  2.33293  -0.004
O  O125  1  0.92896542  0.12431177  0.01055903  1  -1.16307  0.001036  -0.331043  -0.547216  -0.000945  2.334643  -0.001
O  O126  1  0.35127477  0.15113646  0.22763286  1  -1.175356  -0.001885  -0.328626  -0.556546  -0.003249  2.232657  -0.003
O  O127  1  0.28189485  0.11403841  0.34760740  1  -1.172277  -0.002557  -0.346666  -0.575386  -0.003565  2.303489  -0.003
O  O128  1  0.54615331  0.03736221  0.36427002  1  -1.193087  -0.000328  -0.368094  -0.635373  -0.003376  2.323427  -0.004
O  O129  1  0.76817791  0.08628426  0.44592416  1  -1.184237  0.002183  -0.347981  -0.618339  -0.001239  2.286817  -0.002
O  O130  1  0.23506000  0.72018954  0.39543857  1  -1.15535  0.009034  -0.348425  -0.576185  0.000775  2.14963  0.002
O  O131  1  0.47317493  0.84850972  0.47007363  1  -1.201449  0.007319  -0.382217  -0.700301  -0.000222  2.380428  -0.002
O  O132  1  0.00599628  0.86750718  0.41836781  1  -1.172224  -0.002114  -0.338105  -0.562512  -0.003759  2.332448  -0.004
O  O133  1  0.80483226  0.87586389  0.48944941  1  -1.165424  0.001012  -0.330927  -0.548092  -0.000963  2.332481  -0.001
O  O134  1  0.20040628  0.84900281  0.27231874  1  -1.169683  -0.001887  -0.328209  -0.555884  -0.003246  2.231055  -0.003
O  O135  1  0.16779371  0.88609242  0.15239982  1  -1.173158  -0.002561  -0.346829  -0.574917  -0.003574  2.302312  -0.003
