# generated using pymatgen
data_HgH4C6BrNO2
_symmetry_space_group_name_H-M   'P 1'
_cell_length_a   7.40951377
_cell_length_b   8.01730011
_cell_length_c   14.84065773
_cell_angle_alpha   101.61345894
_cell_angle_beta   89.97531254
_cell_angle_gamma   117.52098997
_symmetry_Int_Tables_number   1
_chemical_formula_structural   HgH4C6BrNO2
_chemical_formula_sum   'Hg4 H16 C24 Br4 N4 O8'
_cell_volume   761.47028381
_cell_formula_units_Z   4
loop_
 _symmetry_equiv_pos_site_id
 _symmetry_equiv_pos_as_xyz
  1  'x, y, z'
loop_
 _atom_site_type_symbol
 _atom_site_label
 _atom_site_symmetry_multiplicity
 _atom_site_fract_x
 _atom_site_fract_y
 _atom_site_fract_z
 _atom_site_occupancy
 _atom_site_hle17_bader_spin_density
 _atom_site_hle17_ddec_charge
 _atom_site_hle17_ddec_spin_density
 _atom_site_hle17_ddec_sum_bond_order
 _atom_site_hle17_magmom
 _atom_site_hse06_10hf_bader_spin_density
 _atom_site_hse06_10hf_ddec_charge
 _atom_site_hse06_10hf_ddec_spin_density
 _atom_site_hse06_10hf_ddec_sum_bond_order
 _atom_site_hse06_10hf_magmom
 _atom_site_hse06_bader_spin_density
 _atom_site_hse06_ddec_charge
 _atom_site_hse06_ddec_spin_density
 _atom_site_hse06_ddec_sum_bond_order
 _atom_site_hse06_magmom
 _atom_site_pbe_bader_spin_density
 _atom_site_pbe_cm5_charge
 _atom_site_pbe_ddec_charge
 _atom_site_pbe_ddec_spin_density
 _atom_site_pbe_ddec_sum_bond_order
 _atom_site_pbe_magmom
Hg  Hg0  1  0.52913508  0.47691191  0.67255980  1  0  0.780881  0  1.903393  0  0  0.625729  0  2.381309  0  0  0.686099  0  2.342935  0  0  0.531702  0.584172  0  2.406897  0
Hg  Hg1  1  0.94813867  0.47732155  0.17282524  1  0  0.781078  0  1.904306  0  0  0.625985  0  2.382479  0  0  0.686314  0  2.344107  0  0  0.531465  0.584451  0  2.408066  0
Hg  Hg2  1  0.47089035  0.52310706  0.32743710  1  0  0.780765  0  1.903458  0  0  0.625654  0  2.381327  0  0  0.686024  0  2.34296  0  0  0.531662  0.584095  0  2.406917  0
Hg  Hg3  1  0.05184231  0.52265982  0.82717696  1  0  0.78118  0  1.904203  0  0  0.626083  0  2.382348  0  0  0.686415  0  2.34397  0  0  0.531502  0.584548  0  2.407937  0
H  H4  1  0.15071205  0.07709217  0.68423074  1  0  0.104272  0  0.955256  0  0  0.109369  0  1.026679  0  0  0.113232  0  1.021897  0  0  0.114994  0.10649  0  1.030171  0
H  H5  1  0.92689158  0.07725880  0.18444534  1  0  0.104162  0  0.955966  0  0  0.109551  0  1.026974  0  0  0.113423  0  1.022162  0  0  0.115084  0.106658  0  1.03049  0
H  H6  1  0.84931557  0.92293118  0.31576124  1  0  0.104171  0  0.955297  0  0  0.10923  0  1.026746  0  0  0.113084  0  1.021959  0  0  0.114952  0.106351  0  1.030241  0
H  H7  1  0.07307410  0.92272975  0.81556439  1  0  0.104169  0  0.955882  0  0  0.1095  0  1.026961  0  0  0.113364  0  1.022171  0  0  0.115076  0.106626  0  1.030463  0
H  H8  1  0.50633344  0.25371351  0.47149181  1  0  0.09442  0  0.965842  0  0  0.101807  0  1.034517  0  0  0.104411  0  1.031414  0  0  0.109  0.099839  0  1.036843  0
H  H9  1  0.74768241  0.25406336  0.97196773  1  0  0.093764  0  0.966248  0  0  0.101029  0  1.034967  0  0  0.103571  0  1.03197  0  0  0.108835  0.099078  0  1.037247  0
H  H10  1  0.49367251  0.74630698  0.52849380  1  0  0.094454  0  0.965828  0  0  0.101809  0  1.034549  0  0  0.104406  0  1.031465  0  0  0.109001  0.099857  0  1.036833  0
H  H11  1  0.25228137  0.74590789  0.02803471  1  0  0.093728  0  0.966376  0  0  0.100982  0  1.035108  0  0  0.103528  0  1.03209  0  0  0.108869  0.099032  0  1.03739  0
H  H12  1  0.30937360  0.92606695  0.36471239  1  0  0.106423  0  0.964169  0  0  0.112517  0  1.031478  0  0  0.116047  0  1.03034  0  0  0.095799  0.109977  0  1.032492  0
H  H13  1  0.61754600  0.92665932  0.86498266  1  0  0.106855  0  0.963134  0  0  0.112676  0  1.030742  0  0  0.116162  0  1.029635  0  0  0.095888  0.110143  0  1.031754  0
H  H14  1  0.69063132  0.07394339  0.63527817  1  0  0.106384  0  0.964416  0  0  0.112494  0  1.031711  0  0  0.116037  0  1.030559  0  0  0.095787  0.109921  0  1.032751  0
H  H15  1  0.38244134  0.07331048  0.13502231  1  0  0.106798  0  0.963183  0  0  0.112668  0  1.030723  0  0  0.116156  0  1.029614  0  0  0.095848  0.110121  0  1.031751  0
H  H16  1  0.02083072  0.66335686  0.42576090  1  0  0.103302  0  0.952274  0  0  0.109254  0  1.022495  0  0  0.112051  0  1.019851  0  0  0.101739  0.107154  0  1.024452  0
H  H17  1  0.64368464  0.66386730  0.92585983  1  0  0.102734  0  0.952271  0  0  0.108783  0  1.022495  0  0  0.111557  0  1.019865  0  0  0.101938  0.1067  0  1.024437  0
H  H18  1  0.97919292  0.33666933  0.57423814  1  0  0.103188  0  0.952166  0  0  0.109155  0  1.022441  0  0  0.111952  0  1.019795  0  0  0.101674  0.107043  0  1.024401  0
H  H19  1  0.35630288  0.33610825  0.07415049  1  0  0.102819  0  0.952348  0  0  0.108856  0  1.022535  0  0  0.111635  0  1.019913  0  0  0.101965  0.106772  0  1.024478  0
C  C20  1  0.88564719  0.70332334  0.59472438  1  0  0.619649  0  3.950828  0  0  0.569246  0  4.242387  0  0  0.604729  0  4.23918  0  0  0.187954  0.545298  0  4.243509  0
C  C21  1  0.81773373  0.70330674  0.09482012  1  0  0.621319  0  3.951117  0  0  0.570967  0  4.242561  0  0  0.60646  0  4.239282  0  0  0.188449  0.547016  0  4.243736  0
C  C22  1  0.11436889  0.29669852  0.40527351  1  0  0.61937  0  3.950843  0  0  0.568972  0  4.242398  0  0  0.604455  0  4.239192  0  0  0.18791  0.545033  0  4.243514  0
C  C23  1  0.18226669  0.29669192  0.90519005  1  0  0.621041  0  3.951249  0  0  0.570745  0  4.242636  0  0  0.606238  0  4.239355  0  0  0.188382  0.546795  0  4.243809  0
C  C24  1  0.06629355  0.85045340  0.55914542  1  0  -0.09839  0  3.728248  0  0  -0.069386  0  3.958563  0  0  -0.083017  0  3.982067  0  0  -0.010311  -0.060861  0  3.943045  0
C  C25  1  0.78448878  0.85062395  0.05934790  1  0  -0.099719  0  3.729663  0  0  -0.070777  0  3.960424  0  0  -0.084435  0  3.983947  0  0  -0.010401  -0.062245  0  3.944897  0
C  C26  1  0.93372910  0.14956272  0.44084645  1  0  -0.09825  0  3.728042  0  0  -0.069229  0  3.95837  0  0  -0.082863  0  3.981872  0  0  -0.010191  -0.060732  0  3.942874  0
C  C27  1  0.21550365  0.14937762  0.94065855  1  0  -0.099364  0  3.729598  0  0  -0.07046  0  3.96031  0  0  -0.084108  0  3.983823  0  0  -0.010256  -0.061929  0  3.944787  0
C  C28  1  0.18296421  0.03648394  0.61371958  1  0  0.111943  0  3.655758  0  0  0.067463  0  3.904577  0  0  0.077979  0  3.922097  0  0  0.05045  0.060834  0  3.89269  0
C  C29  1  0.85385376  0.03666746  0.11396840  1  0  0.112289  0  3.655894  0  0  0.067744  0  3.904798  0  0  0.078276  0  3.922321  0  0  0.050422  0.061103  0  3.892918  0
C  C30  1  0.81705989  0.96353507  0.38627126  1  0  0.111995  0  3.655927  0  0  0.067608  0  3.904714  0  0  0.078142  0  3.92222  0  0  0.050485  0.060982  0  3.892837  0
C  C31  1  0.14611533  0.96332252  0.88604486  1  0  0.112116  0  3.656197  0  0  0.0676  0  3.905113  0  0  0.078132  0  3.922636  0  0  0.050281  0.060941  0  3.89324  0
C  C32  1  0.37962868  0.13519712  0.49320192  1  0  0.126247  0  3.680152  0  0  0.089557  0  3.929769  0  0  0.099185  0  3.948998  0  0  0.044986  0.08345  0  3.916684  0
C  C33  1  0.75593925  0.13547664  0.99355769  1  0  0.127166  0  3.680355  0  0  0.091098  0  3.929549  0  0  0.100771  0  3.9487  0  0  0.045792  0.084989  0  3.916479  0
C  C34  1  0.62037976  0.86481757  0.50678710  1  0  0.126266  0  3.680218  0  0  0.089614  0  3.929875  0  0  0.09924  0  3.949108  0  0  0.045005  0.083512  0  3.916787  0
C  C35  1  0.24403387  0.86449172  0.00644712  1  0  0.127416  0  3.680459  0  0  0.091312  0  3.929678  0  0  0.100986  0  3.948835  0  0  0.045803  0.085199  0  3.916607  0
C  C36  1  0.27010763  0.95296556  0.43506337  1  0  -0.114915  0  3.715442  0  0  -0.122964  0  3.963878  0  0  -0.132862  0  3.986295  0  0  -0.083596  -0.116671  0  3.94888  0
C  C37  1  0.68355566  0.95337470  0.93532491  1  0  -0.115553  0  3.714317  0  0  -0.123461  0  3.962846  0  0  -0.133316  0  3.985267  0  0  -0.083593  -0.117172  0  3.94783  0
C  C38  1  0.72989710  0.04703900  0.56492857  1  0  -0.115048  0  3.715566  0  0  -0.123094  0  3.964019  0  0  -0.133007  0  3.986435  0  0  -0.083633  -0.116774  0  3.949018  0
C  C39  1  0.31642493  0.04659510  0.06467939  1  0  -0.115434  0  3.714421  0  0  -0.123387  0  3.962885  0  0  -0.133243  0  3.985311  0  0  -0.083454  -0.117097  0  3.947903  0
C  C40  1  0.11195068  0.80829060  0.46850633  1  0  0.01273  0  3.652512  0  0  -0.015695  0  3.896283  0  0  -0.008784  0  3.913252  0  0  -0.053748  -0.019821  0  3.88459  0
C  C41  1  0.69705702  0.80866853  0.96870462  1  0  0.013862  0  3.651423  0  0  -0.014604  0  3.895274  0  0  -0.00767  0  3.912226  0  0  -0.054162  -0.018754  0  3.883583  0
C  C42  1  0.88806305  0.19172117  0.53148641  1  0  0.013061  0  3.651972  0  0  -0.015398  0  3.895748  0  0  -0.0085  0  3.912748  0  0  -0.053608  -0.01953  0  3.884118  0
C  C43  1  0.30293494  0.19131860  0.03130091  1  0  0.013607  0  3.651618  0  0  -0.014813  0  3.895438  0  0  -0.007881  0  3.912373  0  0  -0.054241  -0.018965  0  3.883745  0
Br  Br44  1  0.64726375  0.32126607  0.79629273  1  0  -0.362517  0  1.154752  0  0  -0.305867  0  1.497712  0  0  -0.32801  0  1.473281  0  0  -0.156197  -0.291317  0  1.514524  0
Br  Br45  1  0.67419152  0.32170231  0.29645693  1  0  -0.362976  0  1.156037  0  0  -0.306215  0  1.498965  0  0  -0.328319  0  1.474403  0  0  -0.156287  -0.291662  0  1.515818  0
Br  Br46  1  0.35272636  0.67870383  0.20369473  1  0  -0.362483  0  1.154794  0  0  -0.305825  0  1.497752  0  0  -0.327972  0  1.473326  0  0  -0.156161  -0.291275  0  1.514573  0
Br  Br47  1  0.32581690  0.67829345  0.70355561  1  0  -0.363017  0  1.156001  0  0  -0.30625  0  1.498945  0  0  -0.328347  0  1.474381  0  0  -0.156322  -0.291717  0  1.515824  0
N  N48  1  0.33591691  0.17404620  0.58055511  1  0  -0.284114  0  3.3274  0  0  -0.191149  0  3.588594  0  0  -0.217612  0  3.614435  0  0  -0.306313  -0.173446  0  3.570628  0
N  N49  1  0.83842333  0.17427648  0.08088807  1  0  -0.284488  0  3.327443  0  0  -0.192132  0  3.589333  0  0  -0.218575  0  3.615122  0  0  -0.306478  -0.17445  0  3.571404  0
N  N50  1  0.66410911  0.82599014  0.41943696  1  0  -0.284027  0  3.327527  0  0  -0.19115  0  3.588775  0  0  -0.217612  0  3.614617  0  0  -0.30634  -0.173455  0  3.570817  0
N  N51  1  0.16154360  0.82570919  0.91911932  1  0  -0.284821  0  3.327827  0  0  -0.192373  0  3.589618  0  0  -0.218822  0  3.615409  0  0  -0.306582  -0.174687  0  3.571691  0
O  O52  1  0.85824343  0.74713322  0.68006248  1  0  -0.603245  0  1.970658  0  0  -0.537382  0  2.214044  0  0  -0.571142  0  2.208479  0  0  -0.312937  -0.513775  0  2.216858  0
O  O53  1  0.88848926  0.74685553  0.18020032  1  0  -0.604784  0  1.972607  0  0  -0.538656  0  2.215826  0  0  -0.572521  0  2.210401  0  0  -0.31352  -0.514935  0  2.218437  0
O  O54  1  0.14179251  0.25287707  0.31993683  1  0  -0.603207  0  1.97064  0  0  -0.537359  0  2.214017  0  0  -0.571124  0  2.208452  0  0  -0.312969  -0.513746  0  2.216821  0
O  O55  1  0.11152432  0.25315325  0.81981028  1  0  -0.604698  0  1.972899  0  0  -0.538577  0  2.216069  0  0  -0.572442  0  2.210647  0  0  -0.313432  -0.514858  0  2.218687  0
O  O56  1  0.76567205  0.54849243  0.53840969  1  0  -0.596216  0  1.95371  0  0  -0.542202  0  2.195952  0  0  -0.571996  0  2.190408  0  0  -0.313563  -0.521039  0  2.19882  0
O  O57  1  0.78312808  0.54865564  0.03842494  1  0  -0.596141  0  1.952699  0  0  -0.542282  0  2.194734  0  0  -0.571995  0  2.189125  0  0  -0.313387  -0.521171  0  2.197635  0
O  O58  1  0.23433570  0.45154247  0.46158290  1  0  -0.596205  0  1.953761  0  0  -0.54218  0  2.196001  0  0  -0.571976  0  2.190462  0  0  -0.313603  -0.521017  0  2.198859  0
O  O59  1  0.21684889  0.45132852  0.96159374  1  0  -0.596016  0  1.952481  0  0  -0.54219  0  2.194475  0  0  -0.571908  0  2.188871  0  0  -0.313416  -0.52108  0  2.197373  0
