# generated using pymatgen
data_CdH28C35(N2O3)2
_symmetry_space_group_name_H-M   'P 1'
_cell_length_a   8.63402701
_cell_length_b   11.99279883
_cell_length_c   16.44560146
_cell_angle_alpha   110.19532763
_cell_angle_beta   96.00652498
_cell_angle_gamma   105.82930378
_symmetry_Int_Tables_number   1
_chemical_formula_structural   CdH28C35(N2O3)2
_chemical_formula_sum   'Cd2 H56 C70 N8 O12'
_cell_volume   1499.84833415
_cell_formula_units_Z   2
loop_
 _symmetry_equiv_pos_site_id
 _symmetry_equiv_pos_as_xyz
  1  'x, y, z'
loop_
 _atom_site_type_symbol
 _atom_site_label
 _atom_site_symmetry_multiplicity
 _atom_site_fract_x
 _atom_site_fract_y
 _atom_site_fract_z
 _atom_site_occupancy
 _atom_site_hle17_bader_spin_density
 _atom_site_hle17_ddec_charge
 _atom_site_hle17_ddec_spin_density
 _atom_site_hle17_ddec_sum_bond_order
 _atom_site_hle17_magmom
 _atom_site_hse06_10hf_bader_spin_density
 _atom_site_hse06_10hf_ddec_charge
 _atom_site_hse06_10hf_ddec_spin_density
 _atom_site_hse06_10hf_ddec_sum_bond_order
 _atom_site_hse06_10hf_magmom
 _atom_site_hse06_bader_spin_density
 _atom_site_hse06_ddec_charge
 _atom_site_hse06_ddec_spin_density
 _atom_site_hse06_ddec_sum_bond_order
 _atom_site_hse06_magmom
 _atom_site_pbe_bader_spin_density
 _atom_site_pbe_cm5_charge
 _atom_site_pbe_ddec_charge
 _atom_site_pbe_ddec_spin_density
 _atom_site_pbe_ddec_sum_bond_order
 _atom_site_pbe_magmom
Cd  Cd0  1  0.06584229  0.33890145  0.34362166  1  0  1.090259  0  1.649654  0  0  0.886548  0  2.096253  0  0  0.947036  0  2.043979  0  0  0.781947  0.843764  0  2.131969  0
Cd  Cd1  1  0.93415727  0.66109898  0.65637728  1  0  1.090237  0  1.649638  0  0  0.886533  0  2.09625  0  0  0.947024  0  2.043975  0  0  0.781954  0.843742  0  2.131965  0
H  H2  1  0.21868348  0.97868517  0.41704961  1  0  0.085864  0  0.946796  0  0  0.105484  0  1.006905  0  0  0.105902  0  1.00776  0  0  0.097454  0.10517  0  1.006304  0
H  H3  1  0.78131798  0.02131431  0.58295225  1  0  0.085887  0  0.946743  0  0  0.105481  0  1.00689  0  0  0.1059  0  1.007743  0  0  0.097451  0.105166  0  1.006289  0
H  H4  1  0.40758947  0.95801043  0.39669381  1  0  0.077047  0  0.929837  0  0  0.095683  0  0.988636  0  0  0.097067  0  0.988535  0  0  0.093194  0.094665  0  0.988754  0
H  H5  1  0.59241242  0.04199000  0.60330831  1  0  0.077048  0  0.929852  0  0  0.09568  0  0.988653  0  0  0.097062  0  0.988553  0  0  0.093187  0.094661  0  0.988771  0
H  H6  1  0.96635595  0.73001485  0.29993042  1  0  0.097392  0  0.97987  0  0  0.107254  0  1.042602  0  0  0.109197  0  1.044256  0  0  0.102894  0.105825  0  1.041669  0
H  H7  1  0.03364364  0.26998562  0.70007280  1  0  0.09736  0  0.979888  0  0  0.107249  0  1.042593  0  0  0.109192  0  1.044248  0  0  0.10289  0.105821  0  1.04166  0
H  H8  1  0.44632156  0.80949433  0.45738678  1  0  0.105274  0  0.955909  0  0  0.115283  0  1.017548  0  0  0.117691  0  1.018591  0  0  0.105612  0.113571  0  1.01694  0
H  H9  1  0.55367945  0.19050418  0.54261177  1  0  0.105272  0  0.955895  0  0  0.115281  0  1.017539  0  0  0.117689  0  1.018583  0  0  0.105599  0.113568  0  1.016936  0
H  H10  1  0.88789691  0.51673811  0.30169940  1  0  0.088156  0  0.950247  0  0  0.098115  0  1.012475  0  0  0.100332  0  1.010443  0  0  0.118143  0.096454  0  1.014019  0
H  H11  1  0.11210455  0.48326137  0.69830184  1  0  0.088106  0  0.950226  0  0  0.098072  0  1.012468  0  0  0.100287  0  1.010437  0  0  0.118124  0.096413  0  1.013998  0
H  H12  1  0.34645066  0.59086287  0.45311707  1  0  0.091845  0  0.938949  0  0  0.101436  0  1.001397  0  0  0.103632  0  0.999175  0  0  0.121131  0.099777  0  1.003024  0
H  H13  1  0.65355309  0.40913655  0.54688185  1  0  0.091889  0  0.938945  0  0  0.101459  0  1.001413  0  0  0.103653  0  0.999191  0  0  0.121124  0.099804  0  1.003043  0
H  H14  1  0.53561575  0.35877909  0.16789537  1  0  0.115631  0  0.952688  0  0  0.123716  0  1.01673  0  0  0.127924  0  1.013225  0  0  0.105727  0.120694  0  1.019264  0
H  H15  1  0.46438528  0.64121945  0.83210502  1  0  0.115632  0  0.95269  0  0  0.12371  0  1.016738  0  0  0.127918  0  1.013234  0  0  0.105725  0.120688  0  1.019273  0
H  H16  1  0.45809186  0.05009177  0.91933381  1  0  0.095713  0  0.966553  0  0  0.106829  0  1.028358  0  0  0.109374  0  1.027926  0  0  0.101828  0.104956  0  1.028812  0
H  H17  1  0.54191316  0.94991045  0.08066405  1  0  0.095648  0  0.966614  0  0  0.10678  0  1.028403  0  0  0.109336  0  1.027961  0  0  0.101805  0.104908  0  1.028861  0
H  H18  1  0.17656419  0.94699795  0.93378232  1  0  0.100726  0  0.949574  0  0  0.110119  0  1.009927  0  0  0.113233  0  1.008397  0  0  0.102304  0.107857  0  1.011169  0
H  H19  1  0.82344157  0.05300332  0.06621596  1  0  0.100752  0  0.949566  0  0  0.110102  0  1.009981  0  0  0.113214  0  1.008455  0  0  0.102295  0.107841  0  1.011229  0
H  H20  1  0.07679032  0.05200188  0.06902303  1  0  0.092135  0  0.987797  0  0  0.100291  0  1.055688  0  0  0.10334  0  1.053654  0  0  0.0995  0.098077  0  1.057185  0
H  H21  1  0.92321361  0.94799280  0.93097473  1  0  0.092207  0  0.987877  0  0  0.100341  0  1.055771  0  0  0.103388  0  1.053739  0  0  0.099531  0.098127  0  1.05727  0
H  H22  1  0.09788970  0.49852061  0.18327029  1  0  0.098429  0  0.971603  0  0  0.104571  0  1.041922  0  0  0.107839  0  1.040457  0  0  0.103461  0.102281  0  1.042875  0
H  H23  1  0.90211101  0.50147979  0.81672811  1  0  0.098474  0  0.971544  0  0  0.104564  0  1.041932  0  0  0.107828  0  1.040478  0  0  0.103455  0.102277  0  1.042876  0
H  H24  1  0.36097370  0.47225814  0.97183538  1  0  0.095288  0  0.946049  0  0  0.106226  0  1.007154  0  0  0.109303  0  1.005119  0  0  0.103682  0.103964  0  1.008716  0
H  H25  1  0.63902153  0.52774046  0.02816288  1  0  0.095337  0  0.946127  0  0  0.106297  0  1.007193  0  0  0.109375  0  1.005159  0  0  0.103724  0.104038  0  1.008759  0
H  H26  1  0.12338465  0.28857204  0.86880900  1  0  0.085727  0  0.954358  0  0  0.097212  0  1.012242  0  0  0.100568  0  1.010673  0  0  0.099736  0.094835  0  1.013439  0
H  H27  1  0.87661130  0.71142561  0.13118967  1  0  0.085777  0  0.954318  0  0  0.097254  0  1.012205  0  0  0.100609  0  1.010638  0  0  0.099744  0.094875  0  1.013407  0
H  H28  1  0.86892085  0.21685284  0.92054852  1  0  0.090723  0  0.95905  0  0  0.101767  0  1.022255  0  0  0.104925  0  1.020227  0  0  0.104812  0.099522  0  1.02368  0
H  H29  1  0.13107439  0.78314577  0.07945157  1  0  0.09073  0  0.959114  0  0  0.101785  0  1.022296  0  0  0.104943  0  1.020266  0  0  0.104832  0.099538  0  1.023726  0
H  H30  1  0.56892391  0.55472738  0.35590619  1  0  0.127738  0  0.946123  0  0  0.135876  0  1.009768  0  0  0.140089  0  1.00659  0  0  0.112266  0.132799  0  1.012218  0
H  H31  1  0.43107292  0.44527217  0.64409482  1  0  0.12776  0  0.946107  0  0  0.135905  0  1.009746  0  0  0.140118  0  1.006568  0  0  0.11227  0.132827  0  1.012194  0
H  H32  1  0.92046797  0.92312317  0.50092438  1  0  0.093046  0  0.99113  0  0  0.102434  0  1.057952  0  0  0.105569  0  1.055623  0  0  0.100426  0.100125  0  1.059764  0
H  H33  1  0.07952405  0.07688117  0.49907573  1  0  0.093057  0  0.991033  0  0  0.102405  0  1.057917  0  0  0.105539  0  1.055592  0  0  0.100442  0.100107  0  1.059716  0
H  H34  1  0.85145414  0.98760554  0.37509025  1  0  0.101255  0  0.95332  0  0  0.110147  0  1.014389  0  0  0.113524  0  1.01263  0  0  0.101445  0.107703  0  1.01575  0
H  H35  1  0.14853646  0.01239313  0.62490778  1  0  0.101231  0  0.953215  0  0  0.110096  0  1.014334  0  0  0.113473  0  1.012573  0  0  0.101424  0.10765  0  1.015692  0
H  H36  1  0.63908207  0.83149409  0.23951204  1  0  0.10879  0  0.999881  0  0  0.114422  0  1.066308  0  0  0.118455  0  1.063348  0  0  0.100885  0.111541  0  1.068454  0
H  H37  1  0.36091389  0.16850356  0.76048724  1  0  0.108793  0  0.999836  0  0  0.114412  0  1.066287  0  0  0.118445  0  1.063328  0  0  0.100873  0.111532  0  1.06843  0
H  H38  1  0.73415695  0.40406000  0.40162109  1  0  0.085352  0  0.964979  0  0  0.091985  0  1.033518  0  0  0.094661  0  1.030905  0  0  0.113223  0.089985  0  1.035439  0
H  H39  1  0.26584492  0.59594040  0.59837858  1  0  0.085387  0  0.964936  0  0  0.091986  0  1.033521  0  0  0.094663  0  1.030907  0  0  0.11323  0.089986  0  1.035442  0
H  H40  1  0.43633982  0.29187830  0.37741310  1  0  0.115492  0  0.947792  0  0  0.125863  0  1.007727  0  0  0.128771  0  1.00734  0  0  0.108883  0.123764  0  1.008165  0
H  H41  1  0.56366481  0.70812303  0.62258939  1  0  0.115529  0  0.947811  0  0  0.125898  0  1.007746  0  0  0.128807  0  1.00736  0  0  0.10891  0.123773  0  1.008213  0
H  H42  1  0.51599725  0.95219857  0.21392523  1  0  0.105087  0  0.97482  0  0  0.115382  0  1.037202  0  0  0.118511  0  1.035928  0  0  0.105775  0.113145  0  1.03823  0
H  H43  1  0.48399927  0.04780288  0.78607563  1  0  0.105076  0  0.974786  0  0  0.11534  0  1.037214  0  0  0.118472  0  1.035932  0  0  0.105757  0.113102  0  1.038244  0
H  H44  1  0.81258792  0.07892092  0.24279703  1  0  0.083298  0  0.91992  0  0  0.098103  0  0.972607  0  0  0.100144  0  0.971032  0  0  0.121872  0.096554  0  0.973847  0
H  H45  1  0.18740804  0.92107674  0.75720225  1  0  0.083253  0  0.919973  0  0  0.098073  0  0.972649  0  0  0.100114  0  0.971071  0  0  0.12185  0.096524  0  0.973888  0
H  H46  1  0.21354980  0.02821940  0.20608503  1  0  0.090742  0  0.938802  0  0  0.108934  0  0.997782  0  0  0.10962  0  0.998187  0  0  0.097652  0.108423  0  0.997525  0
H  H47  1  0.78644978  0.97178107  0.79391758  1  0  0.090858  0  0.938661  0  0  0.108992  0  0.997698  0  0  0.109688  0  0.99809  0  0  0.097676  0.108481  0  0.997444  0
H  H48  1  0.20742417  0.09703747  0.31806879  1  0  0.095446  0  0.962653  0  0  0.11094  0  1.023578  0  0  0.11287  0  1.022899  0  0  0.09388  0.109503  0  1.024158  0
H  H49  1  0.79257425  0.90296300  0.68193254  1  0  0.095441  0  0.962698  0  0  0.11096  0  1.023585  0  0  0.112889  0  1.022907  0  0  0.093903  0.109536  0  1.02415  0
H  H50  1  0.08952870  0.86472723  0.25396185  1  0  0.058622  0  0.950092  0  0  0.079571  0  1.00933  0  0  0.079906  0  1.01009  0  0  0.089638  0.079265  0  1.008899  0
H  H51  1  0.91047319  0.13527319  0.74603966  1  0  0.058587  0  0.950041  0  0  0.079525  0  1.009291  0  0  0.079861  0  1.010053  0  0  0.089608  0.079219  0  1.008863  0
H  H52  1  0.27992597  0.84904762  0.23300922  1  0  0.061392  0  0.952837  0  0  0.078028  0  1.018238  0  0  0.078743  0  1.018807  0  0  0.085992  0.077455  0  1.01791  0
H  H53  1  0.72007794  0.15095467  0.76699346  1  0  0.061371  0  0.952828  0  0  0.078011  0  1.018221  0  0  0.078726  0  1.018788  0  0  0.085983  0.077437  0  1.017893  0
H  H54  1  0.66769088  0.26930677  0.96648632  1  0  0.292375  0  0.942815  0  0  0.269688  0  1.018918  0  0  0.278181  0  1.011641  0  0  0.298172  0.263663  0  1.024089  0
H  H55  1  0.33231069  0.73069553  0.03351380  1  0  0.292407  0  0.942758  0  0  0.269724  0  1.018858  0  0  0.278214  0  1.011583  0  0  0.298177  0.263697  0  1.024035  0
H  H56  1  0.40463966  0.51043025  0.22576199  1  0  0.307732  0  0.937273  0  0  0.285388  0  1.008597  0  0  0.294252  0  1.001864  0  0  0.299521  0.279174  0  1.013285  0
H  H57  1  0.59535788  0.48956830  0.77423577  1  0  0.307709  0  0.93729  0  0  0.285367  0  1.00862  0  0  0.294231  0  1.001887  0  0  0.299519  0.279153  0  1.013306  0
C  C58  1  0.27287954  0.91575938  0.37211641  1  0  -0.157783  0  3.689565  0  0  -0.201227  0  3.939802  0  0  -0.202804  0  3.951443  0  0  -0.158386  -0.199943  0  3.93151  0
C  C59  1  0.72712236  0.08424105  0.62788631  1  0  -0.157778  0  3.689462  0  0  -0.201215  0  3.939686  0  0  -0.202787  0  3.951319  0  0  -0.158376  -0.199931  0  3.931395  0
C  C60  1  0.21600276  0.78878597  0.37727699  1  0  0.165842  0  3.6973  0  0  0.181326  0  3.9336  0  0  0.18743  0  3.954682  0  0  0.016389  0.177401  0  3.919227  0
C  C61  1  0.78399796  0.21121446  0.62272324  1  0  0.165865  0  3.697214  0  0  0.18138  0  3.933469  0  0  0.187484  0  3.95455  0  0  0.016403  0.177455  0  3.9191  0
C  C62  1  0.05596386  0.70440348  0.33501952  1  0  -0.170785  0  3.714481  0  0  -0.186283  0  3.959644  0  0  -0.195646  0  3.983159  0  0  -0.086076  -0.18032  0  3.944029  0
C  C63  1  0.94403615  0.29559793  0.66498273  1  0  -0.170784  0  3.714399  0  0  -0.186306  0  3.959558  0  0  -0.19567  0  3.983074  0  0  -0.086061  -0.180345  0  3.943946  0
C  C64  1  0.32051893  0.74834906  0.42286231  1  0  -0.172929  0  3.710315  0  0  -0.189065  0  3.955365  0  0  -0.197715  0  3.977342  0  0  -0.085587  -0.183591  0  3.940748  0
C  C65  1  0.67948180  0.25165136  0.57713791  1  0  -0.172994  0  3.710295  0  0  -0.18914  0  3.955337  0  0  -0.197791  0  3.977314  0  0  -0.085613  -0.183667  0  3.940726  0
C  C66  1  0.00959498  0.58523686  0.33669991  1  0  0.130421  0  3.7274  0  0  0.096693  0  3.980755  0  0  0.104887  0  3.999124  0  0  0.04305  0.091325  0  3.968363  0
C  C67  1  0.99040806  0.41476354  0.66330104  1  0  0.130486  0  3.727238  0  0  0.096736  0  3.980633  0  0  0.104931  0  3.998999  0  0  0.04307  0.091372  0  3.968238  0
C  C68  1  0.26646967  0.62719853  0.42123684  1  0  0.139921  0  3.711806  0  0  0.105085  0  3.96655  0  0  0.11374  0  3.985017  0  0  0.046385  0.099507  0  3.95393  0
C  C69  1  0.73353336  0.37280185  0.57876228  1  0  0.139869  0  3.711815  0  0  0.105063  0  3.96657  0  0  0.11372  0  3.985034  0  0  0.046449  0.099477  0  3.953959  0
C  C70  1  0.23360961  0.27454274  0.20337992  1  0  0.632112  0  3.924245  0  0  0.582167  0  4.214664  0  0  0.616459  0  4.209229  0  0  0.197934  0.558992  0  4.217455  0
C  C71  1  0.76639025  0.72545580  0.79661979  1  0  0.632079  0  3.924283  0  0  0.582218  0  4.214605  0  0  0.616508  0  4.209167  0  0  0.19792  0.559042  0  4.217397  0
C  C72  1  0.29769324  0.21231744  0.12484263  1  0  -0.058774  0  3.786517  0  0  -0.03232  0  4.017416  0  0  -0.04101  0  4.042908  0  0  -0.021708  -0.026741  0  4.000299  0
C  C73  1  0.70230925  0.78767918  0.87515797  1  0  -0.058746  0  3.786641  0  0  -0.03234  0  4.017511  0  0  -0.041028  0  4.043  0  0  -0.021727  -0.02676  0  4.00039  0
C  C74  1  0.45628293  0.26976865  0.11642552  1  0  -0.148559  0  3.68664  0  0  -0.181643  0  3.933542  0  0  -0.182797  0  3.952261  0  0  -0.085269  -0.180671  0  3.921032  0
C  C75  1  0.54371882  0.73022892  0.88357466  1  0  -0.148544  0  3.686707  0  0  -0.181624  0  3.933612  0  0  -0.182777  0  3.95233  0  0  -0.085269  -0.180651  0  3.921098  0
C  C76  1  0.51265258  0.21115373  0.04184999  1  0  0.246559  0  3.788752  0  0  0.246868  0  4.032137  0  0  0.252357  0  4.053802  0  0  0.092852  0.242905  0  4.0175  0
C  C77  1  0.48734973  0.78884761  0.95814994  1  0  0.246463  0  3.788779  0  0  0.246794  0  4.032147  0  0  0.25228  0  4.053817  0  0  0.092843  0.242833  0  4.017506  0
C  C78  1  0.41079968  0.09559438  0.97606403  1  0  -0.132971  0  3.716603  0  0  -0.155689  0  3.963832  0  0  -0.157659  0  3.983514  0  0  -0.087936  -0.154097  0  3.950404  0
C  C79  1  0.58919958  0.90440795  0.02393598  1  0  -0.132807  0  3.716385  0  0  -0.155538  0  3.96362  0  0  -0.157518  0  3.983301  0  0  -0.087899  -0.153949  0  3.950199  0
C  C80  1  0.25369626  0.03779829  0.98490304  1  0  -0.0698  0  3.782033  0  0  -0.080453  0  4.033991  0  0  -0.083413  0  4.055281  0  0  -0.094113  -0.078506  0  4.019486  0
C  C81  1  0.74630952  0.96220301  0.01509706  1  0  -0.069795  0  3.781845  0  0  -0.080441  0  4.033815  0  0  -0.0834  0  4.055108  0  0  -0.094089  -0.078497  0  4.019323  0
C  C82  1  0.19781666  0.09564496  0.05962349  1  0  -0.089937  0  3.753413  0  0  -0.116606  0  4.001178  0  0  -0.116818  0  4.022302  0  0  -0.093977  -0.11623  0  3.986856  0
C  C83  1  0.80218770  0.90435067  0.94037574  1  0  -0.090023  0  3.753563  0  0  -0.116633  0  4.001281  0  0  -0.116835  0  4.02239  0  0  -0.093958  -0.116258  0  3.986965  0
C  C84  1  0.81425247  0.32092383  0.09038795  1  0  0.544445  0  3.844015  0  0  0.499433  0  4.128892  0  0  0.529082  0  4.127282  0  0  0.238301  0.47952  0  4.129273  0
C  C85  1  0.18574869  0.67907756  0.90961436  1  0  0.544432  0  3.844063  0  0  0.499503  0  4.128819  0  0  0.529151  0  4.127205  0  0  0.238285  0.479582  0  4.129204  0
C  C86  1  0.96533162  0.35690168  0.05501577  1  0  -0.048676  0  3.756199  0  0  -0.022871  0  3.986651  0  0  -0.030343  0  4.010164  0  0  -0.011247  -0.018206  0  3.970963  0
C  C87  1  0.03466721  0.64309971  0.94498399  1  0  -0.048567  0  3.756121  0  0  -0.022798  0  3.986554  0  0  -0.030268  0  4.010065  0  0  -0.011197  -0.01813  0  3.97086  0
C  C88  1  0.10415244  0.45444816  0.11421462  1  0  -0.081025  0  3.701331  0  0  -0.113249  0  3.943629  0  0  -0.111765  0  3.962776  0  0  -0.077811  -0.113989  0  3.930783  0
C  C89  1  0.89584711  0.54555227  0.88578433  1  0  -0.081107  0  3.701247  0  0  -0.113289  0  3.94357  0  0  -0.111805  0  3.962713  0  0  -0.07784  -0.114028  0  3.930725  0
C  C90  1  0.24574476  0.49659806  0.08450064  1  0  -0.05979  0  3.7842  0  0  -0.038855  0  4.026144  0  0  -0.045514  0  4.048579  0  0  -0.014314  -0.034714  0  4.011087  0
C  C91  1  0.75425480  0.50340238  0.91549891  1  0  -0.059821  0  3.784083  0  0  -0.038878  0  4.026018  0  0  -0.045538  0  4.048449  0  0  -0.01435  -0.034738  0  4.010965  0
C  C92  1  0.25106727  0.43844834  0.99528704  1  0  -0.062621  0  3.716435  0  0  -0.091443  0  3.970342  0  0  -0.09008  0  3.988981  0  0  -0.080145  -0.092071  0  3.957634  0
C  C93  1  0.74892723  0.56155123  0.00471264  1  0  -0.062701  0  3.716441  0  0  -0.09154  0  3.970354  0  0  -0.090177  0  3.988991  0  0  -0.080163  -0.092177  0  3.957659  0
C  C94  1  0.11655692  0.33661476  0.93729461  1  0  -0.058168  0  3.761844  0  0  -0.068278  0  4.013322  0  0  -0.071672  0  4.033691  0  0  -0.086709  -0.066125  0  3.999471  0
C  C95  1  0.88344609  0.66338559  0.06270268  1  0  -0.058181  0  3.761918  0  0  -0.068288  0  4.013403  0  0  -0.071683  0  4.033773  0  0  -0.086702  -0.06614  0  3.999566  0
C  C96  1  0.97349370  0.29649677  0.96658949  1  0  -0.072425  0  3.720256  0  0  -0.099868  0  3.969738  0  0  -0.098667  0  3.989496  0  0  -0.080137  -0.10041  0  3.956307  0
C  C97  1  0.02650470  0.70350369  0.03341062  1  0  -0.072474  0  3.720403  0  0  -0.099912  0  3.969872  0  0  -0.098712  0  3.98963  0  0  -0.080171  -0.100456  0  3.956443  0
C  C98  1  0.38813035  0.60853392  0.14630319  1  0  0.54862  0  3.813855  0  0  0.502089  0  4.099942  0  0  0.531546  0  4.098478  0  0  0.246065  0.482346  0  4.100259  0
C  C99  1  0.61186920  0.39146651  0.85369575  1  0  0.548732  0  3.813697  0  0  0.502191  0  4.099782  0  0  0.531656  0  4.098304  0  0  0.246114  0.48245  0  4.1001  0
C  C100  1  0.58706505  0.68486259  0.28997351  1  0  0.249865  0  3.779472  0  0  0.249005  0  4.023039  0  0  0.255978  0  4.045051  0  0  0.095917  0.244202  0  4.008093  0
C  C101  1  0.41293061  0.31513695  0.71002561  1  0  0.249889  0  3.77947  0  0  0.249056  0  4.023015  0  0  0.25603  0  4.045026  0  0  0.095938  0.244253  0  4.008067  0
C  C102  1  0.63059826  0.64939422  0.35988443  1  0  -0.171912  0  3.681196  0  0  -0.200873  0  3.929146  0  0  -0.20368  0  3.947916  0  0  -0.085412  -0.198803  0  3.916464  0
C  C103  1  0.36939784  0.35060628  0.64011617  1  0  -0.171968  0  3.681162  0  0  -0.200964  0  3.929132  0  0  -0.203771  0  3.947901  0  0  -0.085472  -0.198891  0  3.916447  0
C  C104  1  0.75000278  0.73618839  0.43543814  1  0  -0.049939  0  3.798739  0  0  -0.024594  0  4.029531  0  0  -0.03148  0  4.053196  0  0  -0.021221  -0.020098  0  4.013469  0
C  C105  1  0.24999099  0.26381213  0.56456173  1  0  -0.050078  0  3.798781  0  0  -0.024695  0  4.029562  0  0  -0.03158  0  4.053228  0  0  -0.021212  -0.020201  0  4.013507  0
C  C106  1  0.82757854  0.85848449  0.44124893  1  0  -0.09987  0  3.773938  0  0  -0.130217  0  4.028783  0  0  -0.130839  0  4.048911  0  0  -0.097061  -0.129624  0  4.015106  0
C  C107  1  0.17241639  0.14151601  0.55875039  1  0  -0.099749  0  3.773824  0  0  -0.130081  0  4.028668  0  0  -0.130696  0  4.048783  0  0  -0.097056  -0.129499  0  4.01499  0
C  C108  1  0.78876950  0.89289153  0.37109434  1  0  -0.070501  0  3.796676  0  0  -0.079952  0  4.050685  0  0  -0.081804  0  4.071237  0  0  -0.094599  -0.078615  0  4.036598  0
C  C109  1  0.21123064  0.10710508  0.62890248  1  0  -0.070432  0  3.796518  0  0  -0.079859  0  4.050536  0  0  -0.08171  0  4.071089  0  0  -0.09457  -0.07852  0  4.036446  0
C  C110  1  0.66998115  0.80639564  0.29491624  1  0  -0.169  0  3.72328  0  0  -0.192177  0  3.975642  0  0  -0.195645  0  3.994653  0  0  -0.100684  -0.189687  0  3.962678  0
C  C111  1  0.33001596  0.19360198  0.70508188  1  0  -0.169101  0  3.723284  0  0  -0.192279  0  3.975669  0  0  -0.195748  0  3.994682  0  0  -0.1007  -0.189787  0  3.962701  0
C  C112  1  0.79947541  0.70006108  0.51044243  1  0  0.617401  0  3.957433  0  0  0.571767  0  4.242952  0  0  0.605792  0  4.237587  0  0  0.187755  0.548806  0  4.245543  0
C  C113  1  0.20052860  0.29994402  0.48955791  1  0  0.617699  0  3.957232  0  0  0.572014  0  4.242801  0  0  0.606039  0  4.237433  0  0  0.187885  0.549054  0  4.245395  0
C  C114  1  0.68216360  0.30360438  0.35989023  1  0  0.131768  0  3.707154  0  0  0.100706  0  3.959305  0  0  0.108803  0  3.97733  0  0  0.046606  0.095552  0  3.94693  0
C  C115  1  0.31783292  0.69639705  0.64010941  1  0  0.1318  0  3.70716  0  0  0.10076  0  3.959312  0  0  0.108858  0  3.977336  0  0  0.046612  0.095605  0  3.946929  0
C  C116  1  0.51468255  0.23977164  0.34656175  1  0  -0.163605  0  3.675937  0  0  -0.181264  0  3.921079  0  0  -0.190002  0  3.943198  0  0  -0.083086  -0.175676  0  3.906269  0
C  C117  1  0.48531733  0.76022693  0.65344040  1  0  -0.163671  0  3.675929  0  0  -0.181353  0  3.921098  0  0  -0.1901  0  3.943227  0  0  -0.083123  -0.17575  0  3.906308  0
C  C118  1  0.44884380  0.11098823  0.29306386  1  0  0.163455  0  3.705058  0  0  0.180119  0  3.939665  0  0  0.185406  0  3.962744  0  0  0.015561  0.176783  0  3.923899  0
C  C119  1  0.55115491  0.88901034  0.70693640  1  0  0.163419  0  3.705077  0  0  0.180097  0  3.939664  0  0  0.185382  0  3.96275  0  0  0.015546  0.176759  0  3.923896  0
C  C120  1  0.55909241  0.05237536  0.25571461  1  0  -0.18617  0  3.71422  0  0  -0.202491  0  3.959773  0  0  -0.211359  0  3.98194  0  0  -0.088831  -0.19678  0  3.944915  0
C  C121  1  0.44090483  0.94762509  0.74428361  1  0  -0.186118  0  3.714155  0  0  -0.202426  0  3.959723  0  0  -0.211293  0  3.981889  0  0  -0.088774  -0.196719  0  3.944871  0
C  C122  1  0.72455257  0.12198795  0.27187400  1  0  0.139478  0  3.713889  0  0  0.107709  0  3.964583  0  0  0.115676  0  3.983093  0  0  0.047591  0.102595  0  3.951878  0
C  C123  1  0.27544627  0.87801347  0.72812759  1  0  0.139506  0  3.713911  0  0  0.107727  0  3.96459  0  0  0.115694  0  3.983098  0  0  0.04759  0.102611  0  3.951888  0
C  C124  1  0.26742012  0.03963227  0.27342479  1  0  -0.17703  0  3.695842  0  0  -0.217092  0  3.938213  0  0  -0.219207  0  3.950418  0  0  -0.164551  -0.215449  0  3.929628  0
C  C125  1  0.73257788  0.96036729  0.72657811  1  0  -0.177159  0  3.695901  0  0  -0.21718  0  3.938229  0  0  -0.2193  0  3.95043  0  0  -0.164603  -0.21554  0  3.929638  0
C  C126  1  0.22385239  0.90996931  0.27810805  1  0  -0.087271  0  3.68507  0  0  -0.127784  0  3.945082  0  0  -0.128475  0  3.958899  0  0  -0.163107  -0.127097  0  3.935324  0
C  C127  1  0.77614835  0.09003115  0.72189461  1  0  -0.087224  0  3.684953  0  0  -0.127707  0  3.944928  0  0  -0.128401  0  3.958751  0  0  -0.163085  -0.127024  0  3.935176  0
N  N128  1  0.11402711  0.54614462  0.37787163  1  0  -0.3493  0  3.296985  0  0  -0.264184  0  3.568002  0  0  -0.286837  0  3.58585  0  0  -0.342081  -0.248813  0  3.555529  0
N  N129  1  0.88597694  0.45385291  0.62212745  1  0  -0.349235  0  3.2969  0  0  -0.264137  0  3.567937  0  0  -0.286789  0  3.585783  0  0  -0.342125  -0.248765  0  3.555464  0
N  N130  1  0.78592888  0.24589473  0.32331501  1  0  -0.33513  0  3.28037  0  0  -0.254802  0  3.547241  0  0  -0.276014  0  3.565467  0  0  -0.334203  -0.240363  0  3.534405  0
N  N131  1  0.21406995  0.75410666  0.67668413  1  0  -0.335158  0  3.280451  0  0  -0.25482  0  3.547304  0  0  -0.276031  0  3.565528  0  0  -0.334208  -0.24038  0  3.534466  0
N  N132  1  0.66982524  0.26495934  0.02799317  1  0  -0.475502  0  3.376648  0  0  -0.420572  0  3.618489  0  0  -0.443282  0  3.627397  0  0  -0.407514  -0.404835  0  3.611934  0
N  N133  1  0.33017474  0.73504203  0.97200603  1  0  -0.475599  0  3.376668  0  0  -0.420708  0  3.618483  0  0  -0.443417  0  3.627393  0  0  -0.407587  -0.404977  0  3.611935  0
N  N134  1  0.45789868  0.59509707  0.21873381  1  0  -0.444183  0  3.341998  0  0  -0.385651  0  3.57287  0  0  -0.408944  0  3.582911  0  0  -0.38816  -0.369779  0  3.565686  0
N  N135  1  0.54209814  0.40490246  0.78126537  1  0  -0.444158  0  3.342018  0  0  -0.385632  0  3.572892  0  0  -0.408929  0  3.582935  0  0  -0.38816  -0.369764  0  3.565712  0
O  O136  1  0.09771712  0.20985163  0.21372065  1  0  -0.630111  0  1.993281  0  0  -0.561958  0  2.244768  0  0  -0.591988  0  2.234926  0  0  -0.327593  -0.540986  0  2.250692  0
O  O137  1  0.90228218  0.79014314  0.78627810  1  0  -0.630084  0  1.993267  0  0  -0.561976  0  2.244745  0  0  -0.592013  0  2.234922  0  0  -0.327598  -0.541006  0  2.250673  0
O  O138  1  0.31431819  0.38685670  0.25737282  1  0  -0.655552  0  1.984309  0  0  -0.599545  0  2.223732  0  0  -0.626141  0  2.215764  0  0  -0.327432  -0.580776  0  2.228303  0
O  O139  1  0.68568168  0.61314185  0.74262750  1  0  -0.655575  0  1.984383  0  0  -0.599585  0  2.223749  0  0  -0.626181  0  2.215784  0  0  -0.327446  -0.580818  0  2.228321  0
O  O140  1  0.90547890  0.78688372  0.57909053  1  0  -0.643872  0  1.979074  0  0  -0.5794  0  2.220298  0  0  -0.608433  0  2.210613  0  0  -0.336337  -0.559075  0  2.226143  0
O  O141  1  0.09452091  0.21312239  0.42090984  1  0  -0.644045  0  1.979154  0  0  -0.579535  0  2.220373  0  0  -0.608569  0  2.210685  0  0  -0.336417  -0.559208  0  2.226221  0
O  O142  1  0.73742223  0.58772381  0.50419481  1  0  -0.637906  0  1.924463  0  0  -0.582978  0  2.156799  0  0  -0.609334  0  2.146423  0  0  -0.330877  -0.56446  0  2.163158  0
O  O143  1  0.26258860  0.41227835  0.49580517  1  0  -0.638027  0  1.924335  0  0  -0.583082  0  2.15669  0  0  -0.609436  0  2.146311  0  0  -0.330914  -0.564561  0  2.163046  0
O  O144  1  0.82333380  0.34064013  0.17037182  1  0  -0.556687  0  1.933475  0  0  -0.518692  0  2.161046  0  0  -0.539274  0  2.155865  0  0  -0.300707  -0.504323  0  2.164132  0
O  O145  1  0.17666808  0.65936028  0.82962847  1  0  -0.556658  0  1.93347  0  0  -0.518687  0  2.160982  0  0  -0.539268  0  2.155801  0  0  -0.30068  -0.504322  0  2.164072  0
O  O146  1  0.43460856  0.70528595  0.12977993  1  0  -0.558669  0  1.957137  0  0  -0.508174  0  2.17783  0  0  -0.52916  0  2.171025  0  0  -0.288578  -0.493544  0  2.182023  0
O  O147  1  0.56539258  0.29471541  0.87021933  1  0  -0.558703  0  1.957009  0  0  -0.508194  0  2.177692  0  0  -0.529186  0  2.170883  0  0  -0.288586  -0.493567  0  2.181884  0
