# generated using pymatgen
data_CuSiH12C20(N4F5)2
_symmetry_space_group_name_H-M   'P 1'
_cell_length_a   8.20896386
_cell_length_b   13.25612633
_cell_length_c   13.26063311
_cell_angle_alpha   88.55613072
_cell_angle_beta   80.90185802
_cell_angle_gamma   80.87497808
_symmetry_Int_Tables_number   1
_chemical_formula_structural   CuSiH12C20(N4F5)2
_chemical_formula_sum   'Cu1 Si1 H12 C20 N8 F10'
_cell_volume   1406.82299670
_cell_formula_units_Z   1
loop_
 _symmetry_equiv_pos_site_id
 _symmetry_equiv_pos_as_xyz
  1  'x, y, z'
loop_
 _atom_site_type_symbol
 _atom_site_label
 _atom_site_symmetry_multiplicity
 _atom_site_fract_x
 _atom_site_fract_y
 _atom_site_fract_z
 _atom_site_occupancy
 _atom_site_pbe_bader_charge
 _atom_site_pbe_bader_spin_density
 _atom_site_pbe_cm5_charge
 _atom_site_pbe_ddec_charge
 _atom_site_pbe_ddec_spin_density
 _atom_site_pbe_ddec_sum_bond_order
 _atom_site_pbe_magmom
Cu  Cu0  1  0.49998099  0.50026557  0.49973202  1  1.095494  0.582159  0.761157  0.771457  0.739489  2.046123  0.583
Si  Si1  1  0.00006282  0.49918746  0.50086197  1  3.220352  -0.000146  0.242162  1.731151  -0.000253  3.905599  0.0
H  H2  1  0.24938196  0.56739881  0.37119876  1  0.247213  0.002448  0.119803  0.115827  0.001286  1.073244  0.002
H  H3  1  0.20851904  0.57542693  0.18983879  1  0.113391  0.000636  0.126429  0.143262  0.000331  0.967067  0.0
H  H4  1  0.73261360  0.45085510  0.10798739  1  0.13473  0.001598  0.123599  0.155714  0.000819  0.991116  0.001
H  H5  1  0.26769667  0.55270221  0.89108113  1  0.15683  0.001552  0.12384  0.156637  0.000809  0.990814  0.001
H  H6  1  0.78857155  0.42052189  0.81046296  1  0.0929  0.00065  0.126688  0.14362  0.000333  0.96785  0.0
H  H7  1  0.74860152  0.42914564  0.62887712  1  0.248203  0.002431  0.120091  0.116249  0.001283  1.069883  0.002
H  H8  1  0.25147933  0.37123355  0.57124902  1  0.247222  0.002428  0.119867  0.116188  0.00128  1.069385  0.002
H  H9  1  0.21166338  0.18960740  0.58006644  1  0.12167  0.000636  0.12659  0.143832  0.000332  0.967363  0.0
H  H10  1  0.73180642  0.10896023  0.44649146  1  0.153886  0.001553  0.123763  0.156007  0.000808  0.990899  0.001
H  H11  1  0.26773593  0.89192294  0.54985125  1  0.133912  0.001593  0.123438  0.156022  0.000817  0.991173  0.001
H  H12  1  0.79129521  0.81005593  0.42413489  1  0.117012  0.000637  0.126457  0.143324  0.000332  0.966954  0.0
H  H13  1  0.75060346  0.62861441  0.43229763  1  0.245638  0.002447  0.120155  0.116006  0.001283  1.073096  0.002
C  C14  1  0.35392195  0.54273792  0.31135349  1  0.405766  -0.000944  0.06267  0.139762  -0.00209  3.867496  -0.001
C  C15  1  0.33126620  0.54712338  0.20963114  1  0.06754  0.00597  -0.06472  -0.177009  0.004021  3.873308  0.005
C  C16  1  0.46719803  0.51306051  0.13445879  1  0.331812  -0.002394  0.106667  0.224719  -0.002883  4.048217  -0.002
C  C17  1  0.62266974  0.47708719  0.16361249  1  0.002426  0.004873  -0.087665  -0.314942  0.003454  3.911019  0.004
C  C18  1  0.63202956  0.47608194  0.26704066  1  1.087786  0.002269  0.237786  0.448753  0.001598  4.067129  0.002
C  C19  1  0.37713240  0.52478728  0.83574455  1  0.045814  0.004873  -0.087557  -0.316836  0.003439  3.915017  0.004
C  C20  1  0.53134130  0.48626760  0.86528904  1  0.284527  -0.002383  0.107258  0.22591  -0.002867  4.049752  -0.002
C  C21  1  0.66659750  0.45037036  0.79037835  1  0.078757  0.005918  -0.065318  -0.177656  0.003997  3.875554  0.005
C  C22  1  0.64453171  0.45517041  0.68857020  1  0.404905  -0.000941  0.063227  0.139993  -0.002079  3.869774  -0.001
C  C23  1  0.36854277  0.52664656  0.73221165  1  1.069973  0.00229  0.238016  0.450962  0.001555  4.065571  0.002
C  C24  1  0.35547411  0.31154831  0.54496670  1  0.407191  -0.000956  0.063435  0.139156  -0.002088  3.870152  -0.001
C  C25  1  0.33347350  0.20969724  0.54988293  1  0.050862  0.005917  -0.065092  -0.177074  0.003987  3.875409  0.005
C  C26  1  0.46857883  0.13475966  0.51368800  1  0.285971  -0.002384  0.106848  0.223931  -0.00287  4.050028  -0.002
C  C27  1  0.62251619  0.16433771  0.47466591  1  0.048957  0.004867  -0.087346  -0.314891  0.003436  3.91365  0.004
C  C28  1  0.63101507  0.26790940  0.47265856  1  1.07125  0.002263  0.238206  0.449631  0.00154  4.066434  0.002
C  C29  1  0.37758796  0.83629070  0.52334642  1  0.00344  0.004875  -0.087393  -0.315875  0.003452  3.912148  0.004
C  C30  1  0.53284975  0.86546904  0.48698134  1  0.333543  -0.002399  0.10692  0.225026  -0.002889  4.047418  -0.002
C  C31  1  0.66867768  0.79025858  0.45268583  1  0.0652  0.005959  -0.064829  -0.176626  0.004018  3.872315  0.005
C  C32  1  0.64613808  0.68849002  0.45715701  1  0.404779  -0.000952  0.062049  0.138522  -0.002095  3.867598  -0.001
C  C33  1  0.36832913  0.73282065  0.52449364  1  1.085315  0.002248  0.238137  0.450087  0.001576  4.066255  0.002
N  N34  1  0.50257168  0.50620370  0.34089508  1  -1.182094  0.088763  -0.324275  -0.324236  0.058595  3.494432  0.077
N  N35  1  0.43708393  0.51852302  0.03186733  1  -0.409337  1e-05  -0.127354  -0.109868  -0.000266  3.217984  0.0
N  N36  1  0.56115855  0.48049216  0.96793448  1  -0.447985  1.8e-05  -0.126523  -0.10901  -0.000263  3.21702  0.0
N  N37  1  0.49723570  0.49429060  0.65863240  1  -1.176006  0.088151  -0.324804  -0.325344  0.05821  3.495642  0.076
N  N38  1  0.50252818  0.34151044  0.50541734  1  -1.180601  0.087925  -0.324504  -0.32332  0.058053  3.496138  0.076
N  N39  1  0.43888449  0.03206131  0.51966801  1  -0.448454  7e-06  -0.126536  -0.108188  -0.000269  3.215244  0.0
N  N40  1  0.56281572  0.96810915  0.48139757  1  -0.40936  5e-06  -0.127269  -0.110148  -0.000268  3.216547  0.0
N  N41  1  0.49767137  0.65894109  0.49406215  1  -1.180257  0.088606  -0.324601  -0.32376  0.0585  3.49474  0.076
F  F42  1  0.20493059  0.51300857  0.51420193  1  -0.831235  0.001153  -0.226704  -0.556794  0.000231  1.313459  0.002
F  F43  1  0.79521642  0.48556619  0.48728528  1  -0.830788  0.001156  -0.226499  -0.556604  0.000233  1.31274  0.002
F  F44  1  0.99989546  0.59237734  0.40731274  1  -0.832267  0.000905  -0.239882  -0.527586  0.000614  1.100372  0.001
F  F45  1  0.00022281  0.40606699  0.59439048  1  -0.836022  0.000824  -0.241199  -0.528437  0.000563  1.094776  0.001
F  F46  1  0.07882320  0.40872848  0.41079056  1  -0.833407  -8.1e-05  -0.267726  -0.55217  -6.6e-05  1.068608  0.0
F  F47  1  0.92129899  0.58967469  0.59091751  1  -0.833259  -7.9e-05  -0.267757  -0.552154  -6.5e-05  1.068671  0.0
F  F48  1  0.77958751  0.44325360  0.29616236  1  -0.609253  0.000768  -0.056824  -0.11013  0.000263  1.430161  0.001
F  F49  1  0.22260511  0.56320622  0.70269785  1  -0.607595  0.000759  -0.057672  -0.111323  0.000259  1.429148  0.001
F  F50  1  0.77666034  0.29743468  0.43547358  1  -0.60791  0.000756  -0.05812  -0.11118  0.000257  1.429085  0.001
F  F51  1  0.22101444  0.70367414  0.55788052  1  -0.608438  0.000765  -0.057089  -0.110588  0.00026  1.430428  0.001
