# generated using pymatgen
data_FeH6(C3O)4
_symmetry_space_group_name_H-M   'P 1'
_cell_length_a   4.66077900
_cell_length_b   13.58548465
_cell_length_c   15.01829729
_cell_angle_alpha   89.99990960
_cell_angle_beta   90.00006326
_cell_angle_gamma   90.00563562
_symmetry_Int_Tables_number   1
_chemical_formula_structural   FeH6(C3O)4
_chemical_formula_sum   'Fe4 H24 C48 O16'
_cell_volume   950.94268412
_cell_formula_units_Z   4
loop_
 _symmetry_equiv_pos_site_id
 _symmetry_equiv_pos_as_xyz
  1  'x, y, z'
loop_
 _atom_site_type_symbol
 _atom_site_label
 _atom_site_symmetry_multiplicity
 _atom_site_fract_x
 _atom_site_fract_y
 _atom_site_fract_z
 _atom_site_occupancy
 _atom_site_hle17_ddec_charge
 _atom_site_hle17_ddec_spin_density
 _atom_site_hle17_ddec_sum_bond_order
 _atom_site_hle17_magmom
 _atom_site_hse06_10hf_bader_charge
 _atom_site_hse06_10hf_bader_spin_density
 _atom_site_hse06_10hf_ddec_charge
 _atom_site_hse06_10hf_ddec_spin_density
 _atom_site_hse06_10hf_ddec_sum_bond_order
 _atom_site_hse06_10hf_magmom
 _atom_site_hse06_ddec_charge
 _atom_site_hse06_ddec_spin_density
 _atom_site_hse06_ddec_sum_bond_order
 _atom_site_hse06_magmom
 _atom_site_pbe_cm5_charge
 _atom_site_pbe_ddec_charge
 _atom_site_pbe_ddec_spin_density
 _atom_site_pbe_ddec_sum_bond_order
 _atom_site_pbe_magmom
Fe  Fe0  1  0.75148829  0.49921371  0.54893151  1  1.042676  -3.890984  2.096144  -3.633  1.415711  -3.661202  0.944814  -3.863991  2.547884  -3.635  1.030588  -3.881487  2.436004  -3.688  0.648771  0.885924  -3.828139  2.605315  -3.574
Fe  Fe1  1  0.74851108  0.00078780  0.04893111  1  1.04269  3.891062  2.096106  3.633  1.415571  3.661122  0.9446  3.863895  2.547922  3.635  1.03051  3.881477  2.435992  3.688  0.648727  0.885871  3.828136  2.605291  3.574
Fe  Fe2  1  0.24851202  0.50078746  0.45106946  1  1.042713  -3.891047  2.096118  -3.633  1.417494  -3.66763  0.949957  -3.871301  2.544277  -3.641  1.030561  -3.88153  2.435982  -3.688  0.648738  0.885878  -3.828198  2.605292  -3.574
Fe  Fe3  1  0.25148921  0.99921263  0.95107052  1  1.042643  3.890978  2.096069  3.633  1.417404  3.667676  0.95012  3.871379  2.544081  3.641  1.030615  3.881534  2.435871  3.688  0.648752  0.885939  3.828202  2.605193  3.574
H  H4  1  0.17484426  0.37700584  0.79834060  1  0.09657  3.7e-05  0.956223  0.0  0.068499  -0.000144  0.106223  -0.0  1.019197  0.0  0.109244  3.2e-05  1.018244  0.0  0.104656  0.104238  -2.2e-05  1.019934  0.0
H  H5  1  0.32515900  0.12299275  0.29834138  1  0.096578  -3.9e-05  0.95618  0.0  0.068475  0.000145  0.106237  0.0  1.019153  0.0  0.109253  -3.2e-05  1.018204  0.0  0.104651  0.104248  2.2e-05  1.01989  0.0
H  H6  1  0.82515601  0.62299386  0.20165838  1  0.096577  3.8e-05  0.956169  0.0  0.068642  -0.000157  0.106376  8e-06  1.019263  0.0  0.109249  3.2e-05  1.018198  0.0  0.104646  0.104235  -2.1e-05  1.019885  0.0
H  H7  1  0.67483486  0.87700771  0.70165959  1  0.096541  -4e-05  0.956205  0.0  0.068645  0.000157  0.106358  -8e-06  1.019283  0.0  0.109221  -3.2e-05  1.01823  0.0  0.104633  0.104219  2.1e-05  1.019905  0.0
H  H8  1  0.42409286  0.26735946  0.90711936  1  0.097991  -0.000114  0.954471  0.0  0.073106  0.000117  0.107138  -9.5e-05  1.018655  0.0  0.109896  -0.000133  1.017596  0.0  0.105044  0.10513  -8.2e-05  1.019787  0.0
H  H9  1  0.07591081  0.23264042  0.40711990  1  0.098012  0.00011  0.954438  0.0  0.073079  -0.000117  0.10716  9.5e-05  1.018629  0.0  0.109904  0.000133  1.017582  0.0  0.10504  0.105151  8.1e-05  1.019754  0.0
H  H10  1  0.57590529  0.73264099  0.09288161  1  0.098023  -0.000109  0.954435  0.0  0.073437  7.7e-05  0.107379  -0.000107  1.018554  0.0  0.109937  -0.000133  1.01755  0.0  0.105066  0.105178  -8.1e-05  1.019733  0.0
H  H11  1  0.92408736  0.76736076  0.59287974  1  0.09801  0.000111  0.954419  0.0  0.073396  -7.7e-05  0.107346  0.000107  1.018569  0.0  0.109903  0.000133  1.017565  0.0  0.105037  0.105151  8.1e-05  1.019735  0.0
H  H12  1  0.93275522  0.03304711  0.72800278  1  0.103457  -0.000132  0.97369  0.0  0.113668  0.000116  0.113031  -0.000124  1.033963  0.0  0.116449  -0.00018  1.032232  0.0  0.102877  0.110557  -0.000113  1.03532  0.0
H  H13  1  0.56724030  0.46694822  0.22800497  1  0.10345  0.000129  0.973729  0.0  0.113733  -0.000116  0.113023  0.000124  1.03399  0.0  0.116444  0.00018  1.032254  0.0  0.10287  0.11055  0.000113  1.035342  0.0
H  H14  1  0.06723645  0.96695188  0.27199753  1  0.10344  -0.000127  0.973704  0.0  0.113901  0.000122  0.11271  -0.000179  1.034489  0.0  0.116432  -0.000181  1.032249  0.0  0.102877  0.110546  -0.000112  1.035334  0.0
H  H15  1  0.43275999  0.53305222  0.77199267  1  0.103434  0.000131  0.973735  0.0  0.114142  -0.000122  0.112705  0.000179  1.03451  0.0  0.116428  0.000181  1.032268  0.0  0.102861  0.110543  0.000113  1.035361  0.0
H  H16  1  0.93759616  0.99287923  0.56875434  1  0.079753  -7e-06  0.980537  0.0  0.045964  -1e-06  0.092344  1e-06  1.041683  0.0  0.094516  4e-06  1.041239  0.0  0.097477  0.09109  -2e-06  1.041653  0.0
H  H17  1  0.56239641  0.50712255  0.06875720  1  0.079771  9e-06  0.980507  0.0  0.045655  2e-06  0.092385  -1e-06  1.041626  0.0  0.09456  -4e-06  1.041177  0.0  0.097475  0.091129  2e-06  1.041597  0.0
H  H18  1  0.06240201  0.00712194  0.43124730  1  0.079727  -2e-06  0.980528  0.0  0.046817  -5e-06  0.092721  -2e-06  1.041162  0.0  0.094525  4e-06  1.041184  0.0  0.097476  0.091094  -2e-06  1.041609  0.0
H  H19  1  0.43759951  0.49287495  0.93124045  1  0.079696  4e-06  0.980555  0.0  0.047259  6e-06  0.092684  2e-06  1.041209  0.0  0.094488  -4e-06  1.041233  0.0  0.097482  0.091056  2e-06  1.041653  0.0
H  H20  1  0.68286144  0.10127685  0.45911468  1  0.081362  1e-06  0.959009  0.0  0.055852  -1e-05  0.094076  -8e-06  1.017835  0.0  0.096652  -1.3e-05  1.017098  0.0  0.097752  0.092381  -7e-06  1.018158  0.0
H  H21  1  0.81713296  0.39872692  0.95911458  1  0.081357  -3e-06  0.95904  0.0  0.055994  1e-05  0.094067  8e-06  1.017872  0.0  0.096642  1.3e-05  1.017136  0.0  0.097738  0.092371  7e-06  1.0182  0.0
H  H22  1  0.31713669  0.89872286  0.54088563  1  0.081366  3e-06  0.959041  0.0  0.056197  -5e-06  0.094221  -5e-06  1.017608  0.0  0.096643  -1.3e-05  1.01714  0.0  0.097742  0.092372  -8e-06  1.018198  0.0
H  H23  1  0.18286298  0.60127132  0.04088240  1  0.081374  0.0  0.959066  0.0  0.056188  5e-06  0.09424  5e-06  1.017622  0.0  0.096665  1.3e-05  1.017149  0.0  0.097762  0.092393  8e-06  1.018207  0.0
H  H24  1  0.42606782  0.24852074  0.51136879  1  0.105407  0.000208  0.969451  0.0  0.080412  -0.000187  0.117058  0.000226  1.027019  0.0  0.119615  0.000302  1.026512  0.0  0.103217  0.114713  0.000211  1.028418  0.0
H  H25  1  0.07392598  0.25148132  0.01136730  1  0.105393  -0.000207  0.969465  0.0  0.080642  0.000186  0.117052  -0.000226  1.027034  0.0  0.119598  -0.000302  1.026536  0.0  0.103216  0.114703  -0.000211  1.02844  0.0
H  H26  1  0.57392819  0.75147971  0.48863085  1  0.105356  0.000206  0.969507  0.0  0.080735  -6.5e-05  0.11699  0.000263  1.027337  0.0  0.119568  0.000302  1.026577  0.0  0.103194  0.114671  0.000211  1.028484  0.0
H  H27  1  0.92607640  0.74851690  0.98863168  1  0.105386  -0.000203  0.969461  0.0  0.080828  6.4e-05  0.117011  -0.000263  1.027306  0.0  0.119591  -0.000302  1.026542  0.0  0.103215  0.114698  -0.000211  1.028436  0.0
C  C28  1  0.34893585  0.30474174  0.68399283  1  -0.078345  -0.002544  3.689776  -0.005  -0.075437  -0.003105  -0.065948  -0.001087  3.927104  -0.003  -0.071739  0.00013  3.94492  -0.001  -0.001752  -0.062181  -0.001878  3.91653  -0.004
C  C29  1  0.15106280  0.19525927  0.18399345  1  -0.078299  0.002554  3.689623  0.005  -0.075403  0.003105  -0.065892  0.001087  3.926952  0.003  -0.071679  -0.000127  3.944766  0.001  -0.001729  -0.062125  0.001878  3.916374  0.004
C  C30  1  0.65106447  0.69525943  0.31600681  1  -0.078314  -0.002551  3.689691  -0.005  -0.076162  -0.004606  -0.066173  -0.001794  3.928673  -0.004  -0.071697  0.000124  3.944858  -0.001  -0.001741  -0.062137  -0.001878  3.91644  -0.004
C  C31  1  0.84893968  0.80474263  0.81600753  1  -0.07824  0.00255  3.689751  0.005  -0.075811  0.004607  -0.066142  0.001795  3.928704  0.004  -0.071669  -0.000126  3.944892  0.001  -0.001709  -0.062114  0.001878  3.91649  0.004
C  C32  1  0.31201753  0.31756340  0.77479672  1  -0.064559  -0.000387  3.733549  -0.001  0.076873  -0.001831  -0.092406  -0.000771  3.99269  -0.001  -0.092564  -0.001298  4.010463  -0.002  -0.081172  -0.092729  -0.000964  3.981085  -0.001
C  C33  1  0.18797926  0.18243673  0.27479936  1  -0.064568  0.00039  3.73353  0.001  0.076896  0.001832  -0.092419  0.000771  3.992675  0.001  -0.092577  0.001298  4.010449  0.002  -0.081152  -0.092743  0.000964  3.981066  0.001
C  C34  1  0.68798493  0.68243777  0.22520159  1  -0.064535  -0.000377  3.733504  -0.001  0.077051  -0.001477  -0.092937  -0.000628  3.99329  -0.001  -0.092538  -0.001296  4.010427  -0.002  -0.081157  -0.092696  -0.000963  3.981032  -0.001
C  C35  1  0.81201675  0.81756372  0.72520161  1  -0.064504  0.00039  3.733532  0.001  0.077044  0.001476  -0.092928  0.000628  3.993331  0.001  -0.092522  0.001299  4.010473  0.002  -0.081143  -0.092684  0.000963  3.981072  0.001
C  C36  1  0.45272655  0.25616103  0.83588227  1  -0.051431  0.000291  3.729862  0.001  0.038347  0.00193  -0.0803  0.000662  3.991058  0.001  -0.07913  0.001029  4.008313  0.002  -0.080247  -0.081444  0.000786  3.98029  0.001
C  C37  1  0.04727688  0.24383897  0.33588411  1  -0.051524  -0.000264  3.729988  -0.001  0.03845  -0.00193  -0.080405  -0.000662  3.9912  -0.001  -0.079221  -0.001027  4.008452  -0.002  -0.080287  -0.08155  -0.000786  3.98044  -0.001
C  C38  1  0.54727803  0.74383939  0.16411804  1  -0.051493  0.00026  3.729926  0.001  0.039317  0.001194  -0.080722  0.000288  3.991862  0.001  -0.079209  0.001027  4.008398  0.002  -0.080287  -0.081532  0.000787  3.980369  0.001
C  C39  1  0.95271696  0.75616075  0.66411619  1  -0.051493  -0.000264  3.729934  -0.001  0.039334  -0.001192  -0.080708  -0.000287  3.991882  -0.001  -0.079191  -0.001025  4.008414  -0.002  -0.080249  -0.081512  -0.000786  3.980389  -0.001
C  C40  1  0.63089356  0.18088852  0.80710013  1  -0.08521  0.002491  3.690348  0.005  -0.042316  0.002874  -0.07341  0.001021  3.930485  0.003  -0.080228  -8.6e-05  3.948171  0.001  -0.004819  -0.069103  0.001785  3.918871  0.004
C  C41  1  0.86911087  0.31910885  0.30709999  1  -0.085138  -0.002514  3.690345  -0.005  -0.042443  -0.002872  -0.073316  -0.00102  3.930511  -0.003  -0.080133  8.5e-05  3.94819  -0.001  -0.004816  -0.069012  -0.001786  3.918892  -0.004
C  C42  1  0.36910886  0.81911118  0.19290017  1  -0.08523  0.002511  3.690366  0.005  -0.043796  0.004427  -0.073712  0.001773  3.930888  0.004  -0.080221  -8.2e-05  3.948235  0.001  -0.004832  -0.069094  0.001786  3.91893  0.004
C  C43  1  0.13089155  0.68089084  0.69289899  1  -0.085148  -0.002515  3.690432  -0.005  -0.043823  -0.004426  -0.073651  -0.001773  3.930909  -0.004  -0.08016  8.1e-05  3.948256  -0.001  -0.00481  -0.069041  -0.001786  3.918971  -0.004
C  C44  1  0.81825426  0.07955318  0.68115121  1  -0.110036  -7.5e-05  3.738002  0.0  -0.055415  -5.1e-05  -0.131392  -0.00011  3.987571  0.0  -0.134  -0.000373  4.007809  0.0  -0.091306  -0.129598  3e-06  3.973537  0.0
C  C45  1  0.68173687  0.42044445  0.18115351  1  -0.110137  0.000105  3.737904  0.0  -0.055462  5.1e-05  -0.131472  0.00011  3.987499  0.0  -0.134079  0.000376  4.007731  0.0  -0.091321  -0.129677  -3e-06  3.97346  0.0
C  C46  1  0.18173743  0.92044655  0.31884843  1  -0.11004  -0.00011  3.737928  0.0  -0.05548  0.000145  -0.131472  -2.6e-05  3.987544  0.0  -0.133983  -0.000374  4.007772  0.0  -0.091309  -0.129582  4e-06  3.97351  0.0
C  C47  1  0.31826338  0.57955451  0.81884480  1  -0.110198  8.1e-05  3.73792  0.0  -0.056033  -0.000145  -0.131635  2.6e-05  3.987532  0.0  -0.134148  0.000374  4.007762  0.0  -0.09133  -0.12975  -4e-06  3.97351  0.0
C  C48  1  0.82359955  0.05803349  0.59162510  1  -0.074748  0.00013  3.809759  0.0  -0.047597  0.000355  -0.09006  0.000162  4.062203  0.0  -0.091947  0.000348  4.084443  0.0  -0.095609  -0.088124  0.000108  4.045727  0.0
C  C49  1  0.67638701  0.44196504  0.09162737  1  -0.074678  -0.000162  3.809438  0.0  -0.047485  -0.000355  -0.089995  -0.000162  4.06184  0.0  -0.091885  -0.000351  4.084082  0.0  -0.095608  -0.088061  -0.000108  4.045367  0.0
C  C50  1  0.17639641  0.94196549  0.40837587  1  -0.074712  0.000139  3.809677  0.0  -0.047502  8.5e-05  -0.089405  4.1e-05  4.06068  0.0  -0.091914  0.000348  4.084305  0.0  -0.09562  -0.088098  0.000109  4.045608  0.0
C  C51  1  0.32360678  0.55803320  0.90836961  1  -0.07447  -0.000125  3.809357  0.0  -0.047747  -8.4e-05  -0.089157  -4.1e-05  4.060367  0.0  -0.091666  -0.000348  4.08399  0.0  -0.095565  -0.087844  -0.000109  4.04529  0.0
C  C52  1  0.68046063  0.11908812  0.52994560  1  -0.074709  -0.000134  3.803209  0.0  -0.068948  -0.000304  -0.089664  -0.000148  4.059498  0.0  -0.091988  -0.000368  4.081744  0.0  -0.095569  -0.087571  -0.000114  4.04352  0.0
C  C53  1  0.81953435  0.38091196  0.02994601  1  -0.074835  0.000151  3.803129  0.0  -0.069156  0.000303  -0.089789  0.000148  4.059438  0.0  -0.092117  0.00037  4.081689  0.0  -0.095575  -0.087701  0.000114  4.043472  0.0
C  C54  1  0.31953533  0.88091085  0.47005537  1  -0.074819  -0.000159  3.803298  0.0  -0.068902  -0.000101  -0.089329  -5.7e-05  4.058761  0.0  -0.092079  -0.000368  4.081834  0.0  -0.095571  -0.087667  -0.000114  4.043622  0.0
C  C55  1  0.18046157  0.61908554  0.97005230  1  -0.074926  0.000128  3.803179  0.0  -0.068985  0.000101  -0.089469  5.7e-05  4.058697  0.0  -0.092217  0.000368  4.081765  0.0  -0.095625  -0.087799  0.000114  4.043545  0.0
C  C56  1  0.53392472  0.20104153  0.55899075  1  -0.099771  0.000279  3.712544  0.0  -0.022496  6.6e-05  -0.124108  0.00023  3.964618  0.0  -0.127031  0.000514  3.986776  0.0  -0.090894  -0.122569  0.000174  3.950819  0.0
C  C57  1  0.96606823  0.29895925  0.05898934  1  -0.099649  -0.000292  3.712461  0.0  -0.022625  -6.5e-05  -0.12399  -0.00023  3.964524  0.0  -0.126901  -0.000516  3.986692  0.0  -0.090858  -0.122448  -0.000174  3.95073  0.0
C  C58  1  0.46606697  0.79895820  0.44101089  1  -0.099607  0.000312  3.712485  0.0  -0.022168  -2.3e-05  -0.124286  0.000209  3.965031  0.0  -0.126866  0.000513  3.98673  0.0  -0.090832  -0.122412  0.000174  3.950765  0.0
C  C59  1  0.03393633  0.70104044  0.94100897  1  -0.09957  -0.00029  3.712491  0.0  -0.022193  2.3e-05  -0.124276  -0.000209  3.964997  0.0  -0.12686  -0.000515  3.986695  0.0  -0.090844  -0.1224  -0.000174  3.950723  0.0
C  C60  1  0.51761720  0.22450298  0.65108373  1  0.061228  -0.000208  3.709414  0.0  0.014936  -0.00132  0.070264  -0.000452  3.935577  -0.001  0.070548  -0.000459  3.95977  -0.001  0.006009  0.069463  -0.000487  3.920577  -0.001
C  C61  1  0.98237173  0.27549618  0.15108368  1  0.061095  0.000202  3.709433  0.0  0.015098  0.001322  0.070121  0.000454  3.935664  0.001  0.070405  0.000462  3.959856  0.001  0.005898  0.069323  0.000487  3.920658  0.001
C  C62  1  0.48237878  0.77549674  0.34891725  1  0.061153  -0.000222  3.709288  0.0  0.014574  -0.000646  0.069721  -0.000127  3.936685  0.0  0.070445  -0.000456  3.959762  -0.001  0.005934  0.069366  -0.000487  3.920556  -0.001
C  C63  1  0.01763289  0.72450571  0.84891529  1  0.060933  0.000204  3.709577  0.0  0.014286  0.000649  0.069646  0.000128  3.936781  0.0  0.07037  0.00046  3.959859  0.001  0.005905  0.069294  0.000487  3.920655  0.001
C  C64  1  0.66265606  0.16177494  0.71390850  1  0.059366  0.000153  3.716421  0.0  -0.019326  0.000708  0.068245  0.000274  3.942781  0.0  0.069055  0.000672  3.966413  0.001  0.005853  0.067618  0.00046  3.927107  0.001
C  C65  1  0.83733729  0.33822115  0.21390765  1  0.059482  -0.000151  3.716444  0.0  -0.019366  -0.000709  0.068288  -0.000274  3.942914  0.0  0.069101  -0.000673  3.96654  -0.001  0.005909  0.067663  -0.00046  3.927231  -0.001
C  C66  1  0.33733780  0.83822551  0.28609181  1  0.059418  0.000171  3.716346  0.0  -0.019337  0.001025  0.068075  0.000424  3.943264  0.001  0.069021  0.000673  3.966492  0.001  0.005882  0.067583  0.000461  3.927184  0.001
C  C67  1  0.16266727  0.66177853  0.78609133  1  0.059541  -0.000151  3.71642  0.0  -0.01922  -0.001024  0.068173  -0.000423  3.943279  -0.001  0.069117  -0.000674  3.966508  -0.001  0.005907  0.067682  -0.000461  3.927207  -0.001
C  C68  1  0.21457606  0.37758424  0.62274546  1  0.692076  0.001616  3.771512  0.003  1.577031  -0.005391  0.643857  -0.003558  4.060482  -0.005  0.685128  -0.004817  4.050238  -0.008  0.235406  0.612872  -0.003792  4.068467  -0.005
C  C69  1  0.28543087  0.12241317  0.12274624  1  0.692187  -0.001633  3.771475  -0.003  1.577004  0.005403  0.643962  0.003565  4.060432  0.005  0.685232  0.004821  4.050194  0.008  0.23545  0.612972  0.003792  4.068416  0.005
C  C70  1  0.78542422  0.62241546  0.37725551  1  0.692059  0.00162  3.771478  0.003  1.574867  -0.00309  0.641743  -0.002385  4.06176  -0.004  0.685093  -0.004812  4.050234  -0.008  0.235416  0.612851  -0.003792  4.068425  -0.005
C  C71  1  0.71457586  0.87758725  0.87725407  1  0.692038  -0.001622  3.7715  -0.003  1.575005  0.003099  0.641726  0.002389  4.061776  0.004  0.685066  0.004815  4.050254  0.008  0.235387  0.612824  0.003792  4.068458  0.005
C  C72  1  0.77341780  0.11894074  0.87602346  1  0.685533  -0.001947  3.776851  -0.004  1.575661  0.003643  0.635836  0.002668  4.068784  0.004  0.678116  0.004449  4.057897  0.008  0.234351  0.606148  0.003734  4.074385  0.005
C  C73  1  0.72658693  0.38105872  0.37602318  1  0.685411  0.001948  3.776844  0.004  1.575344  -0.003635  0.635667  -0.002662  4.068852  -0.004  0.677948  -0.004448  4.057967  -0.008  0.234286  0.605981  -0.003735  4.074448  -0.005
C  C74  1  0.22658893  0.88105968  0.12397684  1  0.685548  -0.001949  3.776871  -0.004  1.575532  0.004182  0.635907  0.002946  4.067008  0.004  0.678089  0.004454  4.057962  0.008  0.234329  0.606119  0.003735  4.074474  0.005
C  C75  1  0.27341126  0.61894319  0.62397646  1  0.685368  0.001947  3.777008  0.004  1.57547  -0.004175  0.635834  -0.002943  4.067014  -0.004  0.678018  -0.004451  4.057971  -0.008  0.234318  0.606044  -0.003734  4.074486  -0.005
O  O76  1  0.36448493  0.40520734  0.55469248  1  -0.666806  -0.046022  2.272724  -0.079  -1.223423  -0.089205  -0.609161  -0.045875  2.550354  -0.072  -0.655612  -0.036961  2.534794  -0.052  -0.310569  -0.575795  -0.052354  2.560552  -0.085
O  O77  1  0.13552179  0.09479093  0.05469257  1  -0.666833  0.04603  2.27277  0.079  -1.223765  0.08921  -0.609156  0.045878  2.550347  0.072  -0.655627  0.03696  2.534812  0.052  -0.310532  -0.575793  0.052355  2.560566  0.085
O  O78  1  0.63551318  0.59479163  0.44530916  1  -0.66677  -0.046024  2.272637  -0.079  -1.214894  -0.086951  -0.609683  -0.04492  2.558802  -0.074  -0.655625  -0.036956  2.534801  -0.052  -0.310573  -0.575799  -0.052357  2.560488  -0.085
O  O79  1  0.86448494  0.90520949  0.94530840  1  -0.666764  0.046026  2.272631  0.079  -1.214811  0.086951  -0.609667  0.044918  2.558775  0.074  -0.655613  0.036953  2.534799  0.052  -0.310567  -0.575785  0.052356  2.56048  0.085
O  O80  1  0.96618188  0.41067306  0.63971221  1  -0.570754  -0.031662  2.025947  -0.051  -1.180215  -0.061299  -0.521519  -0.029046  2.283918  -0.046  -0.554517  -0.024898  2.263594  -0.035  -0.291632  -0.493122  -0.036346  2.283604  -0.056
O  O81  1  0.53382634  0.08932680  0.13971694  1  -0.570812  0.031666  2.025829  0.051  -1.179803  0.061283  -0.521572  0.02904  2.283811  0.046  -0.554563  0.024893  2.263478  0.035  -0.291673  -0.493186  0.036347  2.283491  0.056
O  O82  1  0.03382054  0.58932664  0.36028676  1  -0.570777  -0.031665  2.025986  -0.051  -1.186443  -0.068537  -0.516662  -0.032311  2.26975  -0.047  -0.55445  -0.024919  2.263465  -0.035  -0.291628  -0.493108  -0.036347  2.283589  -0.056
O  O83  1  0.46618039  0.91067362  0.86028470  1  -0.570758  0.031662  2.02595  0.051  -1.186582  0.068538  -0.516662  0.032311  2.269713  0.047  -0.554443  0.024916  2.263432  0.035  -0.29162  -0.493112  0.036344  2.283577  0.056
O  O84  1  0.02808386  0.08881155  0.86434959  1  -0.572798  0.032693  2.083235  0.053  -1.186002  0.062696  -0.519522  0.029985  2.344868  0.048  -0.552849  0.026393  2.324424  0.038  -0.2877  -0.490285  0.037427  2.343685  0.058
O  O85  1  0.47192183  0.41118913  0.36435001  1  -0.572773  -0.032694  2.083241  -0.053  -1.185979  -0.062707  -0.51942  -0.02999  2.344813  -0.048  -0.552768  -0.026398  2.324384  -0.038  -0.287665  -0.490189  -0.037428  2.343618  -0.058
O  O86  1  0.97192289  0.91118960  0.13565072  1  -0.572834  0.032693  2.08319  0.053  -1.192444  0.070271  -0.514207  0.03345  2.33003  0.049  -0.552771  0.026419  2.324205  0.038  -0.287681  -0.490241  0.037429  2.343585  0.058
O  O87  1  0.52807849  0.58881204  0.63564963  1  -0.572746  -0.032695  2.083201  -0.053  -1.192439  -0.070277  -0.5142  -0.033451  2.330015  -0.049  -0.55276  -0.026421  2.324212  -0.038  -0.287685  -0.490219  -0.037429  2.34358  -0.058
O  O88  1  0.62562054  0.09964881  0.94686237  1  -0.656232  0.046533  2.219898  0.081  -1.21714  0.091106  -0.600807  0.046246  2.497025  0.073  -0.648205  0.036589  2.483013  0.052  -0.310108  -0.567586  0.052982  2.506032  0.087
O  O89  1  0.87438447  0.40035201  0.44686278  1  -0.656189  -0.046536  2.219941  -0.081  -1.216836  -0.091092  -0.600728  -0.046243  2.497062  -0.073  -0.648126  -0.036587  2.483057  -0.052  -0.310069  -0.567504  -0.052984  2.506061  -0.087
O  O90  1  0.37437974  0.90035089  0.05313860  1  -0.656228  0.046536  2.220048  0.081  -1.209075  0.089014  -0.601789  0.045217  2.505223  0.075  -0.648192  0.036579  2.483223  0.052  -0.310093  -0.567567  0.05298  2.506176  0.087
O  O91  1  0.12562016  0.59964989  0.55313753  1  -0.656177  -0.046532  2.220048  -0.081  -1.209082  -0.089016  -0.601768  -0.045218  2.505177  -0.075  -0.648176  -0.036578  2.483169  -0.052  -0.310095  -0.567541  -0.052979  2.506119  -0.087
