# generated using pymatgen
data_CuH8C13(NO2)2
_symmetry_space_group_name_H-M   'P 1'
_cell_length_a   11.62818206
_cell_length_b   12.62244130
_cell_length_c   14.88708378
_cell_angle_alpha   114.91540290
_cell_angle_beta   90.00020030
_cell_angle_gamma   89.99957421
_symmetry_Int_Tables_number   1
_chemical_formula_structural   CuH8C13(NO2)2
_chemical_formula_sum   'Cu4 H32 C52 N8 O16'
_cell_volume   1981.70480856
_cell_formula_units_Z   4
loop_
 _symmetry_equiv_pos_site_id
 _symmetry_equiv_pos_as_xyz
  1  'x, y, z'
loop_
 _atom_site_type_symbol
 _atom_site_label
 _atom_site_symmetry_multiplicity
 _atom_site_fract_x
 _atom_site_fract_y
 _atom_site_fract_z
 _atom_site_occupancy
 _atom_site_pbe_bader_charge
 _atom_site_pbe_bader_spin_density
 _atom_site_pbe_cm5_charge
 _atom_site_pbe_ddec_charge
 _atom_site_pbe_ddec_spin_density
 _atom_site_pbe_ddec_sum_bond_order
 _atom_site_pbe_magmom
Cu  Cu0  1  0.92710209  0.91505887  0.96093072  1  1.083054  0.582775  0.687333  0.772651  0.737326  2.390844  0.584
Cu  Cu1  1  0.42709427  0.08494277  0.53907088  1  1.084167  0.58287  0.68738  0.772408  0.737393  2.391894  0.584
Cu  Cu2  1  0.07291570  0.08494862  0.03907192  1  1.084038  0.58284  0.687238  0.772239  0.73734  2.391462  0.584
Cu  Cu3  1  0.57288912  0.91506996  0.46093632  1  1.082914  0.582807  0.687323  0.772549  0.737381  2.391631  0.584
H  H4  1  0.94543069  0.47988982  0.87990258  1  0.43633  6.7e-05  0.319043  0.263623  3.7e-05  0.938085  0.0
H  H5  1  0.44542832  0.52010996  0.62009640  1  0.436358  6.7e-05  0.319039  0.263694  3.7e-05  0.938066  0.0
H  H6  1  0.05456904  0.52010981  0.12009925  1  0.436342  6.7e-05  0.319058  0.26365  3.7e-05  0.938065  0.0
H  H7  1  0.55457055  0.47988444  0.37989818  1  0.4364  6.7e-05  0.319014  0.263709  3.7e-05  0.938002  0.0
H  H8  1  0.95558719  0.66463153  0.89273611  1  0.102172  -0.000153  0.113329  0.090825  -0.000149  1.011804  0.0
H  H9  1  0.45558970  0.33536293  0.60726233  1  0.102125  -0.000153  0.113336  0.090799  -0.000149  1.011762  0.0
H  H10  1  0.04441254  0.33536460  0.10726514  1  0.102178  -0.000153  0.113327  0.090815  -0.000149  1.011758  0.0
H  H11  1  0.54441261  0.66462623  0.39272902  1  0.102168  -0.000153  0.113322  0.090765  -0.000149  1.011908  0.0
H  H12  1  0.62988167  0.48132118  0.82682779  1  0.082703  1e-06  0.108557  0.118382  -1.1e-05  1.007057  0.0
H  H13  1  0.12988213  0.51867107  0.67317231  1  0.082778  1e-06  0.10858  0.118426  -1.1e-05  1.007131  0.0
H  H14  1  0.37011806  0.51867320  0.17317350  1  0.082598  1e-06  0.108573  0.118414  -1.1e-05  1.007159  0.0
H  H15  1  0.87011932  0.48131720  0.32682477  1  0.082586  1e-06  0.108559  0.11844  -1.1e-05  1.007111  0.0
H  H16  1  0.53832065  0.66917867  0.84922803  1  0.089619  -3.2e-05  0.106484  0.111157  -2.7e-05  0.995087  0.0
H  H17  1  0.03832338  0.33081246  0.65076873  1  0.089692  -3.2e-05  0.106493  0.111192  -2.8e-05  0.995029  0.0
H  H18  1  0.46167994  0.33081659  0.15077089  1  0.089588  -3.2e-05  0.106467  0.111176  -2.8e-05  0.994995  0.0
H  H19  1  0.96167807  0.66917668  0.34922866  1  0.089648  -3.2e-05  0.106476  0.111152  -2.7e-05  0.995104  0.0
H  H20  1  0.66073383  0.84930612  0.89668103  1  0.091828  -9.4e-05  0.120512  0.095567  -9e-05  0.976269  0.0
H  H21  1  0.16074125  0.15068594  0.60331640  1  0.091731  -9.4e-05  0.120482  0.09562  -9e-05  0.976263  0.0
H  H22  1  0.33926418  0.15069002  0.10331820  1  0.091742  -9.4e-05  0.120495  0.095603  -9e-05  0.976264  0.0
H  H23  1  0.83926278  0.84930320  0.39668100  1  0.091833  -9.4e-05  0.120522  0.095617  -9e-05  0.976251  0.0
H  H24  1  0.94883436  0.32446012  0.92832412  1  0.084071  0.000435  0.10176  0.111751  0.000336  1.019443  0.0
H  H25  1  0.44882623  0.67553701  0.57167257  1  0.084072  0.000436  0.1017  0.111699  0.000337  1.019503  0.0
H  H26  1  0.05117139  0.67553777  0.07167305  1  0.083998  0.000435  0.101701  0.111657  0.000336  1.019552  0.0
H  H27  1  0.55116834  0.32446088  0.42832394  1  0.084037  0.000435  0.10177  0.111744  0.000336  1.019341  0.0
H  H28  1  0.70737134  0.33288857  0.71007597  1  0.064723  0.000251  0.107355  0.118794  0.00013  1.007734  0.0
H  H29  1  0.20736596  0.66710756  0.78991767  1  0.064623  0.000251  0.10736  0.118741  0.00013  1.007804  0.0
H  H30  1  0.29262925  0.66711193  0.28992483  1  0.064625  0.000251  0.107338  0.118781  0.00013  1.007657  0.0
H  H31  1  0.79263377  0.33288160  0.21007502  1  0.064339  0.000251  0.107334  0.118751  0.00013  1.007779  0.0
H  H32  1  0.75642766  0.01692163  0.74926718  1  0.108769  0.000553  0.114045  0.131294  0.00039  0.984573  0.0
H  H33  1  0.25642128  0.98307590  0.75073316  1  0.108647  0.000553  0.114045  0.131283  0.00039  0.984605  0.0
H  H34  1  0.24356949  0.98307887  0.25073295  1  0.108763  0.000553  0.114056  0.131291  0.00039  0.984538  0.0
H  H35  1  0.74357501  0.01691848  0.24926746  1  0.108716  0.000554  0.114042  0.131267  0.00039  0.984535  0.0
C  C36  1  0.86246600  0.66167225  0.88167766  1  0.537801  -0.00069  0.035458  -0.015208  -0.000783  3.937214  0.0
C  C37  1  0.36246681  0.33832370  0.61832173  1  0.537863  -0.000689  0.035477  -0.015118  -0.000783  3.936981  0.0
C  C38  1  0.13753545  0.33832562  0.11832422  1  0.537869  -0.00069  0.035485  -0.015156  -0.000784  3.937174  0.0
C  C39  1  0.63753292  0.66166895  0.38167222  1  0.537773  -0.000689  0.035466  -0.015122  -0.000783  3.937265  0.0
C  C40  1  0.80215944  0.55614473  0.85611933  1  0.383253  0.000304  0.097845  0.194839  0.000209  4.086354  0.0
C  C41  1  0.30215865  0.44385599  0.64388161  1  0.383314  0.000303  0.097826  0.194816  0.000209  4.086434  0.0
C  C42  1  0.19784201  0.44385577  0.14388147  1  0.383289  0.000304  0.097846  0.194873  0.000209  4.08639  0.0
C  C43  1  0.69784194  0.55614103  0.35611324  1  0.382114  0.000303  0.097764  0.194746  0.000208  4.086504  0.0
C  C44  1  0.68238230  0.55886425  0.84400489  1  -0.055974  -0.0006  -0.090973  -0.166167  -0.000672  3.963623  0.0
C  C45  1  0.18238416  0.44113377  0.65599541  1  -0.055979  -0.0006  -0.091051  -0.166358  -0.000672  3.963777  0.0
C  C46  1  0.31761830  0.44113450  0.15599461  1  -0.055808  -0.0006  -0.091068  -0.166363  -0.000672  3.963847  0.0
C  C47  1  0.81761815  0.55885800  0.34400158  1  -0.056292  -0.000599  -0.090955  -0.166255  -0.000671  3.963746  0.0
C  C48  1  0.63109873  0.66455003  0.85768333  1  -0.054904  0.000358  -0.088928  -0.117026  0.00023  4.044193  0.0
C  C49  1  0.13110139  0.33544310  0.64231508  1  -0.054871  0.000358  -0.088917  -0.116961  0.00023  4.044124  0.0
C  C50  1  0.36890358  0.33544523  0.14231559  1  -0.05493  0.000359  -0.08887  -0.116943  0.000231  4.044099  0.0
C  C51  1  0.86890006  0.66454779  0.35768361  1  -0.054814  0.000357  -0.088933  -0.117015  0.00023  4.044092  0.0
C  C52  1  0.69787925  0.76492835  0.88414784  1  0.51209  -0.000615  0.032749  0.057488  -0.000709  3.980087  0.0
C  C53  1  0.19788518  0.23506433  0.61585193  1  0.511881  -0.000615  0.032746  0.057326  -0.000708  3.980244  0.0
C  C54  1  0.30212220  0.23506777  0.11585407  1  0.512081  -0.000616  0.032791  0.057429  -0.000709  3.980034  0.0
C  C55  1  0.80211799  0.76492831  0.38414739  1  0.51216  -0.000615  0.032733  0.057432  -0.000708  3.979951  0.0
C  C56  1  0.83113551  0.34487257  0.82350887  1  0.336504  0.001256  0.091271  0.228707  0.000701  4.098317  0.001
C  C57  1  0.33112629  0.65512534  0.67648979  1  0.336773  0.001255  0.091236  0.228517  0.0007  4.09847  0.001
C  C58  1  0.16886422  0.65512794  0.17649058  1  0.336228  0.001258  0.091269  0.228587  0.000702  4.098323  0.001
C  C59  1  0.66887000  0.34486819  0.32350247  1  0.336429  0.001255  0.091282  0.228618  0.0007  4.098242  0.001
C  C60  1  0.88470314  0.28241412  0.87070327  1  -0.0819  0.004033  -0.095101  -0.208082  0.002732  3.947908  0.002
C  C61  1  0.38469406  0.71758345  0.62929139  1  -0.081759  0.004041  -0.094953  -0.207831  0.002737  3.947694  0.002
C  C62  1  0.11529659  0.71758203  0.12929127  1  -0.081785  0.004034  -0.094989  -0.20775  0.002732  3.947752  0.002
C  C63  1  0.61530395  0.28240834  0.37070024  1  -0.081906  0.00404  -0.095109  -0.207899  0.002737  3.94768  0.002
C  C64  1  0.74897570  0.28815026  0.74977621  1  0.043182  0.002009  -0.090627  -0.20266  0.001225  3.926938  0.001
C  C65  1  0.24896720  0.71184558  0.75022215  1  0.043058  0.002009  -0.090578  -0.202347  0.001226  3.926943  0.001
C  C66  1  0.25102059  0.71185548  0.25022916  1  0.043599  0.002008  -0.090549  -0.202524  0.001224  3.926744  0.001
C  C67  1  0.75103253  0.28814619  0.24977350  1  0.043832  0.002009  -0.09068  -0.202658  0.001226  3.927027  0.001
C  C68  1  0.72381827  0.17043929  0.72302536  1  -0.039375  0.016957  -0.009147  0.011432  0.011775  3.988481  0.013
C  C69  1  0.22382700  0.82955584  0.77697402  1  -0.039252  0.016958  -0.009042  0.011347  0.011775  3.988743  0.013
C  C70  1  0.27616942  0.82956643  0.27698403  1  -0.038529  0.016956  -0.009111  0.011585  0.011776  3.988398  0.013
C  C71  1  0.77618219  0.17043941  0.22302691  1  -0.039783  0.016957  -0.009008  0.011566  0.011773  3.988756  0.013
C  C72  1  0.77683465  0.10843646  0.77021942  1  0.027055  0.004447  -0.080593  -0.12666  0.003078  3.9154  0.003
C  C73  1  0.27683150  0.89156268  0.72978222  1  0.027021  0.004456  -0.080674  -0.126615  0.003084  3.915608  0.003
C  C74  1  0.22316422  0.89156491  0.22978438  1  0.026375  0.00445  -0.080646  -0.126661  0.003079  3.915482  0.003
C  C75  1  0.72316651  0.10843520  0.27021697  1  0.027088  0.004452  -0.080592  -0.126552  0.003082  3.91545  0.003
C  C76  1  0.85668284  0.16566985  0.84526137  1  -0.004968  0.016598  -0.013961  0.001157  0.011532  3.994038  0.013
C  C77  1  0.35666863  0.83432966  0.65473122  1  -0.005057  0.016593  -0.014036  0.000888  0.011529  3.993999  0.013
C  C78  1  0.14332635  0.83432717  0.15473348  1  -0.00494  0.016599  -0.013968  0.000892  0.011533  3.994254  0.013
C  C79  1  0.64332164  0.16566300  0.34526139  1  -0.004837  0.016593  -0.014048  0.000827  0.01153  3.994001  0.013
C  C80  1  0.91123516  0.10281193  0.90012116  1  1.55782  -0.001677  0.213378  0.576166  -0.002025  4.16056  -0.004
C  C81  1  0.41121419  0.89720733  0.59987195  1  1.557911  -0.001678  0.213531  0.57638  -0.002024  4.159866  -0.004
C  C82  1  0.08879037  0.89719907  0.09987871  1  1.557959  -0.001677  0.213489  0.576353  -0.002025  4.160427  -0.004
C  C83  1  0.58876318  0.10280017  0.40012867  1  1.558231  -0.001675  0.213473  0.576286  -0.002024  4.159635  -0.004
C  C84  1  0.64053017  0.10914656  0.64081375  1  1.581787  -0.001938  0.21526  0.581316  -0.002358  4.16221  -0.004
C  C85  1  0.14056199  0.89085788  0.85918202  1  1.58272  -0.001937  0.215274  0.581483  -0.002359  4.162318  -0.004
C  C86  1  0.35944376  0.89087489  0.35920061  1  1.58135  -0.00193  0.215431  0.581367  -0.002356  4.16187  -0.004
C  C87  1  0.85945838  0.10915221  0.14082692  1  1.582554  -0.001938  0.215356  0.581457  -0.002359  4.16242  -0.004
N  N88  1  0.81234000  0.76255267  0.89649991  1  -1.225089  -0.001736  -0.330753  -0.210542  -0.001016  3.54446  0.0
N  N89  1  0.31234843  0.23743925  0.60349722  1  -1.225069  -0.001736  -0.330763  -0.210426  -0.001016  3.544551  0.0
N  N90  1  0.18765887  0.23744608  0.10350161  1  -1.225011  -0.001735  -0.330791  -0.210476  -0.001015  3.544556  0.0
N  N91  1  0.68765474  0.76255601  0.39650035  1  -1.225075  -0.001735  -0.330746  -0.210521  -0.001016  3.54423  0.0
N  N92  1  0.86598492  0.46008593  0.84911859  1  -1.238837  0.000579  -0.41454  -0.352309  0.00031  3.632911  0.0
N  N93  1  0.36598253  0.53991349  0.65088071  1  -1.238845  0.000579  -0.414499  -0.352312  0.00031  3.63303  0.0
N  N94  1  0.13401567  0.53991370  0.15088122  1  -1.238824  0.000579  -0.414558  -0.352341  0.00031  3.632926  0.0
N  N95  1  0.63401720  0.46007829  0.34911092  1  -1.23739  0.000578  -0.414455  -0.352326  0.000309  3.632866  0.0
O  O96  1  0.54724538  0.16288344  0.64235014  1  -1.106531  0.095497  -0.313658  -0.519087  0.060369  2.341167  0.087
O  O97  1  0.04727505  0.83713823  0.85764821  1  -1.107441  0.095494  -0.313954  -0.51939  0.060366  2.340783  0.087
O  O98  1  0.45273543  0.83714938  0.35766227  1  -1.106982  0.095489  -0.313855  -0.519272  0.060363  2.340823  0.087
O  O99  1  0.95274016  0.16288063  0.14235448  1  -1.107252  0.095497  -0.313896  -0.519351  0.060369  2.340808  0.087
O  O100  1  0.99524649  0.15455472  0.95673808  1  -1.106229  0.096231  -0.31473  -0.524492  0.060698  2.383812  0.088
O  O101  1  0.49523084  0.84545176  0.54324664  1  -1.106022  0.096257  -0.314813  -0.52463  0.060713  2.383403  0.088
O  O102  1  0.00478248  0.84544756  0.04325328  1  -1.105958  0.096258  -0.314806  -0.524668  0.060711  2.38371  0.088
O  O103  1  0.50474825  0.15455138  0.45674772  1  -1.106381  0.096222  -0.314817  -0.524572  0.060693  2.383576  0.088
O  O104  1  0.67120676  0.00881961  0.57685062  1  -1.103041  0.095233  -0.310706  -0.510676  0.06007  2.331703  0.087
O  O105  1  0.17124494  0.99117763  0.92314333  1  -1.103369  0.095261  -0.310528  -0.510644  0.060086  2.331825  0.087
O  O106  1  0.32875685  0.99119572  0.42316222  1  -1.102508  0.095243  -0.310769  -0.510735  0.060077  2.331807  0.087
O  O107  1  0.82878575  0.00882809  0.07686674  1  -1.102955  0.095253  -0.310629  -0.51063  0.060083  2.331808  0.087
O  O108  1  0.86884455  0.00420208  0.88670638  1  -1.106271  0.08988  -0.31061  -0.512042  0.056646  2.333134  0.082
O  O109  1  0.36883144  0.99582617  0.61329791  1  -1.10658  0.089857  -0.31069  -0.512065  0.056632  2.333174  0.082
O  O110  1  0.13116980  0.99581239  0.11330212  1  -1.106844  0.089862  -0.310639  -0.511975  0.056635  2.333158  0.082
O  O111  1  0.63115539  0.00418218  0.38670907  1  -1.106768  0.089885  -0.310578  -0.511996  0.056651  2.333021  0.082
