# generated using pymatgen
data_MnH20C23N4O5
_symmetry_space_group_name_H-M   'P 1'
_cell_length_a   8.15022035
_cell_length_b   11.81566468
_cell_length_c   15.29645330
_cell_angle_alpha   102.65584056
_cell_angle_beta   100.33393940
_cell_angle_gamma   107.00492886
_symmetry_Int_Tables_number   1
_chemical_formula_structural   MnH20C23N4O5
_chemical_formula_sum   'Mn2 H40 C46 N8 O10'
_cell_volume   1326.81177661
_cell_formula_units_Z   2
loop_
 _symmetry_equiv_pos_site_id
 _symmetry_equiv_pos_as_xyz
  1  'x, y, z'
loop_
 _atom_site_type_symbol
 _atom_site_label
 _atom_site_symmetry_multiplicity
 _atom_site_fract_x
 _atom_site_fract_y
 _atom_site_fract_z
 _atom_site_occupancy
 _atom_site_pbe_bader_charge
 _atom_site_pbe_bader_spin_density
 _atom_site_pbe_cm5_charge
 _atom_site_pbe_ddec_charge
 _atom_site_pbe_ddec_spin_density
 _atom_site_pbe_ddec_sum_bond_order
 _atom_site_pbe_magmom
Mn  Mn0  1  0.03202314  0.38508059  0.57973481  1  1.538277  4.426083  0.628504  0.962583  4.57953  2.429697  4.359
Mn  Mn1  1  0.96797727  0.61492022  0.42026328  1  1.538292  4.426103  0.628446  0.962414  4.579551  2.429944  4.359
H  H2  1  0.64954827  0.40994048  0.24316557  1  0.102165  -6e-05  0.109811  0.121873  -0.000536  1.01596  0.0
H  H3  1  0.35045251  0.59005848  0.75683353  1  0.102144  -6e-05  0.109814  0.121883  -0.000536  1.015984  0.0
H  H4  1  0.53339860  0.28090617  0.07666257  1  0.059794  9e-05  0.105953  0.110949  -9.2e-05  0.994263  0.0
H  H5  1  0.46659869  0.71908816  0.92333672  1  0.059701  9e-05  0.105952  0.110981  -9.2e-05  0.994165  0.0
H  H6  1  0.63847422  0.97512433  0.15368543  1  0.099914  0.000186  0.103871  0.10788  2.7e-05  1.028542  0.0
H  H7  1  0.36150434  0.02486985  0.84631731  1  0.09981  0.000186  0.103788  0.107716  2.7e-05  1.028732  0.0
H  H8  1  0.75454568  0.10400061  0.32030208  1  0.094799  0.00038  0.105624  0.108824  -0.000127  1.00532  0.0
H  H9  1  0.24543490  0.89599267  0.67969612  1  0.095227  0.00038  0.105619  0.108842  -0.000127  1.005229  0.0
H  H10  1  0.73561794  0.08052180  0.70266614  1  0.107061  0.000371  0.104869  0.110343  0.00013  1.012024  0.0
H  H11  1  0.26437649  0.91950017  0.29733110  1  0.107259  0.000371  0.104835  0.110379  0.00013  1.012019  0.0
H  H12  1  0.70531030  0.95594509  0.81670276  1  0.098447  7.6e-05  0.102619  0.107097  4.4e-05  1.034116  0.0
H  H13  1  0.29466943  0.04406205  0.18328598  1  0.098422  7.6e-05  0.102596  0.107111  4.4e-05  1.03414  0.0
H  H14  1  0.23853853  0.17585907  0.97837887  1  0.092022  0.00012  0.100866  0.092437  8.3e-05  1.070194  0.0
H  H15  1  0.76146177  0.82412608  0.02161390  1  0.091944  0.00012  0.100843  0.092335  8.3e-05  1.07028  0.0
H  H16  1  0.26508588  0.30501203  0.86665953  1  0.091533  0.000335  0.104614  0.110796  9.3e-05  0.992447  0.0
H  H17  1  0.73491097  0.69498137  0.13333891  1  0.092541  0.000334  0.104598  0.11076  9.3e-05  0.992494  0.0
H  H18  1  0.98528776  0.12749845  0.46702759  1  0.084336  0.001262  0.118221  0.084185  0.000552  1.020561  0.001
H  H19  1  0.01471923  0.87251068  0.53297776  1  0.084193  0.001262  0.118247  0.084227  0.000552  1.020595  0.001
H  H20  1  0.16109969  0.98730768  0.44275693  1  0.123933  0.000693  0.105985  0.11718  0.00012  1.048376  0.0
H  H21  1  0.83890712  0.01270881  0.55724968  1  0.123832  0.000694  0.106  0.117219  0.00012  1.048238  0.0
H  H22  1  0.66912564  0.11323384  0.51760726  1  0.152695  0.000204  0.108329  0.122016  -0.000415  1.040889  0.0
H  H23  1  0.33086649  0.88676782  0.48239477  1  0.15266  0.000204  0.108299  0.122001  -0.000415  1.040864  0.0
H  H24  1  0.63501057  0.30943672  0.57626384  1  0.158775  0.000738  0.110999  0.12704  0.00014  1.043347  0.0
H  H25  1  0.36498935  0.69056038  0.42374009  1  0.158765  0.000739  0.110967  0.127068  0.000141  1.043359  0.0
H  H26  1  0.43694375  0.43480338  0.59569251  1  0.119416  0.001194  0.120479  0.093259  0.000313  0.99787  0.0
H  H27  1  0.56305620  0.56519369  0.40431796  1  0.119402  0.001195  0.120486  0.09322  0.000314  0.99788  0.0
H  H28  1  0.99734270  0.52781552  0.77731623  1  0.121715  0.000632  0.125818  0.056159  6.2e-05  1.004838  0.0
H  H29  1  0.00267091  0.47218172  0.22267659  1  0.121891  0.000631  0.125853  0.056228  6.2e-05  1.004794  0.0
H  H30  1  0.73926756  0.63085403  0.61578113  1  0.085689  0.000422  0.115157  0.135056  -0.000232  1.014676  0.0
H  H31  1  0.26074131  0.36913574  0.38422630  1  0.085093  0.000422  0.115191  0.135093  -0.000232  1.014674  0.0
H  H32  1  0.83764933  0.78509963  0.69197910  1  0.031769  0.000453  0.104165  0.119065  0.000219  0.993338  0.0
H  H33  1  0.16235842  0.21489569  0.30802003  1  0.031817  0.000453  0.104156  0.11905  0.000219  0.993339  0.0
H  H34  1  0.63469813  0.68489564  0.70204939  1  0.082048  0.000574  0.102261  0.117931  0.000291  1.014395  0.0
H  H35  1  0.36530876  0.31509782  0.29795522  1  0.082017  0.000574  0.102254  0.117946  0.000291  1.014347  0.0
H  H36  1  0.99205398  0.67217805  0.88973516  1  0.042273  0.00011  0.110977  0.125462  1.2e-05  0.983043  0.0
H  H37  1  0.00796273  0.32782285  0.11026708  1  0.042402  0.00011  0.111002  0.125491  1.2e-05  0.982954  0.0
H  H38  1  0.80987504  0.72797447  0.87449733  1  0.069421  0.000382  0.10304  0.115823  0.000248  1.011466  0.0
H  H39  1  0.19015169  0.27202649  0.12551043  1  0.070015  0.000382  0.103004  0.115792  0.000248  1.011605  0.0
H  H40  1  0.01482839  0.80999235  0.85570066  1  0.061753  0.000638  0.101648  0.117407  0.000419  1.015628  0.0
H  H41  1  0.98518315  0.19000298  0.14430536  1  0.061792  0.000638  0.101572  0.117344  0.000419  1.015615  0.0
C  C42  1  0.78124820  0.34132271  0.39129279  1  1.560433  0.045354  0.219569  0.582118  0.043262  4.186455  0.035
C  C43  1  0.21875594  0.65867814  0.60870042  1  1.560599  0.045353  0.219675  0.582146  0.043262  4.186921  0.035
C  C44  1  0.70618330  0.26395872  0.29244594  1  -0.061814  0.01315  -0.019444  -0.04996  0.009657  3.970012  0.006
C  C45  1  0.29381101  0.73603469  0.70754638  1  -0.061812  0.013148  -0.019386  -0.049745  0.009655  3.969814  0.006
C  C46  1  0.64327578  0.31405751  0.22361252  1  0.006221  0.009561  -0.085879  -0.106865  0.007357  3.996071  0.005
C  C47  1  0.35672703  0.68594056  0.77638140  1  0.006272  0.009563  -0.085989  -0.10703  0.00736  3.996238  0.005
C  C48  1  0.57998564  0.24305722  0.13126924  1  -0.023729  0.009153  -0.083753  -0.149769  0.007222  3.966165  0.005
C  C49  1  0.42000915  0.75693709  0.86872916  1  -0.023684  0.009153  -0.083735  -0.14982  0.007222  3.966101  0.005
C  C50  1  0.57601078  0.12015656  0.10554645  1  0.322637  0.009146  0.087337  0.166024  0.008475  4.064621  0.005
C  C51  1  0.42398492  0.87983960  0.89445366  1  0.322725  0.009147  0.087399  0.166045  0.008476  4.064646  0.005
C  C52  1  0.63968638  0.06969615  0.17444050  1  0.012739  0.005829  -0.084319  -0.146566  0.004427  3.947642  0.003
C  C53  1  0.36030305  0.93029997  0.82555902  1  0.012849  0.005825  -0.084247  -0.146343  0.004424  3.947658  0.003
C  C54  1  0.70375241  0.14123524  0.26640707  1  -0.129603  0.005607  -0.081719  -0.079171  0.003893  3.964014  0.003
C  C55  1  0.29623908  0.85875997  0.73359249  1  -0.130062  0.005608  -0.081731  -0.079237  0.003894  3.963723  0.003
C  C56  1  0.84430577  0.10134722  0.76353021  1  -0.053109  0.002896  -0.082518  -0.089435  0.002128  3.967679  0.002
C  C57  1  0.15568936  0.89865816  0.23646555  1  -0.052989  0.002896  -0.082499  -0.08952  0.002128  3.967832  0.002
C  C58  1  0.82728737  0.03226760  0.82632545  1  -0.088029  0.000804  -0.082876  -0.140114  0.000631  3.949363  0.0
C  C59  1  0.17269765  0.96773496  0.17366692  1  -0.088408  0.000804  -0.082881  -0.140185  0.000631  3.949615  0.0
C  C60  1  0.96861056  0.06054994  0.90454613  1  0.369544  0.001933  0.085373  0.164087  0.001711  4.03809  0.001
C  C61  1  0.03137472  0.93944802  0.09544416  1  0.36976  0.001934  0.085372  0.163921  0.001711  4.038248  0.001
C  C62  1  0.12870434  0.15831189  0.91904693  1  -0.025357  0.000705  -0.085007  -0.146004  0.000505  3.968743  0.0
C  C63  1  0.87129489  0.84167878  0.08094799  1  -0.025644  0.000704  -0.08495  -0.14567  0.000504  3.968748  0.0
C  C64  1  0.14373284  0.22801462  0.85692916  1  -0.079336  0.002216  -0.083852  -0.087805  0.001597  3.974791  0.001
C  C65  1  0.85626134  0.77198614  0.14307160  1  -0.080476  0.002217  -0.083811  -0.087844  0.001598  3.97483  0.001
C  C66  1  0.12970760  0.16277199  0.49148317  1  0.504507  0.008735  0.044363  0.085205  0.006862  3.981871  0.006
C  C67  1  0.87029923  0.83723159  0.50852580  1  0.504313  0.008735  0.044355  0.085201  0.006861  3.98211  0.006
C  C68  1  0.22802309  0.08557597  0.47880183  1  -0.011461  7.7e-05  -0.086224  -0.187347  -0.000556  3.929281  0.0
C  C69  1  0.77198764  0.91443318  0.52120257  1  -0.011599  7.8e-05  -0.086274  -0.187482  -0.000555  3.929145  0.0
C  C70  1  0.41470641  0.13621546  0.51169344  1  -0.137245  0.008614  0.010293  0.160187  0.00657  4.001387  0.005
C  C71  1  0.58529903  0.86378537  0.48830707  1  -0.136468  0.008613  0.010384  0.160395  0.006569  4.001313  0.005
C  C72  1  0.52867021  0.06179315  0.50665815  1  -0.148343  0.004678  -0.082627  -0.126509  0.003659  3.939445  0.002
C  C73  1  0.47132584  0.93820117  0.49334102  1  -0.052011  0.00464  -0.082593  -0.12653  0.00366  3.939388  0.002
C  C74  1  0.49133051  0.26496077  0.55207902  1  0.029763  -0.000101  -0.079586  -0.170522  -0.000926  3.890167  0.0
C  C75  1  0.50866870  0.73504000  0.44792678  1  0.028781  -9.9e-05  -0.079631  -0.170689  -0.000924  3.890172  0.0
C  C76  1  0.38238761  0.33509251  0.56313431  1  0.408318  0.009928  0.052269  0.099013  0.007723  3.942451  0.007
C  C77  1  0.61761492  0.66490736  0.43687296  1  0.408694  0.009928  0.052328  0.099046  0.007724  3.94233  0.007
C  C78  1  0.02173596  0.27504078  0.71176529  1  1.559611  0.007932  0.197568  0.547158  0.009223  4.225932  0.006
C  C79  1  0.97825905  0.72497194  0.28824087  1  1.559828  0.007933  0.197509  0.547209  0.009222  4.226372  0.006
C  C80  1  0.91625139  0.54988675  0.72207084  1  1.36534  0.008565  0.182797  0.293663  0.008546  4.083173  0.007
C  C81  1  0.08376480  0.45011327  0.27792008  1  1.365577  0.008565  0.182665  0.293711  0.008545  4.082916  0.007
C  C82  1  0.76220136  0.68882541  0.68623547  1  0.282807  0.000437  -0.131954  -0.266682  0.000242  3.862149  0.0
C  C83  1  0.23780150  0.31117263  0.31376759  1  0.283221  0.000437  -0.131979  -0.266741  0.000242  3.862298  0.0
C  C84  1  0.92301743  0.71744945  0.84830440  1  0.301763  0.000694  -0.131051  -0.276625  0.00076  3.914292  0.0
C  C85  1  0.07699909  0.28254593  0.15169687  1  0.30102  0.000694  -0.130935  -0.276548  0.000759  3.914157  0.0
C  C86  1  0.00229850  0.20012421  0.77870209  1  0.022812  0.000149  -0.012888  -0.016935  -0.000835  3.955083  -0.001
C  C87  1  0.99770005  0.79988303  0.22129824  1  0.022071  0.000147  -0.012852  -0.016884  -0.000836  3.955131  -0.001
N  N88  1  0.93677490  0.98522910  0.96391263  1  -0.486501  0.004984  -0.149965  -0.134386  0.003723  3.290746  0.003
N  N89  1  0.06321322  0.01476704  0.03607566  1  -0.520308  0.004981  -0.149835  -0.133972  0.003722  3.290612  0.003
N  N90  1  0.20383628  0.28533685  0.53446594  1  -1.25567  0.046721  -0.328003  -0.258492  0.030134  3.533641  0.012
N  N91  1  0.79617098  0.71466765  0.46554192  1  -1.255257  0.046729  -0.328024  -0.258393  0.030136  3.533706  0.012
N  N92  1  0.86362632  0.64509721  0.75126789  1  -1.224701  0.00859  -0.277418  0.036686  0.006289  3.724029  0.007
N  N93  1  0.13638224  0.35489719  0.24873247  1  -1.225004  0.008589  -0.277392  0.036672  0.006288  3.724102  0.007
N  N94  1  0.50855466  0.05710569  0.01043499  1  -0.509574  0.036387  -0.159249  -0.151785  0.027317  3.297133  0.024
N  N95  1  0.49143336  0.94288487  0.98956736  1  -0.480835  0.036404  -0.15935  -0.151901  0.027315  3.297242  0.024
O  O96  1  0.84619909  0.29350542  0.44977643  1  -1.19489  0.095097  -0.305212  -0.548001  0.068219  2.334996  0.052
O  O97  1  0.15378617  0.70650264  0.55022541  1  -1.194643  0.095105  -0.305236  -0.548013  0.068218  2.335332  0.052
O  O98  1  0.87932735  0.48864536  0.63835186  1  -1.184276  0.050511  -0.286626  -0.452134  0.034564  2.411251  0.02
O  O99  1  0.12068296  0.51135277  0.36164211  1  -1.184237  0.050514  -0.286583  -0.452257  0.034565  2.411075  0.02
O  O100  1  0.91143638  0.23004812  0.63099483  1  -1.192294  0.051734  -0.312992  -0.561033  0.03651  2.277539  0.026
O  O101  1  0.08854606  0.76997465  0.36901385  1  -1.192015  0.051722  -0.31295  -0.56102  0.0365  2.277719  0.026
O  O102  1  0.14452160  0.37981979  0.73471526  1  -1.198189  0.045117  -0.318494  -0.569904  0.033123  2.162382  0.027
O  O103  1  0.85548847  0.62018293  0.26528274  1  -1.197974  0.045108  -0.31846  -0.56989  0.03312  2.162637  0.027
O  O104  1  0.77791980  0.45157658  0.41218919  1  -1.205566  0.069918  -0.321789  -0.581557  0.047106  2.377067  0.025
O  O105  1  0.22209071  0.54842707  0.58780771  1  -1.206147  0.069917  -0.32182  -0.581637  0.047098  2.377162  0.025
