# generated using pymatgen
data_CuH15C16(NO)5
_symmetry_space_group_name_H-M   'P 1'
_cell_length_a   6.19908052
_cell_length_b   11.64424791
_cell_length_c   23.56960651
_cell_angle_alpha   96.57308848
_cell_angle_beta   90.01101847
_cell_angle_gamma   89.97952001
_symmetry_Int_Tables_number   1
_chemical_formula_structural   CuH15C16(NO)5
_chemical_formula_sum   'Cu4 H60 C64 N20 O20'
_cell_volume   1690.15611935
_cell_formula_units_Z   4
loop_
 _symmetry_equiv_pos_site_id
 _symmetry_equiv_pos_as_xyz
  1  'x, y, z'
loop_
 _atom_site_type_symbol
 _atom_site_label
 _atom_site_symmetry_multiplicity
 _atom_site_fract_x
 _atom_site_fract_y
 _atom_site_fract_z
 _atom_site_occupancy
 _atom_site_pbe_bader_charge
 _atom_site_pbe_bader_spin_density
 _atom_site_pbe_cm5_charge
 _atom_site_pbe_ddec_charge
 _atom_site_pbe_ddec_spin_density
 _atom_site_pbe_ddec_sum_bond_order
 _atom_site_pbe_magmom
Cu  Cu0  1  0.75882521  0.76409175  0.84947726  1  1.050221  0.562459  0.735926  0.755158  0.775675  2.216517  0.562
Cu  Cu1  1  0.25870710  0.73592771  0.65059957  1  1.050778  -0.562582  0.736208  0.755903  -0.735729  2.21681  -0.562
Cu  Cu2  1  0.24114832  0.23589697  0.15052418  1  1.050461  -0.562946  0.73593  0.754753  -0.736371  2.217074  -0.562
Cu  Cu3  1  0.74138740  0.26407829  0.34937570  1  1.050563  -0.562956  0.736074  0.755982  -0.736223  2.216647  -0.562
H  H4  1  0.80676891  0.26730837  0.02340260  1  0.562595  3.2e-05  0.30648  0.290691  7e-06  0.98697  0.0
H  H5  1  0.30710725  0.23282349  0.47661789  1  0.552833  4e-05  0.306428  0.290504  1.3e-05  0.986808  0.0
H  H6  1  0.19318687  0.73270283  0.97660309  1  0.555582  -3.2e-05  0.30652  0.290744  -1e-06  0.987013  0.0
H  H7  1  0.69293725  0.76717819  0.52337963  1  0.552686  3.9e-05  0.306252  0.290255  1e-05  0.987004  0.0
H  H8  1  0.38043486  0.01137190  0.91815114  1  0.534319  0.000246  0.307345  0.262992  0.000169  1.01235  0.0
H  H9  1  0.88061348  0.48873309  0.58189010  1  0.5351  -0.000245  0.307308  0.263098  -0.000153  1.012022  0.0
H  H10  1  0.61951607  0.98864535  0.08184853  1  0.534127  -0.000263  0.307363  0.263185  -0.000218  1.012244  0.0
H  H11  1  0.11941650  0.51127551  0.41810356  1  0.535007  -0.00026  0.307328  0.263071  -0.000212  1.012089  0.0
H  H12  1  0.49814616  0.16695478  0.99232004  1  0.221502  -9e-05  0.132284  0.092877  -0.000111  1.0459  0.0
H  H13  1  0.99837100  0.33311736  0.50774242  1  0.22279  -7.6e-05  0.132376  0.092936  -0.000103  1.045648  0.0
H  H14  1  0.50181122  0.83306420  0.00767463  1  0.221709  9e-05  0.132229  0.09271  0.000121  1.045981  0.0
H  H15  1  0.00164930  0.66689383  0.49224120  1  0.242946  -7.4e-05  0.132379  0.092857  -0.000102  1.045804  0.0
H  H16  1  0.22268964  0.84240343  0.85600058  1  0.199005  0.0002  0.138423  0.105064  -3e-05  1.03756  0.0
H  H17  1  0.72265616  0.65761779  0.64409608  1  0.198373  -0.0002  0.138493  0.105166  4.2e-05  1.037279  0.0
H  H18  1  0.77728872  0.15760689  0.14400378  1  0.199312  -0.00035  0.138373  0.104976  -9.6e-05  1.037542  0.0
H  H19  1  0.27734640  0.34238216  0.35590260  1  0.198573  -0.000348  0.13842  0.10512  -9.5e-05  1.037187  0.0
H  H20  1  0.38113840  0.50458854  0.83048476  1  0.104727  0.004238  0.107371  0.109908  0.002413  1.007479  0.002
H  H21  1  0.88075103  0.99552185  0.66945078  1  0.10271  -0.004256  0.107398  0.110055  -0.002301  1.006838  -0.002
H  H22  1  0.61887062  0.49539586  0.16950371  1  0.062231  -0.004337  0.107296  0.109786  -0.002303  1.00705  -0.002
H  H23  1  0.11923702  0.00443661  0.33052392  1  0.101811  -0.004262  0.107355  0.110043  -0.002304  1.007479  -0.002
H  H24  1  0.36715408  0.63556060  0.79814665  1  0.100646  0.00024  0.119087  0.132586  -8e-06  0.992083  0.0
H  H25  1  0.86672958  0.86461783  0.70187320  1  0.102264  -0.000238  0.119109  0.13238  1.3e-05  0.991653  0.0
H  H26  1  0.63279848  0.36441515  0.20185321  1  0.100545  -0.000176  0.119035  0.132484  7.8e-05  0.991917  0.0
H  H27  1  0.13327137  0.13532680  0.29810750  1  0.101641  -0.000174  0.119343  0.132771  7.9e-05  0.991544  0.0
H  H28  1  0.78727984  0.47979723  0.75175970  1  0.065534  0.003764  0.109725  0.114685  0.002078  1.008304  0.002
H  H29  1  0.28678111  0.02028636  0.74831086  1  0.065522  -0.003778  0.109556  0.114518  -0.001983  1.007483  -0.002
H  H30  1  0.21262914  0.52023299  0.24822628  1  0.065766  -0.003854  0.10977  0.114767  -0.002018  1.00774  -0.002
H  H31  1  0.71310210  0.97968507  0.25170021  1  0.064877  -0.003866  0.109698  0.114733  -0.002022  1.007801  -0.002
H  H32  1  0.61983520  0.59669741  0.73637205  1  0.124459  5.9e-05  0.120118  0.13513  -9.9e-05  1.007414  0.0
H  H33  1  0.11949132  0.90332824  0.76369306  1  0.122063  -5.9e-05  0.119916  0.134447  0.0001  1.007506  0.0
H  H34  1  0.38021734  0.40336911  0.26362531  1  0.124742  1.4e-05  0.120078  0.135158  0.000121  1.00723  0.0
H  H35  1  0.88048225  0.09655328  0.23629468  1  0.121133  1.5e-05  0.120059  0.134546  0.000122  1.00738  0.0
H  H36  1  0.96888733  0.54603044  0.86228043  1  0.111989  0.00144  0.107273  0.102063  0.000753  1.026222  0.001
H  H37  1  0.46855085  0.95387143  0.63781195  1  0.113527  -0.001438  0.107304  0.101801  -0.000703  1.026006  -0.001
H  H38  1  0.03110231  0.45400150  0.13772431  1  0.112029  -0.00144  0.107213  0.101987  -0.000704  1.026221  -0.001
H  H39  1  0.53144525  0.04615359  0.36219961  1  0.11326  -0.001438  0.107295  0.101784  -0.000703  1.026059  -0.001
H  H40  1  0.74140072  0.55421740  0.90703323  1  0.067114  0.000618  0.120685  0.120883  0.00014  0.959799  0.0
H  H41  1  0.24111995  0.94577389  0.59303026  1  0.066969  -0.000627  0.120678  0.120747  -0.000132  0.959335  0.0
H  H42  1  0.25855666  0.44581281  0.09296590  1  0.066986  -0.000617  0.120682  0.120835  -0.000123  0.959474  0.0
H  H43  1  0.75891970  0.05426150  0.40697255  1  0.066786  -0.000625  0.120697  0.120739  -0.000131  0.959616  0.0
H  H44  1  0.46473278  0.38913204  0.89741192  1  0.073502  0.000351  0.106825  0.114742  0.000211  0.991135  0.0
H  H45  1  0.96440823  0.11103655  0.60266311  1  0.07368  -0.000349  0.10684  0.114655  -0.000201  0.991208  0.0
H  H46  1  0.53526816  0.61088866  0.10259643  1  0.073099  -0.000353  0.106858  0.1149  -0.000197  0.991204  0.0
H  H47  1  0.03557982  0.88898242  0.39735745  1  0.072915  -0.000351  0.106882  0.114759  -0.000198  0.991221  0.0
H  H48  1  0.39702191  0.18330411  0.86572566  1  0.079723  -1.1e-05  0.098078  0.093535  -3.2e-05  1.024802  0.0
H  H49  1  0.89691352  0.31691481  0.63431847  1  0.063896  1.3e-05  0.098052  0.09334  3.3e-05  1.024897  0.0
H  H50  1  0.60298709  0.81672351  0.13427841  1  0.079556  -8e-05  0.098046  0.09348  -3.9e-05  1.02456  0.0
H  H51  1  0.10308903  0.68311194  0.36568768  1  0.064057  -8e-05  0.098077  0.093306  -4e-05  1.025194  0.0
H  H52  1  0.66111644  0.06717965  0.80390887  1  0.074304  -0.000103  0.095351  0.104326  -6.6e-05  1.035913  0.0
H  H53  1  0.16119264  0.43289495  0.69611570  1  0.118092  0.000102  0.095368  0.104321  7.7e-05  1.036177  0.0
H  H54  1  0.33888289  0.93283413  0.19609824  1  0.074027  -0.000293  0.095334  0.104215  -0.000214  1.035975  0.0
H  H55  1  0.83883411  0.56713007  0.30388653  1  0.072968  -0.000293  0.095375  0.10434  -0.000213  1.036018  0.0
H  H56  1  0.99331326  0.16353455  0.77055755  1  0.069905  4.1e-05  0.094637  0.091916  1.7e-05  1.026498  0.0
H  H57  1  0.49326864  0.33632835  0.72952257  1  0.069722  -4.1e-05  0.094642  0.091717  -1.4e-05  1.026578  0.0
H  H58  1  0.00671996  0.83647490  0.22947138  1  0.069991  -9e-05  0.094609  0.091793  -2.4e-05  1.026339  0.0
H  H59  1  0.50670651  0.66368284  0.27050561  1  0.066089  -9e-05  0.094616  0.091836  -2.3e-05  1.026428  0.0
H  H60  1  0.05598163  0.37085881  0.80004607  1  0.067767  0.000296  0.095266  0.091588  0.000183  1.036007  0.0
H  H61  1  0.55570118  0.12894827  0.70005703  1  0.0701  -0.000295  0.095168  0.091611  -0.000173  1.035968  0.0
H  H62  1  0.94405159  0.62914632  0.19997921  1  0.067887  -0.000329  0.095222  0.091563  -0.000194  1.035958  0.0
H  H63  1  0.44424171  0.87105600  0.29998348  1  0.069472  -0.000329  0.095137  0.091526  -0.000194  1.036161  0.0
C  C64  1  0.65193033  0.13260577  0.97510650  1  1.059558  -0.000539  0.181589  0.237241  -0.000434  3.971358  0.0
C  C65  1  0.15216476  0.36748160  0.52494515  1  1.059525  0.000155  0.181793  0.237064  9.9e-05  3.96991  0.0
C  C66  1  0.34801899  0.86740975  0.02489137  1  1.059865  0.000439  0.181811  0.237562  0.000394  3.970757  0.0
C  C67  1  0.84786199  0.63253219  0.47504414  1  1.03913  5.7e-05  0.181928  0.237329  2.5e-05  3.970071  0.0
C  C68  1  0.85452780  0.00170054  0.92136641  1  0.975718  0.001116  0.209098  0.294127  0.001391  4.076073  0.001
C  C69  1  0.35466448  0.49837338  0.57869408  1  0.977279  -0.001115  0.209257  0.294606  -0.001261  4.077594  -0.001
C  C70  1  0.14542475  0.99830979  0.07863457  1  0.976775  -0.001231  0.208956  0.294174  -0.001339  4.077352  -0.001
C  C71  1  0.64535582  0.50163349  0.42129864  1  0.977027  -0.001224  0.209023  0.294039  -0.00133  4.076884  -0.001
C  C72  1  0.04408933  0.06282408  0.93747956  1  0.32275  0.002922  0.079038  -0.078209  0.002187  3.987676  0.002
C  C73  1  0.54424149  0.43728929  0.56255004  1  0.323474  -0.002973  0.078709  -0.078707  -0.002101  3.987583  -0.002
C  C74  1  0.95589226  0.93718971  0.06251906  1  0.321833  -0.002989  0.078996  -0.078209  -0.002092  3.98747  -0.002
C  C75  1  0.45574009  0.56272536  0.43744312  1  0.323662  -0.003031  0.078759  -0.078717  -0.002115  3.987995  -0.002
C  C76  1  0.04016387  0.17076457  0.97354004  1  1.386841  0.000476  0.225334  0.44761  0.000363  4.194375  0.0
C  C77  1  0.54046901  0.32936848  0.52645530  1  1.386258  -0.000416  0.225205  0.447639  -0.000265  4.193475  0.0
C  C78  1  0.95979029  0.82926046  0.02645286  1  1.386641  -0.000511  0.225004  0.44725  -0.000358  4.193945  0.0
C  C79  1  0.45954967  0.67064617  0.47353489  1  1.386791  -0.00045  0.225421  0.448044  -0.00028  4.194319  0.0
C  C80  1  0.12587743  0.90669479  0.88090655  1  0.999526  -0.001637  0.158256  0.185791  -0.000805  3.907675  -0.001
C  C81  1  0.62595094  0.59336092  0.61916815  1  0.998468  0.001621  0.158371  0.185815  0.000941  3.908208  0.001
C  C82  1  0.87407028  0.09331899  0.11909504  1  0.99847  0.001286  0.158515  0.186061  0.000614  3.907626  0.001
C  C83  1  0.37408226  0.40664940  0.38082815  1  0.998656  0.001277  0.15819  0.185531  0.000609  3.907462  0.001
C  C84  1  0.44482798  0.59291453  0.83209944  1  0.204442  0.00023  -0.078816  -0.251007  0.001132  3.894058  -0.002
C  C85  1  0.94455136  0.90712371  0.66788131  1  0.202996  -0.000231  -0.078598  -0.250563  -0.000898  3.894304  0.002
C  C86  1  0.55511006  0.40704826  0.16788229  1  0.247647  -0.00011  -0.07867  -0.250836  -0.00085  3.893814  0.002
C  C87  1  0.05548670  0.09281055  0.33208863  1  0.203559  -0.000187  -0.07891  -0.251408  -0.000851  3.89468  0.002
C  C88  1  0.39330820  0.66388569  0.88908089  1  1.574226  -0.000545  0.203873  0.581554  0.001141  4.189647  0.0
C  C89  1  0.89312688  0.83607045  0.61092321  1  1.573788  0.000532  0.203396  0.580916  -0.000917  4.192  0.0
C  C90  1  0.60663791  0.33606845  0.11091181  1  1.573586  0.000553  0.203466  0.581029  -0.000887  4.190524  0.0
C  C91  1  0.10694183  0.16385948  0.38905412  1  1.574048  0.000554  0.20418  0.582076  -0.000884  4.190739  0.0
C  C92  1  0.75030462  0.57158921  0.76396584  1  0.233606  0.000428  -0.079495  -0.252548  0.00152  3.884556  -0.002
C  C93  1  0.24997996  0.92841441  0.73608811  1  0.234606  -0.00042  -0.079021  -0.251691  -0.001257  3.88391  0.002
C  C94  1  0.24966890  0.42840729  0.23602374  1  0.233365  -0.000433  -0.07951  -0.252772  -0.001341  3.884085  0.002
C  C95  1  0.75001940  0.07150947  0.26390118  1  0.235537  -0.000422  -0.079304  -0.25205  -0.001343  3.883599  0.002
C  C96  1  0.94306070  0.64665123  0.75217855  1  1.576368  0.0017  0.205194  0.609579  0.002628  4.163185  0.002
C  C97  1  0.44289074  0.85340802  0.74789156  1  1.581313  -0.001704  0.204833  0.609725  -0.00236  4.164372  -0.002
C  C98  1  0.05699026  0.35331846  0.24783030  1  1.577558  -0.001124  0.205504  0.610305  -0.001963  4.162964  -0.001
C  C99  1  0.55716989  0.14657810  0.25209022  1  1.583237  -0.001117  0.20501  0.609829  -0.001958  4.16351  -0.001
C  C100  1  0.79712525  0.52398017  0.86365718  1  0.200696  0.000825  -0.071864  -0.143929  0.001487  3.859967  -0.001
C  C101  1  0.29677969  0.97601727  0.63642126  1  0.20013  -0.000824  -0.071655  -0.143338  -0.001269  3.858961  0.001
C  C102  1  0.20287246  0.47605090  0.13635006  1  0.20128  -0.00083  -0.071805  -0.143883  -0.001281  3.859775  0.001
C  C103  1  0.70321319  0.02400602  0.36359063  1  0.200646  -0.000828  -0.071693  -0.143482  -0.001276  3.859261  0.001
C  C104  1  0.76202121  0.39600910  0.84922409  1  -0.002929  0.005533  -0.018621  0.092878  0.004105  3.96572  0.004
C  C105  1  0.26176618  0.10397759  0.65083655  1  -0.000109  -0.005519  -0.018366  0.093198  -0.003884  3.966255  -0.004
C  C106  1  0.23798941  0.60400641  0.15078354  1  -0.00238  -0.005543  -0.018511  0.093009  -0.003891  3.966136  -0.004
C  C107  1  0.73822025  0.89603100  0.34918341  1  -0.000443  -0.005532  -0.018306  0.093519  -0.003885  3.965729  -0.004
C  C108  1  0.57835271  0.34104448  0.86827309  1  -0.089272  0.00228  -0.092046  -0.140237  0.001556  3.963161  0.001
C  C109  1  0.07813178  0.15905448  0.63178721  1  -0.090593  -0.002272  -0.091724  -0.139618  -0.001471  3.96307  -0.001
C  C110  1  0.42164985  0.65897190  0.13173501  1  -0.089057  -0.002306  -0.0921  -0.140562  -0.001478  3.963689  -0.001
C  C111  1  0.92185626  0.84096189  0.36822980  1  -0.089993  -0.002306  -0.091904  -0.140141  -0.001476  3.963525  -0.001
C  C112  1  0.54159002  0.22407239  0.85104437  1  -0.05573  -0.000261  -0.093925  -0.074872  -0.00019  4.019347  0.0
C  C113  1  0.04148679  0.27605784  0.64900856  1  -0.040293  0.00026  -0.094285  -0.07519  0.000219  4.019355  0.0
C  C114  1  0.45840931  0.77594485  0.14896506  1  -0.056273  0.000168  -0.093888  -0.074614  0.000109  4.019061  0.0
C  C115  1  0.95851415  0.72396027  0.35100346  1  -0.040767  0.00017  -0.094255  -0.074908  0.000115  4.019993  0.0
C  C116  1  0.68985241  0.15922722  0.81595180  1  -0.038432  0.002026  -0.097659  -0.092898  0.001346  3.999574  0.001
C  C117  1  0.18983616  0.34083043  0.68409378  1  -0.081694  -0.002012  -0.097647  -0.092957  -0.001264  3.999843  -0.001
C  C118  1  0.31014853  0.84078743  0.18405663  1  -0.037906  -0.002556  -0.097684  -0.093059  -0.001693  3.999511  -0.001
C  C119  1  0.81017769  0.65919459  0.31591948  1  -0.036401  -0.002554  -0.097628  -0.09299  -0.001692  3.999982  -0.001
C  C120  1  0.87542062  0.21252120  0.79788420  1  -0.04167  -0.000329  -0.097036  -0.08233  -0.000201  4.018142  0.0
C  C121  1  0.37531175  0.28741521  0.70218844  1  -0.041622  0.000327  -0.097033  -0.08185  0.000223  4.018023  0.0
C  C122  1  0.12460937  0.78748998  0.20213633  1  -0.042277  0.000188  -0.096839  -0.081898  0.000153  4.017696  0.0
C  C123  1  0.62465855  0.71259771  0.29783771  1  -0.037929  0.00019  -0.09702  -0.08197  0.000153  4.018343  0.0
C  C124  1  0.91046801  0.33004433  0.81436258  1  -0.109668  0.002226  -0.095302  -0.139951  0.001464  3.988388  0.001
C  C125  1  0.41023927  0.16986024  0.68571649  1  -0.113748  -0.002217  -0.095429  -0.140643  -0.001385  3.988238  -0.001
C  C126  1  0.08955875  0.66996772  0.18565589  1  -0.109808  -0.00234  -0.095428  -0.140132  -0.001459  3.98844  -0.001
C  C127  1  0.58971491  0.83014403  0.31431299  1  -0.112313  -0.00234  -0.095297  -0.140541  -0.001459  3.988578  -0.001
N  N128  1  0.82800222  0.19596178  0.99197856  1  -1.286216  -0.000209  -0.367363  -0.31812  -0.000144  3.551709  0.0
N  N129  1  0.32829831  0.30414601  0.50803396  1  -1.275107  0.000123  -0.367538  -0.317519  8.3e-05  3.550691  0.0
N  N130  1  0.17195194  0.80404769  0.00801473  1  -1.278452  0.000203  -0.367171  -0.3179  0.000167  3.55141  0.0
N  N131  1  0.67173005  0.69585568  0.49194913  1  -1.275072  0.000116  -0.367488  -0.317524  7.7e-05  3.55097  0.0
N  N132  1  0.65333041  0.03636883  0.93945409  1  -1.26536  0.001183  -0.322252  -0.368824  0.000775  3.35344  0.001
N  N133  1  0.15352479  0.46369064  0.56061046  1  -1.266411  -0.001269  -0.322286  -0.368818  -0.000757  3.35437  -0.001
N  N134  1  0.34660278  0.96363977  0.06054424  1  -1.266791  -0.001286  -0.322404  -0.369  -0.000785  3.353842  -0.001
N  N135  1  0.84652132  0.53631537  0.43937881  1  -1.266645  -0.001362  -0.322379  -0.369062  -0.000808  3.354296  -0.001
N  N136  1  0.21263831  0.00039437  0.91114375  1  -1.282474  0.001603  -0.358803  -0.200864  0.001043  3.644166  0.001
N  N137  1  0.71278767  0.49971734  0.58890371  1  -1.28365  -0.001608  -0.358609  -0.200699  -0.00096  3.643501  -0.001
N  N138  1  0.78732069  0.99963065  0.08885933  1  -1.281768  -0.002117  -0.358913  -0.201226  -0.001341  3.644093  -0.002
N  N139  1  0.28722778  0.50030423  0.41109536  1  -1.283495  -0.002118  -0.358628  -0.200478  -0.001342  3.643876  -0.002
N  N140  1  0.91013395  0.90365514  0.88553341  1  -1.169856  0.055398  -0.370934  -0.368972  0.040067  3.502617  0.047
N  N141  1  0.41021908  0.59634654  0.61453761  1  -1.171276  -0.05543  -0.371041  -0.369448  -0.03803  3.503542  -0.047
N  N142  1  0.08980409  0.09633099  0.11446110  1  -1.169854  -0.055377  -0.370766  -0.368837  -0.037955  3.502849  -0.047
N  N143  1  0.58983187  0.40363526  0.38544774  1  -1.171577  -0.055363  -0.370698  -0.368909  -0.037945  3.502422  -0.047
N  N144  1  0.67994222  0.59538163  0.82376525  1  -0.97442  0.124453  -0.346016  -0.047331  0.087242  3.56725  0.107
N  N145  1  0.17958279  0.90460535  0.67629590  1  -0.973064  -0.124447  -0.346734  -0.048183  -0.082757  3.569375  -0.107
N  N146  1  0.32003615  0.40460190  0.17623336  1  -0.975266  -0.124335  -0.346083  -0.046928  -0.082693  3.567145  -0.107
N  N147  1  0.82042301  0.09534533  0.32369533  1  -0.972901  -0.124376  -0.346774  -0.047941  -0.082731  3.569191  -0.107
O  O148  1  0.19272255  0.23615818  0.98831481  1  -1.141514  0.001983  -0.301998  -0.469795  0.001368  2.110722  0.002
O  O149  1  0.69313783  0.26399838  0.51164400  1  -1.141334  -0.001716  -0.301667  -0.469775  -0.001075  2.110077  -0.002
O  O150  1  0.80720256  0.76386426  0.01166818  1  -1.14107  -0.002072  -0.301847  -0.469684  -0.001349  2.109804  -0.002
O  O151  1  0.30691473  0.73600503  0.48834555  1  -1.141661  -0.001801  -0.301848  -0.469947  -0.001122  2.111057  -0.002
O  O152  1  0.51682342  0.75200335  0.90312984  1  -1.109082  0.093723  -0.323362  -0.53033  0.064552  2.327839  0.085
O  O153  1  0.01683065  0.74799904  0.59691403  1  -1.109134  -0.093696  -0.323322  -0.530245  -0.061165  2.329311  -0.085
O  O154  1  0.48308073  0.24799056  0.09686044  1  -1.109364  -0.093609  -0.323003  -0.529863  -0.061108  2.328914  -0.085
O  O155  1  0.98329451  0.25196633  0.40306446  1  -1.108013  -0.093676  -0.323891  -0.531011  -0.061142  2.328966  -0.085
O  O156  1  0.23519554  0.63731545  0.91787661  1  -1.161736  0.018767  -0.29814  -0.503153  0.012614  2.14916  0.015
O  O157  1  0.73488781  0.86256452  0.58212432  1  -1.161211  -0.018798  -0.297885  -0.502829  -0.011958  2.149684  -0.015
O  O158  1  0.76482640  0.36262311  0.08213472  1  -1.16115  -0.018724  -0.298097  -0.503011  -0.011908  2.14909  -0.015
O  O159  1  0.26512607  0.13735244  0.41786925  1  -1.162082  -0.018793  -0.298181  -0.503324  -0.011956  2.149414  -0.015
O  O160  1  0.98638458  0.73314185  0.78990375  1  -1.12883  0.08865  -0.328749  -0.555759  0.061316  2.354142  0.081
O  O161  1  0.48622167  0.76690834  0.71017697  1  -1.131933  -0.088564  -0.328541  -0.555872  -0.058056  2.354708  -0.081
O  O162  1  0.01371157  0.26682178  0.21011792  1  -1.128665  -0.088259  -0.328892  -0.556095  -0.057794  2.354978  -0.08
O  O163  1  0.51390830  0.23313138  0.28978536  1  -1.133175  -0.088226  -0.328674  -0.555996  -0.057759  2.354173  -0.08
O  O164  1  0.04374798  0.62357637  0.70630930  1  -1.183856  0.024379  -0.314984  -0.547852  0.016405  2.235394  0.019
O  O165  1  0.54364468  0.87654164  0.79375453  1  -1.184894  -0.024357  -0.314889  -0.548065  -0.01555  2.23581  -0.019
O  O166  1  0.95634170  0.37640023  0.29370929  1  -1.184976  -0.021598  -0.315018  -0.548071  -0.014018  2.235252  -0.018
O  O167  1  0.45637239  0.12345918  0.20623700  1  -1.1848  -0.021556  -0.314831  -0.547868  -0.013984  2.235893  -0.018
