# generated using pymatgen
data_Cd3H26C44Br4(N4O9)2
_symmetry_space_group_name_H-M   'P 1'
_cell_length_a   8.67043069
_cell_length_b   10.21696337
_cell_length_c   14.75877573
_cell_angle_alpha   75.44749052
_cell_angle_beta   90.36308397
_cell_angle_gamma   72.27891718
_symmetry_Int_Tables_number   1
_chemical_formula_structural   Cd3H26C44Br4(N4O9)2
_chemical_formula_sum   'Cd3 H26 C44 Br4 N8 O18'
_cell_volume   1200.54840391
_cell_formula_units_Z   1
loop_
 _symmetry_equiv_pos_site_id
 _symmetry_equiv_pos_as_xyz
  1  'x, y, z'
loop_
 _atom_site_type_symbol
 _atom_site_label
 _atom_site_symmetry_multiplicity
 _atom_site_fract_x
 _atom_site_fract_y
 _atom_site_fract_z
 _atom_site_occupancy
 _atom_site_hle17_bader_spin_density
 _atom_site_hle17_ddec_charge
 _atom_site_hle17_ddec_spin_density
 _atom_site_hle17_ddec_sum_bond_order
 _atom_site_hle17_magmom
 _atom_site_hse06_10hf_bader_spin_density
 _atom_site_hse06_10hf_ddec_charge
 _atom_site_hse06_10hf_ddec_spin_density
 _atom_site_hse06_10hf_ddec_sum_bond_order
 _atom_site_hse06_10hf_magmom
 _atom_site_hse06_bader_spin_density
 _atom_site_hse06_ddec_charge
 _atom_site_hse06_ddec_spin_density
 _atom_site_hse06_ddec_sum_bond_order
 _atom_site_hse06_magmom
 _atom_site_pbe_bader_spin_density
 _atom_site_pbe_cm5_charge
 _atom_site_pbe_ddec_charge
 _atom_site_pbe_ddec_spin_density
 _atom_site_pbe_ddec_sum_bond_order
 _atom_site_pbe_magmom
Cd  Cd0  1  0.50000049  0.00000093  0.49999957  1  0  1.192218  0  1.562146  0  0  0.986632  0  2.002812  0  0  1.045617  0  1.950893  0  0  0.807999  0.943984  0  2.039057  0
Cd  Cd1  1  0.13821419  0.55415056  0.39920977  1  0  1.188933  0  1.659293  0  0  0.999394  0  2.107755  0  0  1.054367  0  2.054966  0  0  0.80156  0.960142  0  2.143984  0
Cd  Cd2  1  0.86178792  0.44584966  0.60078962  1  0  1.188935  0  1.659301  0  0  0.999408  0  2.107748  0  0  1.05438  0  2.054961  0  0  0.801602  0.960196  0  2.143952  0
H  H3  1  0.37626258  0.58390862  0.05112661  1  0  0.339274  0  0.89172  0  0  0.315139  0  0.962346  0  0  0.324459  0  0.953539  0  0  0.319629  0.308503  0  0.968644  0
H  H4  1  0.62373874  0.41609053  0.94887094  1  0  0.339217  0  0.891828  0  0  0.315156  0  0.96238  0  0  0.324428  0  0.953621  0  0  0.319653  0.308552  0  0.968642  0
H  H5  1  0.97331777  0.14110446  0.35806791  1  0  0.386742  0  0.914757  0  0  0.35505  0  0.99447  0  0  0.368692  0  0.981697  0  0  0.290951  0.345576  0  1.003197  0
H  H6  1  0.02668088  0.85889579  0.64193283  1  0  0.386721  0  0.914813  0  0  0.355028  0  0.994529  0  0  0.368671  0  0.981754  0  0  0.290945  0.345576  0  1.003222  0
H  H7  1  0.50974746  0.16020708  0.25243113  1  0  0.39025  0  0.911966  0  0  0.357914  0  0.993134  0  0  0.370469  0  0.979609  0  0  0.297331  0.349067  0  1.001819  0
H  H8  1  0.49025350  0.83979315  0.74756961  1  0  0.390399  0  0.91181  0  0  0.357982  0  0.993121  0  0  0.370538  0  0.979533  0  0  0.297361  0.349141  0  1.001797  0
H  H9  1  0.80999757  0.65760470  0.37817470  1  0  0.416145  0  0.848807  0  0  0.390265  0  0.918454  0  0  0.397867  0  0.911162  0  0  0.303613  0.384833  0  0.92376  0
H  H10  1  0.19000302  0.34239659  0.62182518  1  0  0.416134  0  0.848798  0  0  0.390252  0  0.918449  0  0  0.397853  0  0.911157  0  0  0.303586  0.384828  0  0.923715  0
H  H11  1  0.83745890  0.80302786  0.38199682  1  0  0.437032  0  0.863126  0  0  0.40262  0  0.930159  0  0  0.414297  0  0.913479  0  0  0.293035  0.394452  0  0.941842  0
H  H12  1  0.16254169  0.19697344  0.61800373  1  0  0.437051  0  0.863104  0  0  0.402637  0  0.930138  0  0  0.414314  0  0.913459  0  0  0.293041  0.394465  0  0.941835  0
H  H13  1  0.47953340  0.49144160  0.60031994  1  0  0.098819  0  0.95825  0  0  0.106607  0  1.025168  0  0  0.10903  0  1.024799  0  0  0.10116  0.104877  0  1.025434  0
H  H14  1  0.52046603  0.50855971  0.39968061  1  0  0.098845  0  0.958249  0  0  0.106635  0  1.025165  0  0  0.109058  0  1.024797  0  0  0.101176  0.104957  0  1.025437  0
H  H15  1  0.31016195  0.54215076  0.73066051  1  0  0.106706  0  0.94354  0  0  0.115507  0  1.00559  0  0  0.118151  0  1.005187  0  0  0.100648  0.113543  0  1.005986  0
H  H16  1  0.68983595  0.45785162  0.26933918  1  0  0.106667  0  0.943647  0  0  0.115494  0  1.005658  0  0  0.118139  0  1.005253  0  0  0.10065  0.113576  0  1.006098  0
H  H17  1  0.39783212  0.09081898  0.84634136  1  0  0.114751  0  0.934378  0  0  0.127216  0  0.988833  0  0  0.130401  0  0.987271  0  0  0.108974  0.12499  0  0.990105  0
H  H18  1  0.60216652  0.90918127  0.15365870  1  0  0.11477  0  0.934375  0  0  0.127237  0  0.98883  0  0  0.130421  0  0.987269  0  0  0.108992  0.124984  0  0.990049  0
H  H19  1  0.57018944  0.04120912  0.71793796  1  0  0.10956  0  0.947256  0  0  0.120412  0  1.005841  0  0  0.123517  0  1.004234  0  0  0.109195  0.118189  0  1.007188  0
H  H20  1  0.42981077  0.95879324  0.28206173  1  0  0.109543  0  0.947227  0  0  0.120422  0  1.005779  0  0  0.123531  0  1.004168  0  0  0.109213  0.118163  0  1.00712  0
H  H21  1  0.35484640  0.82056727  0.04460617  1  0  0.104966  0  0.96534  0  0  0.114655  0  1.026721  0  0  0.118052  0  1.024423  0  0  0.101932  0.112191  0  1.028513  0
H  H22  1  0.64515455  0.17943296  0.95539322  1  0  0.104951  0  0.965338  0  0  0.114642  0  1.026715  0  0  0.118036  0  1.02442  0  0  0.101941  0.112203  0  1.028488  0
H  H23  1  0.25033975  0.08289465  0.01492158  1  0  0.094816  0  0.975764  0  0  0.101102  0  1.044129  0  0  0.104666  0  1.042111  0  0  0.090333  0.098496  0  1.045751  0
H  H24  1  0.74966004  0.91710559  0.98507712  1  0  0.094796  0  0.975826  0  0  0.101098  0  1.044168  0  0  0.104663  0  1.042147  0  0  0.090346  0.098501  0  1.045773  0
H  H25  1  0.86334282  0.04457920  0.19137443  1  0  0.118524  0  0.956562  0  0  0.124219  0  1.021379  0  0  0.12822  0  1.018449  0  0  0.10266  0.121358  0  1.023594  0
H  H26  1  0.13665929  0.95542102  0.80862497  1  0  0.118568  0  0.956556  0  0  0.124266  0  1.021357  0  0  0.128267  0  1.018426  0  0  0.102683  0.12141  0  1.023581  0
H  H27  1  0.96967395  0.78322564  0.22421250  1  0  0.102503  0  0.997163  0  0  0.110283  0  1.063663  0  0  0.113426  0  1.061573  0  0  0.097418  0.107971  0  1.06522  0
H  H28  1  0.03032701  0.21677459  0.77578689  1  0  0.1025  0  0.99713  0  0  0.110294  0  1.063616  0  0  0.113436  0  1.061528  0  0  0.097427  0.107994  0  1.065179  0
C  C29  1  0.82055927  0.03697735  0.41428995  1  0  0.643192  0  3.864825  0  0  0.585042  0  4.171397  0  0  0.620107  0  4.162464  0  0  0.223813  0.561377  0  4.17672  0
C  C30  1  0.17944090  0.96302182  0.58571097  1  0  0.643171  0  3.864707  0  0  0.585002  0  4.171305  0  0  0.620067  0  4.162374  0  0  0.223794  0.56132  0  4.17667  0
C  C31  1  0.76835172  0.14021906  0.46990088  1  0  -0.02463  0  3.823899  0  0  -0.032172  0  4.083259  0  0  -0.03551  0  4.106153  0  0  0.064884  -0.029922  0  4.067887  0
C  C32  1  0.23164808  0.85978118  0.53009919  1  0  -0.024593  0  3.82385  0  0  -0.032126  0  4.083198  0  0  -0.035463  0  4.106091  0  0  0.064952  -0.029818  0  4.067807  0
C  C33  1  0.82181300  0.25413321  0.47560876  1  0  0.000951  0  3.796347  0  0  -0.006445  0  4.053384  0  0  -0.007802  0  4.075057  0  0  0.070755  -0.005679  0  4.038978  0
C  C34  1  0.17818680  0.74586703  0.52439130  1  0  0.000946  0  3.796325  0  0  -0.00644  0  4.053346  0  0  -0.007797  0  4.075019  0  0  0.070793  -0.005639  0  4.038893  0
C  C35  1  0.93793507  0.31539356  0.42182884  1  0  0.640775  0  3.919299  0  0  0.5846  0  4.224318  0  0  0.61943  0  4.216012  0  0  0.210871  0.561026  0  4.229177  0
C  C36  1  0.06206320  0.68460775  0.57817171  1  0  0.640721  0  3.919393  0  0  0.584546  0  4.224433  0  0  0.619375  0  4.216127  0  0  0.210837  0.561023  0  4.229203  0
C  C37  1  0.64217114  0.23366123  0.57649142  1  0  0.366223  0  3.743768  0  0  0.334319  0  4.009829  0  0  0.350219  0  4.024234  0  0  0.21774  0.32378  0  3.999609  0
C  C38  1  0.35783099  0.76633899  0.42351068  1  0  0.366185  0  3.743808  0  0  0.334253  0  4.009899  0  0  0.350152  0  4.024308  0  0  0.217694  0.323721  0  3.999688  0
C  C39  1  0.53688117  0.26255636  0.65082145  1  0  -0.017764  0  3.793266  0  0  0.001415  0  4.028233  0  0  -0.000981  0  4.049546  0  0  -0.011236  0.002923  0  4.013653  0
C  C40  1  0.46311825  0.73744494  0.34917843  1  0  -0.017721  0  3.793196  0  0  0.001484  0  4.028148  0  0  -0.000911  0  4.049461  0  0  -0.011145  0.002991  0  4.013598  0
C  C41  1  0.46348627  0.40376315  0.65503102  1  0  -0.088855  0  3.737193  0  0  -0.110264  0  3.991093  0  0  -0.111377  0  4.011407  0  0  -0.091172  -0.109576  0  3.97708  0
C  C42  1  0.53651316  0.59623815  0.34496953  1  0  -0.08894  0  3.737219  0  0  -0.110362  0  3.991125  0  0  -0.111477  0  4.011439  0  0  -0.091029  -0.109583  0  3.977381  0
C  C43  1  0.36830284  0.43281372  0.72772529  1  0  -0.123857  0  3.771619  0  0  -0.145202  0  4.025295  0  0  -0.148393  0  4.047055  0  0  -0.102811  -0.143336  0  4.010481  0
C  C44  1  0.63169580  0.56718653  0.27227477  1  0  -0.123778  0  3.771706  0  0  -0.145165  0  4.025407  0  0  -0.148355  0  4.047167  0  0  -0.102249  -0.142823  0  4.010722  0
C  C45  1  0.34689533  0.31944515  0.79649755  1  0  0.094489  0  3.716122  0  0  0.110025  0  3.98145  0  0  0.113729  0  4.002754  0  0  -0.017434  0.107545  0  3.96692  0
C  C46  1  0.65310178  0.68055618  0.20350299  1  0  0.094454  0  3.716135  0  0  0.110019  0  3.981436  0  0  0.113724  0  4.002739  0  0  -0.017575  0.107404  0  3.966881  0
C  C47  1  0.41709246  0.17851153  0.79321788  1  0  -0.106225  0  3.754208  0  0  -0.127764  0  4.006771  0  0  -0.130239  0  4.026231  0  0  -0.090938  -0.12605  0  3.993737  0
C  C48  1  0.58290544  0.82149085  0.20678248  1  0  -0.106256  0  3.754225  0  0  -0.127809  0  4.006787  0  0  -0.130284  0  4.026246  0  0  -0.091357  -0.126436  0  3.993515  0
C  C49  1  0.51194630  0.15075174  0.72030093  1  0  -0.059316  0  3.690349  0  0  -0.08172  0  3.937337  0  0  -0.081942  0  3.956164  0  0  -0.077387  -0.081332  0  3.924721  0
C  C50  1  0.48805082  0.84924958  0.27969962  1  0  -0.059268  0  3.690343  0  0  -0.081693  0  3.937308  0  0  -0.081916  0  3.956129  0  0  -0.07745  -0.081234  0  3.924375  0
C  C51  1  0.36115855  0.29298704  0.34539562  1  0  0.651241  0  3.903295  0  0  0.596431  0  4.202036  0  0  0.632097  0  4.192816  0  0  0.213576  0.57236  0  4.207345  0
C  C52  1  0.63884200  0.70701107  0.65460481  1  0  0.651297  0  3.903291  0  0  0.596507  0  4.201994  0  0  0.632174  0  4.192774  0  0  0.213631  0.572448  0  4.207287  0
C  C53  1  0.32947847  0.40722254  0.25591603  1  0  0.009546  0  3.772666  0  0  0.000134  0  4.032495  0  0  0.000155  0  4.052042  0  0  0.080887  -0.000256  0  4.020747  0
C  C54  1  0.67052286  0.59277663  0.74408422  1  0  0.009485  0  3.772646  0  0  5.5e-05  0  4.032482  0  0  7.5e-05  0  4.052031  0  0  0.080913  -0.00029  0  4.020701  0
C  C55  1  0.39856355  0.40798818  0.17062910  1  0  -0.003502  0  3.712644  0  0  -0.018968  0  3.972683  0  0  -0.021304  0  3.991384  0  0  0.084443  -0.017784  0  3.961767  0
C  C56  1  0.60143699  0.59200992  0.82937066  1  0  -0.00349  0  3.71241  0  0  -0.018932  0  3.972448  0  0  -0.021263  0  3.991136  0  0  0.084535  -0.017682  0  3.961506  0
C  C57  1  0.50973673  0.29776439  0.13288935  1  0  0.634393  0  3.883877  0  0  0.585216  0  4.189069  0  0  0.619397  0  4.177304  0  0  0.228851  0.561901  0  4.196962  0
C  C58  1  0.49025532  0.70222849  0.86712012  1  0  0.634487  0  3.884304  0  0  0.585243  0  4.189499  0  0  0.619425  0  4.177726  0  0  0.228685  0.561889  0  4.19745  0
C  C59  1  0.24464686  0.62786602  0.16841123  1  0  0.377212  0  3.703484  0  0  0.335994  0  3.977362  0  0  0.353411  0  3.99008  0  0  0.237385  0.32427  0  3.968666  0
C  C60  1  0.75535368  0.37213209  0.83158717  1  0  0.376885  0  3.703735  0  0  0.335754  0  3.977505  0  0  0.353125  0  3.990289  0  0  0.237363  0.324105  0  3.968746  0
C  C61  1  0.17331665  0.78252662  0.13956358  1  0  -0.037173  0  3.817274  0  0  -0.019561  0  4.060684  0  0  -0.024104  0  4.084578  0  0  -0.017836  -0.017055  0  4.0453  0
C  C62  1  0.82668505  0.21747148  0.86043618  1  0  -0.037043  0  3.817239  0  0  -0.019469  0  4.060643  0  0  -0.023981  0  4.084516  0  0  -0.017789  -0.016934  0  4.045211  0
C  C63  1  0.24840854  0.86850151  0.07800351  1  0  -0.066556  0  3.715243  0  0  -0.09085  0  3.964488  0  0  -0.091632  0  3.985832  0  0  -0.084788  -0.090246  0  3.95036  0
C  C64  1  0.75159162  0.13149766  0.92199539  1  0  -0.066476  0  3.715154  0  0  -0.090758  0  3.964379  0  0  -0.091542  0  3.985731  0  0  -0.084712  -0.090124  0  3.9502  0
C  C65  1  0.18991450  0.01630060  0.06069726  1  0  -0.119067  0  3.765435  0  0  -0.135964  0  4.012136  0  0  -0.14052  0  4.034852  0  0  -0.098117  -0.13284  0  3.996886  0
C  C66  1  0.81008566  0.98369857  0.93930164  1  0  -0.119101  0  3.765475  0  0  -0.136006  0  4.012167  0  0  -0.140561  0  4.034877  0  0  -0.098101  -0.13286  0  3.996904  0
C  C67  1  0.05424587  0.07781202  0.10389864  1  0  0.111134  0  3.697031  0  0  0.126993  0  3.956649  0  0  0.130964  0  3.97934  0  0  -0.010881  0.124176  0  3.941285  0
C  C68  1  0.94575545  0.92218713  0.89610026  1  0  0.111211  0  3.697029  0  0  0.12706  0  3.956659  0  0  0.131032  0  3.979352  0  0  -0.010897  0.12418  0  3.941367  0
C  C69  1  0.97207803  0.99500390  0.16068642  1  0  -0.10156  0  3.734415  0  0  -0.121129  0  3.984813  0  0  -0.124014  0  4.004048  0  0  -0.095854  -0.11928  0  3.971979  0
C  C70  1  0.02792292  0.00499632  0.83931161  1  0  -0.101703  0  3.734517  0  0  -0.121279  0  3.984923  0  0  -0.124167  0  4.004163  0  0  -0.095806  -0.119356  0  3.972108  0
C  C71  1  0.03292468  0.84753577  0.17888754  1  0  -0.073319  0  3.716141  0  0  -0.099043  0  3.969402  0  0  -0.099726  0  3.98958  0  0  -0.088399  -0.098441  0  3.955881  0
C  C72  1  0.96707743  0.15246445  0.82111185  1  0  -0.073323  0  3.716188  0  0  -0.099061  0  3.969452  0  0  -0.099746  0  3.989633  0  0  -0.088402  -0.098417  0  3.955881  0
Br  Br73  1  0.21525879  0.35719302  0.89533626  1  0  -0.054314  0  1.336137  0  0  -0.046084  0  1.604912  0  0  -0.050724  0  1.596575  0  0  0.047777  -0.04238  0  1.610285  0
Br  Br74  1  0.78473948  0.64280830  0.10466428  1  0  -0.054312  0  1.336088  0  0  -0.046089  0  1.604848  0  0  -0.050729  0  1.596511  0  0  0.047896  -0.042225  0  1.610154  0
Br  Br75  1  0.98037110  0.27849837  0.08949765  1  0  -0.075397  0  1.287948  0  0  -0.07235  0  1.543156  0  0  -0.076932  0  1.535825  0  0  0.020733  -0.068657  0  1.54887  0
Br  Br76  1  0.01962832  0.72150293  0.91050087  1  0  -0.075414  0  1.287955  0  0  -0.072369  0  1.543175  0  0  -0.076948  0  1.535843  0  0  0.021122  -0.0682  0  1.548792  0
N  N77  1  0.65449258  0.12940773  0.53313365  1  0  -0.440642  0  3.162606  0  0  -0.371181  0  3.434104  0  0  -0.393352  0  3.45045  0  0  -0.347909  -0.355665  0  3.422436  0
N  N78  1  0.34550838  0.87059251  0.46686777  1  0  -0.440662  0  3.162649  0  0  -0.371205  0  3.434171  0  0  -0.393374  0  3.450513  0  0  -0.347916  -0.355677  0  3.422503  0
N  N79  1  0.74198445  0.31115870  0.54330503  1  0  -0.473123  0  3.199579  0  0  -0.402349  0  3.475726  0  0  -0.424963  0  3.491588  0  0  -0.359315  -0.386585  0  3.464489  0
N  N80  1  0.25801652  0.68884153  0.45669571  1  0  -0.47308  0  3.199603  0  0  -0.402288  0  3.475735  0  0  -0.424903  0  3.4916  0  0  -0.359248  -0.386492  0  3.464462  0
N  N81  1  0.23402741  0.54293777  0.25277726  1  0  -0.457076  0  3.172151  0  0  -0.392774  0  3.449971  0  0  -0.414712  0  3.465545  0  0  -0.340849  -0.377876  0  3.43915  0
N  N82  1  0.76597470  0.45706245  0.74722213  1  0  -0.456889  0  3.172134  0  0  -0.392606  0  3.449911  0  0  -0.414533  0  3.46551  0  0  -0.340776  -0.377683  0  3.439041  0
N  N83  1  0.34317707  0.54762400  0.11775104  1  0  -0.324444  0  3.372565  0  0  -0.265512  0  3.60489  0  0  -0.281133  0  3.617399  0  0  -0.353585  -0.254989  0  3.596364  0
N  N84  1  0.65682154  0.45237306  0.88224958  1  0  -0.324395  0  3.372719  0  0  -0.265556  0  3.604953  0  0  -0.28112  0  3.617526  0  0  -0.353589  -0.254994  0  3.596344  0
O  O85  1  0.75618708  0.93946205  0.42284933  1  0  -0.594264  0  2.029027  0  0  -0.522556  0  2.261466  0  0  -0.54872  0  2.249255  0  0  -0.289286  -0.504709  0  2.269815  0
O  O86  1  0.24381120  0.06053927  0.57715258  1  0  -0.594254  0  2.028971  0  0  -0.522532  0  2.261403  0  0  -0.548696  0  2.249193  0  0  -0.289291  -0.504692  0  2.269781  0
O  O87  1  0.93507450  0.04605066  0.35881494  1  0  -0.521286  0  2.078239  0  0  -0.467621  0  2.296025  0  0  -0.491393  0  2.285631  0  0  -0.305285  -0.451227  0  2.302792  0
O  O88  1  0.06492684  0.95394851  0.64118734  1  0  -0.521288  0  2.078236  0  0  -0.467608  0  2.296017  0  0  -0.49138  0  2.285624  0  0  -0.30531  -0.451277  0  2.302809  0
O  O89  1  0.01126004  0.25862774  0.35997293  1  0  -0.555921  0  1.993443  0  0  -0.509453  0  2.213748  0  0  -0.532745  0  2.203833  0  0  -0.304695  -0.493439  0  2.220291  0
O  O90  1  0.98873977  0.74137250  0.64002781  1  0  -0.555876  0  1.993573  0  0  -0.509389  0  2.213873  0  0  -0.532682  0  2.203961  0  0  -0.304684  -0.493445  0  2.220418  0
O  O91  1  0.95429014  0.42629298  0.44043532  1  0  -0.667684  0  2.119632  0  0  -0.58541  0  2.381926  0  0  -0.615359  0  2.368705  0  0  -0.323713  -0.564346  0  2.390386  0
O  O92  1  0.04571120  0.57370618  0.55956629  1  0  -0.667633  0  2.119613  0  0  -0.585417  0  2.381962  0  0  -0.615367  0  2.36874  0  0  -0.323689  -0.56432  0  2.390335  0
O  O93  1  0.31857639  0.32595839  0.42047681  1  0  -0.602383  0  1.998056  0  0  -0.543156  0  2.25169  0  0  -0.570034  0  2.239777  0  0  -0.312991  -0.52391  0  2.259068  0
O  O94  1  0.68142342  0.67404185  0.57952460  1  0  -0.602432  0  1.998145  0  0  -0.543204  0  2.251761  0  0  -0.570082  0  2.239849  0  0  -0.312991  -0.523914  0  2.259118  0
O  O95  1  0.43835512  0.16469525  0.34309713  1  0  -0.632083  0  2.073795  0  0  -0.564044  0  2.316622  0  0  -0.593785  0  2.305843  0  0  -0.307432  -0.543403  0  2.323301  0
O  O96  1  0.56164700  0.83530497  0.65690497  1  0  -0.632136  0  2.073636  0  0  -0.564085  0  2.316503  0  0  -0.593826  0  2.30571  0  0  -0.307398  -0.543395  0  2.323162  0
O  O97  1  0.55938341  0.16539941  0.18779550  1  0  -0.528566  0  2.075156  0  0  -0.476318  0  2.289125  0  0  -0.498447  0  2.273501  0  0  -0.322911  -0.460813  0  2.298961  0
O  O98  1  0.44061560  0.83459977  0.81220340  1  0  -0.52885  0  2.074936  0  0  -0.476538  0  2.288971  0  0  -0.498671  0  2.273296  0  0  -0.322968  -0.461029  0  2.298832  0
O  O99  1  0.55409994  0.32802593  0.05309883  1  0  -0.560792  0  2.021273  0  0  -0.528494  0  2.2608  0  0  -0.547454  0  2.24938  0  0  -0.291234  -0.515237  0  2.268213  0
O  O100  1  0.44590097  0.67197427  0.94689175  1  0  -0.560646  0  2.022123  0  0  -0.528248  0  2.261617  0  0  -0.547222  0  2.25019  0  0  -0.291008  -0.514969  0  2.269051  0
O  O101  1  0.88026684  0.71603642  0.35795610  1  0  -0.824487  0  1.921149  0  0  -0.75752  0  2.128537  0  0  -0.780667  0  2.10186  0  0  -0.578768  -0.741287  0  2.147005  0
O  O102  1  0.11973296  0.28396382  0.64204396  1  0  -0.824489  0  1.921122  0  0  -0.757518  0  2.128505  0  0  -0.780663  0  2.101829  0  0  -0.578777  -0.741327  0  2.146972  0
