# generated using pymatgen
data_ZnH4(CN)8
_symmetry_space_group_name_H-M   'P 1'
_cell_length_a   8.11282998
_cell_length_b   8.75530522
_cell_length_c   13.01125012
_cell_angle_alpha   89.99993302
_cell_angle_beta   89.99994706
_cell_angle_gamma   89.99998166
_symmetry_Int_Tables_number   1
_chemical_formula_structural   ZnH4(CN)8
_chemical_formula_sum   'Zn4 H16 C32 N32'
_cell_volume   924.19303442
_cell_formula_units_Z   4
loop_
 _symmetry_equiv_pos_site_id
 _symmetry_equiv_pos_as_xyz
  1  'x, y, z'
loop_
 _atom_site_type_symbol
 _atom_site_label
 _atom_site_symmetry_multiplicity
 _atom_site_fract_x
 _atom_site_fract_y
 _atom_site_fract_z
 _atom_site_occupancy
 _atom_site_hle17_bader_spin_density
 _atom_site_hle17_ddec_charge
 _atom_site_hle17_ddec_spin_density
 _atom_site_hle17_ddec_sum_bond_order
 _atom_site_hle17_magmom
 _atom_site_hse06_10hf_bader_charge
 _atom_site_hse06_10hf_bader_spin_density
 _atom_site_hse06_10hf_ddec_charge
 _atom_site_hse06_10hf_ddec_spin_density
 _atom_site_hse06_10hf_ddec_sum_bond_order
 _atom_site_hse06_10hf_magmom
 _atom_site_hse06_bader_spin_density
 _atom_site_hse06_ddec_charge
 _atom_site_hse06_ddec_spin_density
 _atom_site_hse06_ddec_sum_bond_order
 _atom_site_hse06_magmom
 _atom_site_pbe_bader_spin_density
 _atom_site_pbe_cm5_charge
 _atom_site_pbe_ddec_charge
 _atom_site_pbe_ddec_spin_density
 _atom_site_pbe_ddec_sum_bond_order
 _atom_site_pbe_magmom
Zn  Zn0  1  0.02295304  0.41007060  0.88170143  1  0  0.86539  0  1.949287  0  1.251057  0  0.646395  0  2.428239  0  0  0.685759  0  2.385582  0  0  0.77169  0.619307  0  2.457655  0
Zn  Zn1  1  0.47704770  0.58992992  0.38170238  1  0  0.865388  0  1.949292  0  1.251035  0  0.646387  0  2.428247  0  0  0.685751  0  2.385588  0  0  0.771693  0.619303  0  2.457666  0
Zn  Zn2  1  0.97704809  0.91007039  0.61829813  1  0  0.865402  0  1.949288  0  1.251059  0  0.646405  0  2.428238  0  0  0.685776  0  2.385583  0  0  0.771705  0.619317  0  2.457654  0
Zn  Zn3  1  0.52295305  0.08992929  0.11829821  1  0  0.865399  0  1.949287  0  1.251058  0  0.646394  0  2.428239  0  0  0.685757  0  2.385582  0  0  0.77169  0.619306  0  2.457654  0
H  H4  1  0.77033750  0.04042754  0.46748597  1  0  0.092042  0  0.971499  0  0.109739  0  0.09859  0  1.044497  0  0  0.101713  0  1.041618  0  0  0.101536  0.096284  0  1.04672  0
H  H5  1  0.72966312  0.95957154  0.96748523  1  0  0.092054  0  0.971491  0  0.109747  0  0.098595  0  1.044503  0  0  0.101719  0  1.041622  0  0  0.101532  0.096287  0  1.046728  0
H  H6  1  0.22966327  0.54042770  0.03251466  1  0  0.092067  0  0.971536  0  0.109739  0  0.098606  0  1.044549  0  0  0.101729  0  1.041669  0  0  0.101544  0.096298  0  1.046775  0
H  H7  1  0.27033676  0.45957114  0.53251429  1  0  0.092048  0  0.971494  0  0.109751  0  0.098594  0  1.044496  0  0  0.101718  0  1.041616  0  0  0.101543  0.096288  0  1.046722  0
H  H8  1  0.75438019  0.05445805  0.28156302  1  0  0.093632  0  0.971043  0  0.059401  0  0.101529  0  1.040279  0  0  0.104503  0  1.038249  0  0  0.102806  0.099291  0  1.041914  0
H  H9  1  0.74561947  0.94554135  0.78156228  1  0  0.093669  0  0.971182  0  0.059403  0  0.101574  0  1.040401  0  0  0.104547  0  1.038373  0  0  0.102839  0.099346  0  1.042026  0
H  H10  1  0.24561934  0.55445789  0.21843760  1  0  0.093618  0  0.971069  0  0.059419  0  0.101521  0  1.0403  0  0  0.104494  0  1.038269  0  0  0.1028  0.099284  0  1.041935  0
H  H11  1  0.25438165  0.44554177  0.71843725  1  0  0.093638  0  0.971184  0  0.059412  0  0.10155  0  1.040396  0  0  0.104525  0  1.038365  0  0  0.102828  0.099318  0  1.042023  0
H  H12  1  0.92727415  0.52120132  0.28869815  1  0  0.107761  0  0.944948  0  0.091736  0  0.116859  0  1.006078  0  0  0.119702  0  1.005292  0  0  0.105085  0.114837  0  1.006704  0
H  H13  1  0.57272550  0.47879807  0.78869711  1  0  0.10782  0  0.944885  0  0.09173  0  0.11689  0  1.006045  0  0  0.119733  0  1.005258  0  0  0.105068  0.114865  0  1.00667  0
H  H14  1  0.07272539  0.02120181  0.21130250  1  0  0.107769  0  0.944926  0  0.091744  0  0.116867  0  1.006061  0  0  0.119709  0  1.005274  0  0  0.10509  0.114843  0  1.006686  0
H  H15  1  0.42727561  0.97879786  0.71130240  1  0  0.107755  0  0.944888  0  0.091714  0  0.116846  0  1.006038  0  0  0.119688  0  1.005252  0  0  0.105061  0.114822  0  1.006663  0
H  H16  1  0.95195098  0.50420459  0.47953377  1  0  0.106665  0  0.94404  0  0.123878  0  0.114902  0  1.006528  0  0  0.117763  0  1.005635  0  0  0.105077  0.112813  0  1.00729  0
H  H17  1  0.54804839  0.49579560  0.97953350  1  0  0.106693  0  0.943931  0  0.123888  0  0.114886  0  1.006469  0  0  0.117744  0  1.00558  0  0  0.105069  0.112796  0  1.007231  0
H  H18  1  0.04804980  0.00420428  0.02046612  1  0  0.106712  0  0.943981  0  0.123881  0  0.114916  0  1.006498  0  0  0.117775  0  1.005607  0  0  0.105083  0.112825  0  1.007259  0
H  H19  1  0.45195024  0.99579458  0.52046599  1  0  0.106711  0  0.943972  0  0.123879  0  0.114913  0  1.006491  0  0  0.117771  0  1.005602  0  0  0.105085  0.112823  0  1.007253  0
C  C20  1  0.88794367  0.25938722  0.59757712  1  0  0.283788  0  3.767389  0  1.008372  0  0.260252  0  4.03162  0  0  0.270311  0  4.048758  0  0  0.22501  0.253522  0  4.019974  0
C  C21  1  0.61205626  0.74061250  0.09757663  1  0  0.283863  0  3.767389  0  1.008729  0  0.26033  0  4.031605  0  0  0.27039  0  4.048742  0  0  0.225067  0.253602  0  4.019959  0
C  C22  1  0.11205628  0.75938792  0.90242333  1  0  0.283765  0  3.767351  0  1.008388  0  0.260238  0  4.031572  0  0  0.270298  0  4.04871  0  0  0.225031  0.253509  0  4.019927  0
C  C23  1  0.38794320  0.24061256  0.40242308  1  0  0.283913  0  3.767408  0  1.008423  0  0.260387  0  4.031616  0  0  0.270447  0  4.048753  0  0  0.225073  0.25366  0  4.019971  0
C  C24  1  0.86479400  0.27109223  0.48667079  1  0  0.00254  0  3.791602  0  -0.005833  0  0.020988  0  4.023585  0  0  0.019101  0  4.046458  0  0  -0.005689  0.022246  0  4.00802  0
C  C25  1  0.63520536  0.72890682  0.98667029  1  0  0.002459  0  3.791683  0  -0.005862  0  0.020897  0  4.02366  0  0  0.01901  0  4.046532  0  0  -0.005754  0.022154  0  4.008095  0
C  C26  1  0.13520545  0.77109245  0.01332966  1  0  0.002518  0  3.79163  0  -0.005845  0  0.020953  0  4.023606  0  0  0.019067  0  4.046478  0  0  -0.005737  0.022212  0  4.00804  0
C  C27  1  0.36479460  0.22890757  0.51332942  1  0  0.002431  0  3.791668  0  -0.005838  0  0.020869  0  4.02365  0  0  0.018982  0  4.046521  0  0  -0.005736  0.022124  0  4.008086  0
C  C28  1  0.80640384  0.14642273  0.42990460  1  0  -0.075547  0  3.727228  0  -0.039818  0  -0.099685  0  3.982616  0  0  -0.100822  0  4.002084  0  0  -0.083494  -0.0988  0  3.969353  0
C  C29  1  0.69359560  0.85357641  0.92990550  1  0  -0.075545  0  3.727217  0  -0.03982  0  -0.099673  0  3.982595  0  0  -0.100809  0  4.002061  0  0  -0.083496  -0.098787  0  3.969334  0
C  C30  1  0.19359566  0.64642283  0.07009442  1  0  -0.07554  0  3.727206  0  -0.039827  0  -0.099657  0  3.982565  0  0  -0.100792  0  4.002031  0  0  -0.083476  -0.09877  0  3.969302  0
C  C31  1  0.30640431  0.35357708  0.57009488  1  0  -0.075539  0  3.727229  0  -0.03984  0  -0.099674  0  3.982619  0  0  -0.100811  0  4.002087  0  0  -0.083511  -0.098788  0  3.969359  0
C  C32  1  0.79488019  0.15525975  0.32355355  1  0  -0.081634  0  3.727889  0  0.052957  0  -0.107579  0  3.981339  0  0  -0.109641  0  4.002106  0  0  -0.085593  -0.106027  0  3.967261  0
C  C33  1  0.70512187  0.84474414  0.82355446  1  0  -0.081687  0  3.727946  0  0.052929  0  -0.107644  0  3.981365  0  0  -0.109708  0  4.002134  0  0  -0.085624  -0.106099  0  3.96728  0
C  C34  1  0.20511930  0.65525853  0.17644622  1  0  -0.081647  0  3.727866  0  0.052946  0  -0.107609  0  3.981307  0  0  -0.10967  0  4.002074  0  0  -0.085607  -0.106058  0  3.967229  0
C  C35  1  0.29488051  0.34474349  0.67644593  1  0  -0.081665  0  3.727957  0  0.052947  0  -0.107613  0  3.981387  0  0  -0.109678  0  4.002156  0  0  -0.085608  -0.106065  0  3.967304  0
C  C36  1  0.83930244  0.28951210  0.27191126  1  0  0.007513  0  3.788819  0  -0.008654  0  0.025652  0  4.021347  0  0  0.024269  0  4.043712  0  0  -0.00292  0.026559  0  4.006192  0
C  C37  1  0.66069847  0.71048960  0.77191152  1  0  0.007592  0  3.788841  0  -0.008321  0  0.025745  0  4.021276  0  0  0.02436  0  4.04364  0  0  -0.002885  0.026654  0  4.006126  0
C  C38  1  0.16069824  0.78951080  0.22808841  1  0  0.007572  0  3.78891  0  -0.008322  0  0.025722  0  4.021365  0  0  0.024336  0  4.04373  0  0  -0.002894  0.026631  0  4.006215  0
C  C39  1  0.33930273  0.21048884  0.72808897  1  0  0.007575  0  3.788791  0  -0.008674  0  0.025706  0  4.021285  0  0  0.02432  0  4.043649  0  0  -0.002907  0.026615  0  4.00613  0
C  C40  1  0.89471337  0.41627747  0.32892570  1  0  -0.084073  0  3.703486  0  -0.018832  0  -0.107804  0  3.95694  0  0  -0.109589  0  3.976485  0  0  -0.084858  -0.106563  0  3.94373  0
C  C41  1  0.60528745  0.58372641  0.82892533  1  0  -0.084127  0  3.703498  0  -0.018809  0  -0.107844  0  3.95692  0  0  -0.109629  0  3.976464  0  0  -0.084806  -0.106601  0  3.943706  0
C  C42  1  0.10528603  0.91627629  0.17107387  1  0  -0.084045  0  3.703476  0  -0.018827  0  -0.107788  0  3.956909  0  0  -0.109573  0  3.976454  0  0  -0.084846  -0.106547  0  3.943697  0
C  C43  1  0.39471256  0.08372574  0.67107449  1  0  -0.08409  0  3.703482  0  -0.018793  0  -0.107821  0  3.956924  0  0  -0.109605  0  3.976467  0  0  -0.084822  -0.106579  0  3.943709  0
C  C44  1  0.90766438  0.40695503  0.43514378  1  0  -0.084706  0  3.71844  0  -0.009879  0  -0.109212  0  3.973336  0  0  -0.111045  0  3.994034  0  0  -0.085668  -0.107877  0  3.959324  0
C  C45  1  0.59233382  0.59304524  0.93514187  1  0  -0.084666  0  3.718352  0  -0.009876  0  -0.109124  0  3.97322  0  0  -0.110954  0  3.993919  0  0  -0.085644  -0.10779  0  3.959208  0
C  C46  1  0.09233502  0.90695518  0.06485657  1  0  -0.084747  0  3.718434  0  -0.009894  0  -0.109217  0  3.973334  0  0  -0.111048  0  3.99403  0  0  -0.085668  -0.107881  0  3.959319  0
C  C47  1  0.40766496  0.09304475  0.56485718  1  0  -0.084673  0  3.718391  0  -0.009869  0  -0.10914  0  3.973281  0  0  -0.110969  0  3.993977  0  0  -0.085654  -0.107804  0  3.959267  0
C  C48  1  0.83402569  0.29687574  0.15990588  1  0  0.283501  0  3.775763  0  0.941741  0  0.256544  0  4.047951  0  0  0.267059  0  4.0631  0  0  0.226061  0.249465  0  4.03773  0
C  C49  1  0.66597538  0.70312958  0.65990691  1  0  0.283308  0  3.775991  0  0.941374  0  0.256449  0  4.048045  0  0  0.26697  0  4.063189  0  0  0.226064  0.249362  0  4.037835  0
C  C50  1  0.16597499  0.79687081  0.34009302  1  0  0.283279  0  3.77602  0  0.941375  0  0.256424  0  4.048078  0  0  0.266943  0  4.06322  0  0  0.226041  0.249335  0  4.037872  0
C  C51  1  0.33402582  0.20312521  0.84009435  1  0  0.283374  0  3.775841  0  0.941741  0  0.256483  0  4.047943  0  0  0.267004  0  4.063083  0  0  0.226051  0.249392  0  4.03774  0
N  N52  1  0.88664812  0.37731110  0.66299123  1  0  -0.25372  0  2.893068  0  -0.669918  0  -0.24685  0  3.17197  0  0  -0.254935  0  3.186767  0  0  -0.20252  -0.241391  0  3.162001  0
N  N53  1  0.61335171  0.62268965  0.16299083  1  0  -0.253729  0  2.893083  0  -0.669943  0  -0.246853  0  3.171978  0  0  -0.254938  0  3.186776  0  0  -0.202511  -0.241395  0  3.162011  0
N  N54  1  0.11335178  0.87731076  0.83700913  1  0  -0.253688  0  2.893108  0  -0.669931  0  -0.246814  0  3.172006  0  0  -0.2549  0  3.186808  0  0  -0.202518  -0.241356  0  3.162036  0
N  N55  1  0.38664779  0.12268869  0.33700896  1  0  -0.25376  0  2.8931  0  -0.669927  0  -0.246883  0  3.171997  0  0  -0.254969  0  3.186795  0  0  -0.202523  -0.241425  0  3.162028  0
N  N56  1  0.92088766  0.31453878  0.75477951  1  0  -0.120099  0  3.278581  0  -0.257135  0  -0.050358  0  3.592979  0  0  -0.059764  0  3.604431  0  0  -0.116997  -0.043969  0  3.585267  0
N  N57  1  0.57911081  0.68546066  0.25477908  1  0  -0.120093  0  3.278608  0  -0.257067  0  -0.050355  0  3.593009  0  0  -0.059759  0  3.604456  0  0  -0.117008  -0.043967  0  3.5853  0
N  N58  1  0.07911227  0.81453976  0.74522013  1  0  -0.120143  0  3.27862  0  -0.257141  0  -0.050407  0  3.593026  0  0  -0.059816  0  3.604478  0  0  -0.117017  -0.044019  0  3.585313  0
N  N59  1  0.42088744  0.18546099  0.24522067  1  0  -0.120084  0  3.278588  0  -0.257131  0  -0.050352  0  3.592987  0  0  -0.059756  0  3.604436  0  0  -0.117  -0.043962  0  3.585275  0
N  N60  1  0.94191981  0.16568961  0.74854188  1  0  -0.054109  0  2.953185  0  -0.088848  0  -0.05967  0  3.237354  0  0  -0.055407  0  3.249463  0  0  -0.087691  -0.062218  0  3.229129  0
N  N61  1  0.55808113  0.83431099  0.24854212  1  0  -0.054124  0  2.953198  0  -0.088866  0  -0.059679  0  3.237358  0  0  -0.055416  0  3.249465  0  0  -0.087674  -0.062226  0  3.229134  0
N  N62  1  0.05808017  0.66568944  0.75145788  1  0  -0.054096  0  2.953135  0  -0.088831  0  -0.059653  0  3.237299  0  0  -0.05539  0  3.249407  0  0  -0.087681  -0.062201  0  3.229076  0
N  N63  1  0.44191953  0.33431016  0.25145828  1  0  -0.054134  0  2.953161  0  -0.088838  0  -0.059689  0  3.237328  0  0  -0.055427  0  3.249434  0  0  -0.087702  -0.062236  0  3.229104  0
N  N64  1  0.92245812  0.12789433  0.64978352  1  0  -0.327605  0  3.221487  0  -0.774864  0  -0.247361  0  3.521961  0  0  -0.265065  0  3.532799  0  0  -0.236382  -0.235471  0  3.514606  0
N  N65  1  0.57754173  0.87210530  0.14978295  1  0  -0.327657  0  3.221485  0  -0.775208  0  -0.247427  0  3.521996  0  0  -0.265131  0  3.532833  0  0  -0.236437  -0.235534  0  3.514634  0
N  N66  1  0.07754187  0.62789398  0.85021703  1  0  -0.327588  0  3.22138  0  -0.774857  0  -0.247365  0  3.521895  0  0  -0.265068  0  3.532731  0  0  -0.236388  -0.235471  0  3.514528  0
N  N67  1  0.42245769  0.37210545  0.35021666  1  0  -0.327637  0  3.221484  0  -0.774913  0  -0.247411  0  3.52199  0  0  -0.265113  0  3.532824  0  0  -0.23641  -0.235517  0  3.514624  0
N  N68  1  0.73324218  0.21416024  0.09730857  1  0  -0.329439  0  3.212633  0  -0.760774  0  -0.256983  0  3.517802  0  0  -0.274156  0  3.528894  0  0  -0.23303  -0.245381  0  3.51022  0
N  N69  1  0.76675776  0.78584176  0.59730718  1  0  -0.329342  0  3.212746  0  -0.760822  0  -0.256931  0  3.517918  0  0  -0.274102  0  3.528999  0  0  -0.232981  -0.245324  0  3.510339  0
N  N70  1  0.26675729  0.71415747  0.40269192  1  0  -0.329369  0  3.212711  0  -0.760831  0  -0.256954  0  3.517867  0  0  -0.274129  0  3.528961  0  0  -0.232996  -0.245349  0  3.51029  0
N  N71  1  0.23324218  0.28583959  0.90269171  1  0  -0.329387  0  3.212661  0  -0.760778  0  -0.256963  0  3.51783  0  0  -0.274133  0  3.528911  0  0  -0.232991  -0.245358  0  3.510251  0
N  N72  1  0.77284618  0.24966794  0.00047696  1  0  -0.061235  0  2.925188  0  -0.072667  0  -0.068005  0  3.207877  0  0  -0.064218  0  3.220109  0  0  -0.091625  -0.070243  0  3.199554  0
N  N73  1  0.72715513  0.75033195  0.50047715  1  0  -0.061177  0  2.925056  0  -0.072684  0  -0.067946  0  3.207754  0  0  -0.06416  0  3.219987  0  0  -0.091588  -0.070184  0  3.199433  0
N  N74  1  0.22715451  0.74966729  0.49952274  1  0  -0.061148  0  2.925015  0  -0.072677  0  -0.067912  0  3.207707  0  0  -0.064126  0  3.219941  0  0  -0.09157  -0.070149  0  3.199384  0
N  N75  1  0.27284605  0.25033188  0.99952330  1  0  -0.061177  0  2.925172  0  -0.072682  0  -0.067951  0  3.207867  0  0  -0.064164  0  3.220101  0  0  -0.091612  -0.070191  0  3.199546  0
N  N76  1  0.89329365  0.35067981  0.00594523  1  0  -0.115874  0  3.318209  0  -0.258974  0  -0.043312  0  3.634519  0  0  -0.052812  0  3.645704  0  0  -0.119157  -0.036837  0  3.626937  0
N  N77  1  0.60670642  0.64932121  0.50594557  1  0  -0.115951  0  3.31819  0  -0.25895  0  -0.043385  0  3.634508  0  0  -0.052885  0  3.645694  0  0  -0.119217  -0.036911  0  3.626928  0
N  N78  1  0.10670701  0.85067921  0.49405362  1  0  -0.115954  0  3.318192  0  -0.258934  0  -0.043394  0  3.634516  0  0  -0.052897  0  3.645704  0  0  -0.119236  -0.036919  0  3.626931  0
N  N79  1  0.39329356  0.14932111  0.99405496  1  0  -0.115956  0  3.318275  0  -0.258964  0  -0.043387  0  3.634576  0  0  -0.052887  0  3.645762  0  0  -0.119194  -0.036913  0  3.626993  0
N  N80  1  0.93498556  0.38319715  0.10305501  1  0  -0.254805  0  2.904702  0  -0.672675  0  -0.244902  0  3.179188  0  0  -0.25274  0  3.192938  0  0  -0.201649  -0.23956  0  3.169921  0
N  N81  1  0.56501437  0.61680484  0.60305617  1  0  -0.254748  0  2.904687  0  -0.672616  0  -0.244891  0  3.17915  0  0  -0.25273  0  3.192899  0  0  -0.201703  -0.239547  0  3.169892  0
N  N82  1  0.06501386  0.88319558  0.39694381  1  0  -0.254727  0  2.904802  0  -0.672641  0  -0.244868  0  3.17926  0  0  -0.252706  0  3.193009  0  0  -0.201656  -0.239522  0  3.169999  0
N  N83  1  0.43498563  0.11680262  0.89694439  1  0  -0.254742  0  2.904697  0  -0.672674  0  -0.244864  0  3.179161  0  0  -0.252703  0  3.192909  0  0  -0.201663  -0.239517  0  3.169895  0
