# generated using pymatgen
data_AlH3C6ClO5
_symmetry_space_group_name_H-M   'P 1'
_cell_length_a   6.64769696
_cell_length_b   8.93984284
_cell_length_c   11.12855923
_cell_angle_alpha   102.18034858
_cell_angle_beta   71.31874085
_cell_angle_gamma   74.17458466
_symmetry_Int_Tables_number   1
_chemical_formula_structural   AlH3C6ClO5
_chemical_formula_sum   'Al2 H6 C12 Cl2 O10'
_cell_volume   569.56420539
_cell_formula_units_Z   2
loop_
 _symmetry_equiv_pos_site_id
 _symmetry_equiv_pos_as_xyz
  1  'x, y, z'
loop_
 _atom_site_type_symbol
 _atom_site_label
 _atom_site_symmetry_multiplicity
 _atom_site_fract_x
 _atom_site_fract_y
 _atom_site_fract_z
 _atom_site_occupancy
 _atom_site_pbe_bader_charge
 _atom_site_pbe_bader_spin_density
 _atom_site_pbe_cm5_charge
 _atom_site_pbe_ddec_charge
 _atom_site_pbe_ddec_spin_density
 _atom_site_pbe_ddec_sum_bond_order
 _atom_site_pbe_magmom
Al  Al0  1  0.00000645  0.50000622  0.50000195  1  2.503422  0  0.397828  1.650006  0  2.571247  0
Al  Al1  1  0.49999746  0.50000086  0.50000305  1  2.489807  0  0.3966  1.647406  0  2.56608  0
H  H2  1  0.88338433  0.29764659  0.38664601  1  0.64709  0  0.35571  0.436706  0  0.845055  0
H  H3  1  0.11664618  0.70240549  0.61328101  1  0.646585  0  0.355691  0.436591  0  0.845246  0
H  H4  1  0.72265892  0.56985915  0.13084432  1  0.100885  0  0.107398  0.112004  0  1.006256  0
H  H5  1  0.27732144  0.43009209  0.86913691  1  0.101409  0  0.107366  0.111861  0  1.005765  0
H  H6  1  0.81619550  0.59281370  0.89927436  1  0.120643  0  0.111674  0.119938  0  0.989962  0
H  H7  1  0.18380583  0.40715440  0.10072845  1  0.120842  0  0.111701  0.119942  0  0.989948  0
C  C8  1  0.35973829  0.21318018  0.48029077  1  1.649076  0  0.268682  0.649855  0  4.116146  0
C  C9  1  0.38987927  0.47591876  0.26651690  1  1.570942  0  0.265015  0.636388  0  4.101027  0
C  C10  1  0.64025041  0.78683956  0.51972307  1  1.648617  0  0.268767  0.650042  0  4.1163  0
C  C11  1  0.61012759  0.52404784  0.73347840  1  1.569841  0  0.265032  0.636577  0  4.101917  0
C  C12  1  0.44828836  0.48688951  0.12836310  1  0.003145  0  -0.01248  -0.036757  0  3.958441  0
C  C13  1  0.55176608  0.51308592  0.87160097  1  0.004013  0  -0.012543  -0.036713  0  3.958262  0
C  C14  1  0.62709619  0.53913046  0.07238715  1  -0.071506  0  -0.081451  -0.095293  0  3.976664  0
C  C15  1  0.37295235  0.46083149  0.92760447  1  -0.071915  0  -0.08158  -0.095472  0  3.975329  0
C  C16  1  0.67853792  0.55211643  0.94456723  1  -0.044445  0  -0.079033  -0.090505  0  3.957573  0
C  C17  1  0.32148745  0.44784286  0.05545226  1  -0.045105  0  -0.078939  -0.090204  0  3.957119  0
C  C18  1  0.43204148  0.03492702  0.47145431  1  0.081792  0  0.011564  -0.042511  0  3.95623  0
C  C19  1  0.56793969  0.96509501  0.52857110  1  0.162955  0  0.011566  -0.042381  0  3.956149  0
Cl  Cl20  1  0.32494530  0.92404390  0.37980899  1  -0.14195  0  0.036564  0.002588  0  1.594332  0
Cl  Cl21  1  0.67498241  0.07598736  0.62023717  1  -0.142106  0  0.036586  0.002566  0  1.594405  0
O  O22  1  0.15221526  0.28407614  0.50253572  1  -1.240839  0  -0.228763  -0.577911  0  2.355884  0
O  O23  1  0.52470744  0.49560383  0.32267651  1  -1.25717  0  -0.237277  -0.595141  0  2.363863  0
O  O24  1  0.48844114  0.72373545  0.53751912  1  -1.246789  0  -0.227532  -0.579736  0  2.370278  0
O  O25  1  0.79114158  0.55237253  0.68149399  1  -1.27058  0  -0.239796  -0.600729  0  2.35013  0
O  O26  1  0.84778190  0.71593474  0.49748142  1  -1.240821  0  -0.228837  -0.578067  0  2.355814  0
O  O27  1  0.47532310  0.50437815  0.67731432  1  -1.256797  0  -0.237225  -0.595095  0  2.364232  0
O  O28  1  0.51157583  0.27627410  0.46248598  1  -1.246988  0  -0.227515  -0.579668  0  2.369953  0
O  O29  1  0.20881559  0.44762824  0.31851742  1  -1.271199  0  -0.239826  -0.600732  0  2.350176  0
O  O30  1  0.81693475  0.41519423  0.43360342  1  -1.4366  0  -0.4475  -0.987823  0  2.188286  0
O  O31  1  0.18306140  0.58483446  0.56640229  1  -1.436255  0  -0.447449  -0.987732  0  2.188309  0
