# generated using pymatgen
data_AgH4C2SO3
_symmetry_space_group_name_H-M   'P 1'
_cell_length_a   4.84686312
_cell_length_b   9.70116364
_cell_length_c   10.22994842
_cell_angle_alpha   72.72349116
_cell_angle_beta   89.99924320
_cell_angle_gamma   89.99947996
_symmetry_Int_Tables_number   1
_chemical_formula_structural   AgH4C2SO3
_chemical_formula_sum   'Ag4 H16 C8 S4 O12'
_cell_volume   459.31224950
_cell_formula_units_Z   4
loop_
 _symmetry_equiv_pos_site_id
 _symmetry_equiv_pos_as_xyz
  1  'x, y, z'
loop_
 _atom_site_type_symbol
 _atom_site_label
 _atom_site_symmetry_multiplicity
 _atom_site_fract_x
 _atom_site_fract_y
 _atom_site_fract_z
 _atom_site_occupancy
 _atom_site_pbe_bader_charge
 _atom_site_pbe_bader_spin_density
 _atom_site_pbe_cm5_charge
 _atom_site_pbe_ddec_charge
 _atom_site_pbe_ddec_spin_density
 _atom_site_pbe_ddec_sum_bond_order
 _atom_site_pbe_magmom
Ag  Ag0  1  0.11160540  0.79779559  0.05784602  1  0.674689  0  0.438389  0.502633  0  1.919668  0
Ag  Ag1  1  0.61161298  0.70220553  0.94215294  1  0.674698  0  0.43838  0.502603  0  1.919633  0
Ag  Ag2  1  0.88838219  0.20220539  0.94215260  1  0.674727  0  0.438413  0.502641  0  1.919658  0
Ag  Ag3  1  0.38839318  0.29780440  0.05784670  1  0.674741  0  0.438372  0.502584  0  1.919563  0
H  H4  1  0.51107881  0.35081355  0.35490793  1  0.109335  0  0.110541  0.144591  0  0.991847  0
H  H5  1  0.01105589  0.14917330  0.64508526  1  0.109084  0  0.110535  0.144609  0  0.991911  0
H  H6  1  0.48892115  0.64918697  0.64508557  1  0.109189  0  0.110504  0.144496  0  0.991947  0
H  H7  1  0.98892757  0.85081208  0.35490722  1  0.109277  0  0.110522  0.144613  0  0.991871  0
H  H8  1  0.81870034  0.32996505  0.45530689  1  0.075633  0  0.107765  0.130098  0  0.998834  0
H  H9  1  0.31867146  0.17004058  0.54468832  1  0.07562  0  0.107782  0.13011  0  0.998807  0
H  H10  1  0.18128931  0.67003465  0.54469583  1  0.075446  0  0.107748  0.130042  0  0.998875  0
H  H11  1  0.68129756  0.82996090  0.45530210  1  0.075491  0  0.107753  0.130062  0  0.998882  0
H  H12  1  0.77831799  0.57843862  0.46958311  1  0.028507  0  0.089223  0.084228  0  1.00668  0
H  H13  1  0.27834285  0.92156486  0.53041583  1  0.028349  0  0.089203  0.084272  0  1.006592  0
H  H14  1  0.22167785  0.42155902  0.53041960  1  0.028898  0  0.089227  0.084252  0  1.006607  0
H  H15  1  0.72168394  0.07842801  0.46958893  1  0.02844  0  0.089233  0.08431  0  1.006599  0
H  H16  1  0.49032386  0.61392423  0.35847996  1  0.108916  0  0.093133  0.108684  0  1.015579  0
H  H17  1  0.99035143  0.88606471  0.64152204  1  0.108885  0  0.093127  0.108639  0  1.015617  0
H  H18  1  0.50966992  0.38607110  0.64152685  1  0.108849  0  0.093132  0.108628  0  1.015622  0
H  H19  1  0.00967123  0.11392081  0.35847658  1  0.108931  0  0.093124  0.108665  0  1.015609  0
C  C20  1  0.68693442  0.40824687  0.38244398  1  -0.159896  0  -0.149932  -0.32132  0  3.851043  0
C  C21  1  0.18692468  0.09174849  0.61755226  1  -0.159518  0  -0.150007  -0.32152  0  3.850991  0
C  C22  1  0.31306349  0.59175308  0.61755464  1  -0.159375  0  -0.149885  -0.321068  0  3.850947  0
C  C23  1  0.81307116  0.90824591  0.38244431  1  -0.159705  0  -0.14992  -0.321326  0  3.850993  0
C  C24  1  0.59502056  0.52930104  0.43852224  1  -0.05579  0  -0.171549  -0.124364  0  3.928628  0
C  C25  1  0.09502997  0.97069130  0.56147569  1  -0.024581  0  -0.171526  -0.124302  0  3.928674  0
C  C26  1  0.40497735  0.47069454  0.56148047  1  -0.025038  0  -0.171587  -0.124479  0  3.928655  0
C  C27  1  0.90498237  0.02929866  0.43852190  1  -0.055671  0  -0.171535  -0.124425  0  3.928669  0
S  S28  1  0.88354958  0.46982228  0.22718280  1  3.082463  0  0.516729  1.214209  0  5.99627  0
S  S29  1  0.38354530  0.03018583  0.77281548  1  3.082453  0  0.516717  1.214414  0  5.995802  0
S  S30  1  0.11645658  0.53018645  0.77282401  1  3.081787  0  0.516506  1.213909  0  5.996369  0
S  S31  1  0.61645054  0.96981811  0.22717700  1  3.080739  0  0.516619  1.213998  0  5.996182  0
O  O32  1  0.03077358  0.60225493  0.23223341  1  -1.276425  0  -0.341076  -0.554902  0  2.353275  0
O  O33  1  0.53078560  0.89775516  0.76775942  1  -1.276275  0  -0.34099  -0.554932  0  2.353297  0
O  O34  1  0.96922845  0.39775148  0.76777750  1  -1.277184  0  -0.341042  -0.554804  0  2.353334  0
O  O35  1  0.46922881  0.10225528  0.23223204  1  -1.276319  0  -0.341089  -0.554863  0  2.353193  0
O  O36  1  0.67764364  0.50208962  0.11348465  1  -1.281432  0  -0.355564  -0.597714  0  2.4908  0
O  O37  1  0.17762716  0.99790978  0.88651431  1  -1.281429  0  -0.35561  -0.597816  0  2.490661  0
O  O38  1  0.32237902  0.49792174  0.88651704  1  -1.281485  0  -0.355361  -0.597561  0  2.490942  0
O  O39  1  0.82236250  0.00208862  0.11347612  1  -1.28133  0  -0.355465  -0.597595  0  2.490862  0
O  O40  1  0.06689322  0.35049627  0.22541288  1  -1.321602  0  -0.337658  -0.586104  0  2.33559  0
O  O41  1  0.56685801  0.14951302  0.77459566  1  -1.321783  0  -0.337632  -0.586147  0  2.335308  0
O  O42  1  0.93312945  0.64951697  0.77459597  1  -1.320193  0  -0.337626  -0.586015  0  2.33521  0
O  O43  1  0.43311513  0.85049415  0.22540296  1  -1.320111  0  -0.337627  -0.586032  0  2.335407  0
