# generated using pymatgen
data_ZnH20C32NO4
_symmetry_space_group_name_H-M   'P 1'
_cell_length_a   9.27537013
_cell_length_b   18.24686726
_cell_length_c   19.32663415
_cell_angle_alpha   89.42263259
_cell_angle_beta   90.24699149
_cell_angle_gamma   90.18485917
_symmetry_Int_Tables_number   1
_chemical_formula_structural   ZnH20C32NO4
_chemical_formula_sum   'Zn2 H40 C64 N2 O8'
_cell_volume   3270.75113733
_cell_formula_units_Z   2
loop_
 _symmetry_equiv_pos_site_id
 _symmetry_equiv_pos_as_xyz
  1  'x, y, z'
loop_
 _atom_site_type_symbol
 _atom_site_label
 _atom_site_symmetry_multiplicity
 _atom_site_fract_x
 _atom_site_fract_y
 _atom_site_fract_z
 _atom_site_occupancy
 _atom_site_pbe_bader_charge
 _atom_site_pbe_bader_spin_density
 _atom_site_pbe_cm5_charge
 _atom_site_pbe_ddec_charge
 _atom_site_pbe_ddec_spin_density
 _atom_site_pbe_ddec_sum_bond_order
 _atom_site_pbe_magmom
Zn  Zn0  1  0.48596704  0.42404326  0.49859465  1  1.266865  0  0.667987  0.813653  0  2.430682  0
Zn  Zn1  1  0.48742471  0.57623393  0.50150652  1  1.27222  0  0.668289  0.813955  0  2.441696  0
H  H2  1  0.73037828  0.56332943  0.30288441  1  0.088646  0  0.105795  0.111372  0  0.98802  0
H  H3  1  0.63819772  0.69092006  0.58269204  1  0.145547  0  0.133481  0.1103  0  0.962015  0
H  H4  1  0.62928903  0.30909139  0.58139962  1  0.139889  0  0.131662  0.110012  0  0.97127  0
H  H5  1  0.34352075  0.69370326  0.42161635  1  0.120857  0  0.132891  0.109451  0  0.961041  0
H  H6  1  0.35129897  0.16978266  0.40993534  1  0.076276  0  0.112401  0.117673  0  0.993892  0
H  H7  1  0.64800219  0.82782794  0.58646403  1  0.091138  0  0.112311  0.117653  0  0.995217  0
H  H8  1  0.64207871  0.17209550  0.58564501  1  0.077392  0  0.112474  0.118333  0  0.99392  0
H  H9  1  0.34498188  0.83062251  0.41551567  1  0.068525  0  0.111835  0.11694  0  0.995667  0
H  H10  1  0.72274036  0.06809362  0.52768920  1  0.080285  0  0.10616  0.105377  0  0.996304  0
H  H11  1  0.27280358  0.93229967  0.47216339  1  0.048612  0  0.105894  0.104089  0  0.997723  0
H  H12  1  0.27292166  0.06724755  0.47056409  1  0.098669  0  0.105975  0.104573  0  0.997595  0
H  H13  1  0.73806465  0.43746227  0.69909101  1  0.065723  0  0.104377  0.10797  0  0.991795  0
H  H14  1  0.72285066  0.93300982  0.52890541  1  0.033706  0  0.10614  0.105132  0  0.996806  0
H  H15  1  0.44218129  0.31850938  0.03447277  1  0.068683  0  0.098422  0.097678  0  1.00666  0
H  H16  1  0.45324300  0.20284426  0.10257867  1  0.055859  0  0.097455  0.092116  0  0.99776  0
H  H17  1  0.66041724  0.17925585  0.18240828  1  0.042275  0  0.095228  0.088353  0  1.005829  0
H  H18  1  0.85558613  0.27281453  0.19334344  1  0.062536  0  0.098918  0.093691  0  0.99489  0
H  H19  1  0.84180959  0.38915748  0.12620051  1  0.052646  0  0.09992  0.100273  0  0.997697  0
H  H20  1  0.43846457  0.68025944  0.96450301  1  0.07113  0  0.098587  0.097673  0  1.005239  0
H  H21  1  0.44854239  0.79571246  0.89599568  1  0.03809  0  0.097722  0.09193  0  0.99696  0
H  H22  1  0.65652121  0.82065712  0.81781084  1  0.046691  0  0.094315  0.086856  0  1.007917  0
H  H23  1  0.85387865  0.72862095  0.80879155  1  0.051739  0  0.098243  0.092995  0  0.995813  0
H  H24  1  0.35376498  0.56252578  0.73284903  1  0.070361  0  0.104795  0.109775  0  0.990759  0
H  H25  1  0.84093162  0.61242824  0.87624583  1  0.063474  0  0.09976  0.099775  0  0.998223  0
H  H26  1  0.84481894  0.33158058  0.95676641  1  0.069973  0  0.099729  0.100162  0  0.997162  0
H  H27  1  0.84375992  0.21599350  0.89007455  1  0.059035  0  0.097833  0.092619  0  0.997401  0
H  H28  1  0.62764627  0.18127543  0.82042912  1  0.027003  0  0.094527  0.087774  0  1.007339  0
H  H29  1  0.41317893  0.26348397  0.81787380  1  0.053271  0  0.0992  0.095097  0  0.994369  0
H  H30  1  0.41659599  0.37958437  0.88339103  1  0.047865  0  0.100373  0.100728  0  0.997954  0
H  H31  1  0.84008868  0.67016820  0.04514763  1  0.041307  0  0.099647  0.100164  0  0.996944  0
H  H32  1  0.83612566  0.78605490  0.11135337  1  0.042917  0  0.097497  0.091406  0  0.998648  0
H  H33  1  0.61869218  0.81933036  0.17943910  1  0.049152  0  0.095378  0.088585  0  1.005554  0
H  H34  1  0.40558642  0.73552116  0.18071899  1  0.051269  0  0.098144  0.092624  0  0.997786  0
H  H35  1  0.35123867  0.43378956  0.26543954  1  0.084921  0  0.102574  0.105608  0  0.994739  0
H  H36  1  0.41185651  0.61907705  0.11576798  1  0.047494  0  0.100323  0.10044  0  0.997576  0
H  H37  1  0.79094292  0.55970505  0.17748118  1  0.037495  0  0.099473  0.100716  0  1.002907  0
H  H38  1  0.79608084  0.44230418  0.82490070  1  0.057823  0  0.099298  0.100619  0  1.00214  0
H  H39  1  0.40539383  0.56282512  0.85958874  1  0.057642  0  0.098129  0.098379  0  1.006945  0
H  H40  1  0.40498585  0.43469190  0.13919796  1  0.049095  0  0.097692  0.098124  0  1.008091  0
H  H41  1  0.35139868  0.30683820  0.41375877  1  0.10935  0  0.132767  0.109959  0  0.963474  0
C  C42  1  0.50850620  0.49676836  0.63287043  1  1.569798  0  0.214004  0.596583  0  4.17394  0
C  C43  1  0.41010928  0.80229767  0.45437806  1  0.025151  0  -0.081237  -0.182521  0  3.95713  0
C  C44  1  0.49660784  0.15862333  0.49803073  1  0.029026  0  0.014324  0.110685  0  3.999992  0
C  C45  1  0.49663426  0.84164182  0.50099752  1  -0.095865  0  0.014757  0.110859  0  3.999586  0
C  C46  1  0.62316255  0.03850151  0.51632290  1  0.017292  0  -0.085363  -0.121388  0  3.985103  0
C  C47  1  0.37252517  0.96186408  0.48324812  1  0.084176  0  -0.084958  -0.119115  0  3.985687  0
C  C48  1  0.37256138  0.03802232  0.48236768  1  -0.195718  0  -0.085327  -0.121239  0  3.987981  0
C  C49  1  0.62319465  0.96223133  0.51705164  1  -0.07634  0  -0.085064  -0.120948  0  3.984621  0
C  C50  1  0.49784066  0.92247361  0.50048978  1  0.029556  0  -0.005109  0.062427  0  4.000515  0
C  C51  1  0.49786992  0.07779613  0.49883000  1  -0.036902  0  -0.004667  0.062865  0  4.000216  0
C  C52  1  0.76625223  0.50165221  0.50040809  1  1.712256  0  0.216039  0.655892  0  4.252914  0
C  C53  1  0.50310475  0.50102944  0.36711037  1  1.577923  0  0.214092  0.59667  0  4.172991  0
C  C54  1  0.20888068  0.50187428  0.49942191  1  1.622084  0  0.218797  0.663654  0  4.238719  0
C  C55  1  0.92209742  0.50167152  0.49999248  1  -0.198208  0  -0.036894  -0.127259  0  3.961323  0
C  C56  1  0.05305541  0.50183306  0.49961109  1  -0.010507  0  -0.037026  -0.130607  0  3.959092  0
C  C57  1  0.66048335  0.53465629  0.26656438  1  0.011722  0  -0.084291  -0.090206  0  3.975842  0
C  C58  1  0.66623717  0.46531207  0.73466107  1  -0.080243  0  -0.086378  -0.093485  0  3.984074  0
C  C59  1  0.44967011  0.53570003  0.75365806  1  -0.047892  0  -0.087782  -0.09675  0  3.993669  0
C  C60  1  0.44670334  0.46180337  0.24558511  1  -0.058949  0  -0.088459  -0.097445  0  3.997861  0
C  C61  1  0.69380454  0.53251415  0.19642194  1  -0.100074  0  -0.091853  -0.131946  0  3.996157  0
C  C62  1  0.69828364  0.46815222  0.80504435  1  -0.030961  0  -0.091626  -0.130448  0  3.996142  0
C  C63  1  0.47953294  0.53624163  0.82421579  1  -0.020811  0  -0.092787  -0.131817  0  3.997083  0
C  C64  1  0.41308542  0.27412037  0.45090137  1  0.453586  0  0.064327  0.109663  0  3.918191  0
C  C65  1  0.47773487  0.46193538  0.17524430  1  -0.065303  0  -0.094087  -0.135089  0  3.997229  0
C  C66  1  0.60160904  0.49724248  0.14954155  1  0.05445  0  -0.008069  0.073822  0  4.014313  0
C  C67  1  0.60410532  0.50251653  0.85101834  1  -0.059174  0  -0.008352  0.070514  0  4.018726  0
C  C68  1  0.53673593  0.49929493  0.29162871  1  -0.006259  0  -0.017075  -0.023663  0  3.974353  0
C  C69  1  0.54172439  0.49903294  0.70850387  1  0.048287  0  -0.017341  -0.025547  0  3.978654  0
C  C70  1  0.63359760  0.43255502  0.03655400  1  0.09757  0  -0.005318  -0.022785  0  3.961255  0
C  C71  1  0.63234187  0.56762497  0.96421224  1  -0.052205  0  -0.005465  -0.022563  0  3.961987  0
C  C72  1  0.63197391  0.43359789  0.96354610  1  -0.083193  0  -0.004609  -0.018305  0  3.954966  0
C  C73  1  0.62947936  0.56656535  0.03720131  1  0.056059  0  -0.004198  -0.018365  0  3.955262  0
C  C74  1  0.62689891  0.50119275  0.92734178  1  -0.009089  0  -0.004726  -0.018442  0  3.957966  0
C  C75  1  0.57490575  0.72469899  0.54704427  1  0.510659  0  0.065442  0.11313  0  3.913467  0
C  C76  1  0.62560029  0.49892987  0.07337893  1  -0.098346  0  -0.00437  -0.018392  0  3.955773  0
C  C77  1  0.64117116  0.36180730  0.07562357  1  0.005748  0  -0.007799  0.075615  0  4.011599  0
C  C78  1  0.53279216  0.30846821  0.06938649  1  -0.031783  0  -0.091564  -0.128434  0  3.986789  0
C  C79  1  0.53926499  0.24337355  0.10768822  1  -0.025467  0  -0.098601  -0.087255  0  4.053566  0
C  C80  1  0.65522527  0.23015505  0.15243568  1  -0.049756  0  -0.101985  -0.101217  0  4.06005  0
C  C81  1  0.76454124  0.28257003  0.15856723  1  -0.040197  0  -0.096556  -0.083059  0  4.047582  0
C  C82  1  0.75718510  0.34795619  0.12068573  1  -0.105472  0  -0.090855  -0.129416  0  3.979556  0
C  C83  1  0.63889708  0.63836949  0.92508054  1  -0.026081  0  -0.007572  0.075987  0  4.007871  0
C  C84  1  0.52942174  0.69086103  0.93025113  1  -0.060183  0  -0.090115  -0.126992  0  3.982285  0
C  C85  1  0.53540266  0.75584190  0.89173334  1  -0.025795  0  -0.097965  -0.085141  0  4.04844  0
C  C86  1  0.57069477  0.27533376  0.54439341  1  0.522505  0  0.063456  0.110966  0  3.913305  0
C  C87  1  0.65187434  0.76977720  0.84784597  1  -0.042006  0  -0.101888  -0.101058  0  4.05991  0
C  C88  1  0.76231466  0.71823537  0.84280441  1  -0.089697  0  -0.097861  -0.085169  0  4.049913  0
C  C89  1  0.75542631  0.65297637  0.88089700  1  -0.029887  0  -0.091081  -0.128997  0  3.978525  0
C  C90  1  0.63074525  0.36340389  0.92463465  1  -0.007088  0  -0.006649  0.07608  0  4.009174  0
C  C91  1  0.75037989  0.31663352  0.92610891  1  -0.052823  0  -0.091684  -0.131276  0  3.982365  0
C  C92  1  0.74951034  0.25161600  0.88865517  1  -0.075013  0  -0.098272  -0.086764  0  4.053379  0
C  C93  1  0.62843703  0.23211523  0.84962428  1  -0.035153  0  -0.102555  -0.102515  0  4.062523  0
C  C94  1  0.50823084  0.27808691  0.84825643  1  -0.032764  0  -0.096995  -0.086586  0  4.048379  0
C  C95  1  0.50970379  0.34326481  0.88531048  1  -0.041425  0  -0.089704  -0.125877  0  3.978989  0
C  C96  1  0.62623899  0.63681588  0.07594493  1  -0.046784  0  -0.006745  0.076922  0  4.010239  0
C  C97  1  0.40958813  0.72623788  0.45669162  1  0.451676  0  0.064015  0.111909  0  3.91824  0
C  C98  1  0.74503527  0.68453591  0.07509890  1  0.020289  0  -0.09205  -0.132422  0  3.983776  0
C  C99  1  0.74250530  0.74969825  0.11226062  1  -0.069455  0  -0.097677  -0.085246  0  4.053197  0
C  C100  1  0.62062266  0.76839265  0.15040106  1  -0.055205  0  -0.101439  -0.100329  0  4.05978  0
C  C101  1  0.50131110  0.72146609  0.15111831  1  -0.014704  0  -0.097385  -0.085498  0  4.052071  0
C  C102  1  0.50434804  0.65611524  0.11434736  1  -0.051217  0  -0.089671  -0.126968  0  3.980191  0
C  C103  1  0.41348994  0.19804604  0.44952623  1  0.036057  0  -0.080722  -0.181611  0  3.955364  0
C  C104  1  0.58055204  0.80077686  0.54807446  1  -0.036139  0  -0.080564  -0.181835  0  3.951774  0
C  C105  1  0.57713264  0.19931199  0.54600046  1  -0.031148  0  -0.080425  -0.181811  0  3.953218  0
N  N106  1  0.48985896  0.31204269  0.49772401  1  -1.233504  0  -0.316529  -0.192465  0  3.513877  0
N  N107  1  0.49054338  0.68815659  0.50226560  1  -1.228029  0  -0.317401  -0.194032  0  3.516659  0
O  O108  1  0.53717723  0.43743320  0.60148637  1  -1.165317  0  -0.318603  -0.555663  0  2.323966  0
O  O109  1  0.53221956  0.56026017  0.39872307  1  -1.168936  0  -0.319908  -0.553754  0  2.319904  0
O  O110  1  0.44992245  0.44308014  0.39445103  1  -1.174802  0  -0.323619  -0.557717  0  2.298146  0
O  O111  1  0.45551801  0.55445042  0.60521857  1  -1.170654  0  -0.322653  -0.553452  0  2.295892  0
O  O112  1  0.70456735  0.44317812  0.48031132  1  -1.147809  0  -0.312534  -0.538312  0  2.252022  0
O  O113  1  0.26995772  0.56215729  0.48296868  1  -1.142027  0  -0.314468  -0.543242  0  2.259616  0
O  O114  1  0.26958288  0.44163363  0.51581876  1  -1.136211  0  -0.314912  -0.539468  0  2.250601  0
O  O115  1  0.70613177  0.56021495  0.52076618  1  -1.150743  0  -0.313434  -0.542936  0  2.261878  0
