# generated using pymatgen
data_SnH18C15S2(NO)2
_symmetry_space_group_name_H-M   'P 1'
_cell_length_a   9.84692887
_cell_length_b   13.61788343
_cell_length_c   14.44217252
_cell_angle_alpha   83.15926581
_cell_angle_beta   78.01056666
_cell_angle_gamma   88.52364061
_symmetry_Int_Tables_number   1
_chemical_formula_structural   SnH18C15S2(NO)2
_chemical_formula_sum   'Sn4 H72 C60 S8 N8 O8'
_cell_volume   1880.88111774
_cell_formula_units_Z   4
loop_
 _symmetry_equiv_pos_site_id
 _symmetry_equiv_pos_as_xyz
  1  'x, y, z'
loop_
 _atom_site_type_symbol
 _atom_site_label
 _atom_site_symmetry_multiplicity
 _atom_site_fract_x
 _atom_site_fract_y
 _atom_site_fract_z
 _atom_site_occupancy
 _atom_site_pbe_bader_charge
 _atom_site_pbe_bader_spin_density
 _atom_site_pbe_cm5_charge
 _atom_site_pbe_ddec_charge
 _atom_site_pbe_ddec_spin_density
 _atom_site_pbe_ddec_sum_bond_order
 _atom_site_pbe_magmom
Sn  Sn0  1  0.92537629  0.77481102  0.95833411  1  1.680883  0  0.519036  1.2303  0  3.351919  0
Sn  Sn1  1  0.07465148  0.22516297  0.04170224  1  1.680676  0  0.518849  1.229911  0  3.352038  0
Sn  Sn2  1  0.40274635  0.72897404  0.04618773  1  1.688177  0  0.512233  1.221384  0  3.370033  0
Sn  Sn3  1  0.59726241  0.27102333  0.95380394  1  1.688307  0  0.512213  1.22129  0  3.369915  0
H  H4  1  0.71707090  0.85479236  0.08444494  1  0.038609  0  0.080167  0.161817  0  1.083693  0
H  H5  1  0.28292022  0.14520770  0.91556629  1  0.038721  0  0.080136  0.161802  0  1.083714  0
H  H6  1  0.86040321  0.93815685  0.04625083  1  0.032111  0  0.081596  0.166134  0  1.04939  0
H  H7  1  0.13959211  0.06183875  0.95376302  1  0.0329  0  0.081592  0.166113  0  1.049365  0
H  H8  1  0.74148553  0.92493457  0.96959624  1  0.054567  0  0.089033  0.182923  0  1.032413  0
H  H9  1  0.25855361  0.07503260  0.03039417  1  0.054248  0  0.089082  0.183109  0  1.032239  0
H  H10  1  0.10755538  0.91941380  0.87100025  1  0.03935  0  0.078516  0.160765  0  1.065896  0
H  H11  1  0.89245057  0.08055730  0.12902635  1  0.039489  0  0.078424  0.160716  0  1.065948  0
H  H12  1  0.19772689  0.80413196  0.87026196  1  0.062064  0  0.076628  0.157296  0  1.096384  0
H  H13  1  0.80229247  0.19584601  0.12974818  1  0.062118  0  0.07671  0.157267  0  1.096556  0
H  H14  1  0.08788379  0.83800762  0.78650159  1  0.031617  0  0.078233  0.159504  0  1.057934  0
H  H15  1  0.91209422  0.16195519  0.21353400  1  0.031542  0  0.078268  0.159556  0  1.057711  0
H  H16  1  0.99430455  0.58343939  0.94839110  1  0.054538  0  0.085099  0.172028  0  1.054427  0
H  H17  1  0.00568381  0.41652291  0.05162645  1  0.05478  0  0.085086  0.171925  0  1.054451  0
H  H18  1  0.92916525  0.60062129  0.07028365  1  0.065839  0  0.082192  0.168724  0  1.083416  0
H  H19  1  0.07083167  0.39931365  0.92973823  1  0.065903  0  0.082115  0.168667  0  1.083509  0
H  H20  1  0.81098162  0.59326644  0.99187699  1  0.061754  0  0.087515  0.179968  0  1.037245  0
H  H21  1  0.18901381  0.40672020  0.00814537  1  0.061984  0  0.087502  0.179916  0  1.037317  0
H  H22  1  0.70453882  0.73397221  0.70202810  1  0.180838  0  0.114078  0.121909  0  1.036821  0
H  H23  1  0.29551554  0.26604477  0.29800007  1  0.181259  0  0.114198  0.121958  0  1.036946  0
H  H24  1  0.73646029  0.40071637  0.73036519  1  0.125114  0  0.10478  0.125339  0  1.041742  0
H  H25  1  0.26352651  0.59929723  0.26962380  1  0.125268  0  0.104825  0.125383  0  1.041871  0
H  H26  1  0.85241505  0.35368929  0.57169899  1  0.117948  0  0.103646  0.101338  0  1.020903  0
H  H27  1  0.14755008  0.64630875  0.42829053  1  0.118092  0  0.103716  0.101405  0  1.020776  0
H  H28  1  0.87966013  0.48309945  0.42870386  1  0.059268  0  0.096783  0.09962  0  1.055964  0
H  H29  1  0.12030812  0.51689643  0.57128128  1  0.058724  0  0.096732  0.099578  0  1.055948  0
H  H30  1  0.78527262  0.65287728  0.45203182  1  0.07551  0  0.098532  0.060019  0  1.045134  0
H  H31  1  0.21471742  0.34712161  0.54795337  1  0.075716  0  0.098527  0.060014  0  1.045198  0
H  H32  1  0.30718320  0.94628065  0.72202938  1  0.083418  0  0.098483  0.107279  0  1.038072  0
H  H33  1  0.69279669  0.05369939  0.27798618  1  0.083696  0  0.098404  0.107187  0  1.038403  0
H  H34  1  0.36923698  0.12508250  0.70551802  1  0.085804  0  0.093634  0.081513  0  1.056211  0
H  H35  1  0.63071486  0.87490319  0.29451343  1  0.085957  0  0.093696  0.08158  0  1.056056  0
H  H36  1  0.60634597  0.17108644  0.72996957  1  0.102939  0  0.106082  0.116156  0  1.015436  0
H  H37  1  0.39360671  0.82891573  0.27004277  1  0.103341  0  0.106131  0.116216  0  1.015451  0
H  H38  1  0.76631605  0.03540395  0.77004677  1  0.10689  0  0.098261  0.054444  0  1.054328  0
H  H39  1  0.23367176  0.96461190  0.22993977  1  0.106848  0  0.098361  0.054552  0  1.054131  0
H  H40  1  0.44549884  0.92230028  0.05147817  1  0.06955  0  0.084318  0.1696  0  1.055085  0
H  H41  1  0.55450373  0.07769472  0.94852501  1  0.069757  0  0.08434  0.16966  0  1.055098  0
H  H42  1  0.43560468  0.90421789  0.93253649  1  0.052589  0  0.081353  0.167256  0  1.07788  0
H  H43  1  0.56438740  0.09578897  0.06746214  1  0.052508  0  0.081335  0.167238  0  1.077963  0
H  H44  1  0.27986183  0.90563850  0.02217696  1  0.046199  0  0.086035  0.17503  0  1.049999  0
H  H45  1  0.72013765  0.09435500  0.97782751  1  0.046267  0  0.086057  0.175079  0  1.049914  0
H  H46  1  0.26717381  0.64194083  0.92901607  1  0.046585  0  0.079248  0.163077  0  1.076303  0
H  H47  1  0.73282235  0.35806990  0.07096772  1  0.046957  0  0.079343  0.163183  0  1.076327  0
H  H48  1  0.39842407  0.56102536  0.96368483  1  0.032733  0  0.077529  0.160853  0  1.069248  0
H  H49  1  0.60156903  0.43897875  0.03629592  1  0.032701  0  0.077477  0.160796  0  1.069172  0
H  H50  1  0.23782303  0.57539533  0.04612115  1  0.053408  0  0.088001  0.179564  0  1.038484  0
H  H51  1  0.76217319  0.42460801  0.95386269  1  0.052001  0  0.088033  0.179663  0  1.038331  0
H  H52  1  0.54269302  0.59224238  0.14248599  1  0.019517  0  0.074934  0.156624  0  1.081049  0
H  H53  1  0.45729291  0.40775555  0.85751650  1  0.019586  0  0.074986  0.156639  0  1.080976  0
H  H54  1  0.62967626  0.70775521  0.12634751  1  0.080865  0  0.078297  0.158705  0  1.098386  0
H  H55  1  0.37031385  0.29224053  0.87365391  1  0.081349  0  0.078309  0.158758  0  1.098368  0
H  H56  1  0.47715590  0.68472809  0.21812051  1  0.031878  0  0.078597  0.160008  0  1.064253  0
H  H57  1  0.52282895  0.31527358  0.78187829  1  0.031412  0  0.078578  0.15999  0  1.064292  0
H  H58  1  0.02724655  0.72555099  0.30844422  1  0.174333  0  0.117149  0.123464  0  1.03055  0
H  H59  1  0.97276517  0.27446620  0.69155886  1  0.174777  0  0.117141  0.12348  0  1.030464  0
H  H60  1  0.62129293  0.55895047  0.30016352  1  0.095807  0  0.105266  0.121594  0  1.001191  0
H  H61  1  0.37872915  0.44106264  0.69981149  1  0.096016  0  0.105264  0.121576  0  1.000948  0
H  H62  1  0.65623656  0.37613737  0.30766870  1  0.066452  0  0.094395  0.086051  0  1.051984  0
H  H63  1  0.34377514  0.62387567  0.69230988  1  0.065998  0  0.094417  0.086091  0  1.052054  0
H  H64  1  0.90125220  0.30977421  0.26776408  1  0.100113  0  0.104164  0.110805  0  1.023249  0
H  H65  1  0.09876370  0.69023867  0.73222914  1  0.099863  0  0.104215  0.110801  0  1.02317  0
H  H66  1  0.09748936  0.42984548  0.22338453  1  0.088861  0  0.101978  0.062312  0  1.053607  0
H  H67  1  0.90252553  0.57016582  0.77661731  1  0.088938  0  0.101972  0.062376  0  1.053554  0
H  H68  1  0.81139087  0.01523233  0.39835612  1  0.076866  0  0.104192  0.114647  0  1.008477  0
H  H69  1  0.18860837  0.98478212  0.60162616  1  0.077252  0  0.104172  0.114556  0  1.008412  0
H  H70  1  0.77106088  0.00439068  0.57598902  1  0.079678  0  0.106084  0.102464  0  1.002728  0
H  H71  1  0.22894970  0.99563194  0.42399151  1  0.079695  0  0.106024  0.102439  0  1.002824  0
H  H72  1  0.87087833  0.85987948  0.66593285  1  0.064816  0  0.105695  0.115214  0  1.035091  0
H  H73  1  0.12912909  0.14014902  0.33404960  1  0.065309  0  0.105662  0.115291  0  1.034965  0
H  H74  1  0.00803723  0.73352922  0.57240598  1  0.072107  0  0.109829  0.074808  0  0.997988  0
H  H75  1  0.99195061  0.26648438  0.42758356  1  0.071734  0  0.109901  0.074874  0  0.997813  0
C  C76  1  0.79431317  0.88640837  0.02308170  1  -0.42996  0  -0.33463  -0.747035  0  3.752781  0
C  C77  1  0.20570096  0.11357469  0.97693421  1  -0.430613  0  -0.334588  -0.747092  0  3.752608  0
C  C78  1  0.10162566  0.84164362  0.85940380  1  -0.476125  0  -0.344829  -0.751343  0  3.756243  0
C  C79  1  0.89838341  0.15832822  0.14062367  1  -0.476328  0  -0.344826  -0.75125  0  3.756143  0
C  C80  1  0.91320818  0.61862681  0.99758197  1  -0.457248  0  -0.335198  -0.73538  0  3.719547  0
C  C81  1  0.08679779  0.38134210  0.00244208  1  -0.457508  0  -0.335056  -0.735074  0  3.719672  0
C  C82  1  0.69466587  0.74037851  0.85390256  1  1.616644  0  0.221414  0.586192  0  4.231045  0
C  C83  1  0.30534931  0.25960735  0.14612676  1  1.616902  0  0.221237  0.585939  0  4.231652  0
C  C84  1  0.63278879  0.71545110  0.77064425  1  -0.205796  0  -0.06  -0.175425  0  3.858104  0
C  C85  1  0.36723346  0.28455341  0.22937108  1  -0.206901  0  -0.060032  -0.175571  0  3.858828  0
C  C86  1  0.69551518  0.55104147  0.67169789  1  0.399061  0  0.114415  0.181232  0  4.072631  0
C  C87  1  0.30447995  0.44896849  0.32828821  1  0.399089  0  0.114565  0.181408  0  4.072519  0
C  C88  1  0.74399714  0.45358632  0.66668388  1  -0.004937  0  -0.094329  -0.179605  0  3.957402  0
C  C89  1  0.25598864  0.54642650  0.33330880  1  -0.00506  0  -0.09445  -0.179689  0  3.95759  0
C  C90  1  0.81006725  0.42809637  0.57792397  1  -0.110939  0  -0.075675  -0.022928  0  3.966863  0
C  C91  1  0.18989995  0.57190243  0.42206448  1  -0.111152  0  -0.075706  -0.022873  0  3.966665  0
C  C92  1  0.82588625  0.49977084  0.49876447  1  0.046072  0  -0.097904  -0.146733  0  3.995254  0
C  C93  1  0.17408513  0.50022498  0.50122646  1  0.046579  0  -0.097895  -0.146731  0  3.995123  0
C  C94  1  0.77412826  0.59443206  0.51182378  1  0.448008  0  0.036512  0.105191  0  3.981482  0
C  C95  1  0.22584825  0.40556975  0.48816096  1  0.448167  0  0.036505  0.105167  0  3.981707  0
C  C96  1  0.50764657  0.89824634  0.75154819  1  0.378089  0  0.117187  0.187258  0  4.06684  0
C  C97  1  0.49235805  0.10175020  0.24845039  1  0.377926  0  0.117135  0.187298  0  4.066738  0
C  C98  1  0.40881147  0.96903122  0.73025600  1  -0.032743  0  -0.094345  -0.178633  0  3.966188  0
C  C99  1  0.59117356  0.03095402  0.26975760  1  -0.032432  0  -0.094348  -0.17867  0  3.966757  0
C  C100  1  0.44367307  0.06839639  0.72200833  1  -0.009841  0  -0.073221  -0.019221  0  3.991459  0
C  C101  1  0.55629324  0.93159176  0.27800557  1  -0.009931  0  -0.07325  -0.019206  0  3.992096  0
C  C102  1  0.57418018  0.09436447  0.73560336  1  -0.063156  0  -0.095157  -0.153435  0  3.97717  0
C  C103  1  0.42578807  0.90563778  0.26440536  1  -0.063488  0  -0.095176  -0.153523  0  3.977961  0
C  C104  1  0.66377837  0.01863667  0.75801741  1  0.445869  0  0.042369  0.100632  0  3.998201  0
C  C105  1  0.33620749  0.98136582  0.24197423  1  0.445533  0  0.042327  0.100695  0  3.997959  0
C  C106  1  0.38948062  0.88469192  0.00788257  1  -0.456335  0  -0.334548  -0.733693  0  3.732576  0
C  C107  1  0.61051465  0.11530605  0.99211858  1  -0.456555  0  -0.334566  -0.733738  0  3.732593  0
C  C108  1  0.31577022  0.61310281  0.98827948  1  -0.438316  0  -0.33648  -0.753938  0  3.765674  0
C  C109  1  0.68422810  0.38689903  0.01170769  1  -0.437319  0  -0.336515  -0.754043  0  3.76565  0
C  C110  1  0.52797345  0.67193548  0.14562660  1  -0.470804  0  -0.347344  -0.752187  0  3.754448  0
C  C111  1  0.47201665  0.32805954  0.85437281  1  -0.470896  0  -0.347357  -0.7522  0  3.754324  0
C  C112  1  0.10013071  0.75696518  0.15584228  1  1.61563  0  0.225565  0.600604  0  4.194544  0
C  C113  1  0.89988320  0.24303877  0.84415560  1  1.616758  0  0.225483  0.600471  0  4.194548  0
C  C114  1  0.98923041  0.76299236  0.24713773  1  -0.191743  0  -0.061489  -0.175117  0  3.852226  0
C  C115  1  0.01078969  0.23701676  0.75286220  1  -0.192715  0  -0.061484  -0.175018  0  3.851763  0
C  C116  1  0.84280118  0.58877243  0.25602369  1  0.369377  0  0.118352  0.187576  0  4.05546  0
C  C117  1  0.15721890  0.41123675  0.74397070  1  0.370442  0  0.118363  0.187678  0  4.055391  0
C  C118  1  0.72501915  0.52751483  0.28268912  1  0.006155  0  -0.089723  -0.17163  0  3.955172  0
C  C119  1  0.27499252  0.47250334  0.71729309  1  0.004971  0  -0.089698  -0.171548  0  3.954836  0
C  C120  1  0.74513570  0.42589756  0.28709646  1  -0.044823  0  -0.074089  -0.02557  0  3.997605  0
C  C121  1  0.25487915  0.57411324  0.71288535  1  -0.044544  0  -0.074119  -0.025837  0  3.997744  0
C  C122  1  0.88050557  0.38880259  0.26582466  1  -0.091654  0  -0.096415  -0.156976  0  3.986106  0
C  C123  1  0.11950617  0.61120959  0.73416508  1  -0.091148  0  -0.096441  -0.156795  0  3.98578  0
C  C124  1  0.99036606  0.45572468  0.24102414  1  0.540302  0  0.040946  0.10031  0  3.990876  0
C  C125  1  0.00965195  0.54428374  0.75897132  1  0.539877  0  0.040892  0.100122  0  3.99086  0
C  C126  1  0.93399693  0.88040903  0.39392589  1  0.416807  0  0.117172  0.18528  0  4.075813  0
C  C127  1  0.06599918  0.11960761  0.60605801  1  0.415487  0  0.117205  0.185188  0  4.075958  0
C  C128  1  0.85485671  0.95467888  0.43948492  1  0.018541  0  -0.092057  -0.177394  0  3.975044  0
C  C129  1  0.14514354  0.04533926  0.56049823  1  0.018713  0  -0.09202  -0.177292  0  3.974884  0
C  C130  1  0.83244092  0.94810031  0.53828820  1  -0.014424  0  -0.070152  -0.011143  0  3.963666  0
C  C131  1  0.16756659  0.05191859  0.46169383  1  -0.014245  0  -0.070186  -0.011098  0  3.963555  0
C  C132  1  0.88835568  0.86838149  0.58836341  1  -0.00246  0  -0.091847  -0.144645  0  3.970614  0
C  C133  1  0.11164973  0.13164105  0.41162271  1  -0.024439  0  -0.091822  -0.144799  0  3.970404  0
C  C134  1  0.96439395  0.79813821  0.53627258  1  0.484676  0  0.045135  0.104553  0  3.986369  0
C  C135  1  0.03559802  0.20187759  0.46371891  1  0.50591  0  0.045109  0.104446  0  3.986349  0
S  S136  1  0.61235980  0.58181985  0.78620744  1  0.084504  0  0.047627  0.019142  0  2.668539  0
S  S137  1  0.38766552  0.41818562  0.21379004  1  0.084474  0  0.047602  0.01912  0  2.66884  0
S  S138  1  0.46538288  0.77144082  0.76354592  1  0.09506  0  0.035425  -0.018657  0  2.735784  0
S  S139  1  0.53464467  0.22854696  0.23644820  1  0.095033  0  0.035377  -0.018648  0  2.735776  0
S  S140  1  0.81730764  0.71805197  0.24750713  1  0.084608  0  0.036577  -0.020845  0  2.77061  0
S  S141  1  0.18271036  0.28195868  0.75248810  1  0.084705  0  0.036687  -0.020708  0  2.770356  0
S  S142  1  0.96527139  0.89221430  0.26706970  1  0.065541  0  0.040443  0.009359  0  2.62786  0
S  S143  1  0.03473515  0.10779786  0.73291939  1  0.065909  0  0.040428  0.009247  0  2.627982  0
N  N144  1  0.70936617  0.62033941  0.59694483  1  -1.19465  0  -0.32852  -0.311479  0  3.358859  0
N  N145  1  0.29063313  0.37966909  0.40304083  1  -1.19496  0  -0.328581  -0.311602  0  3.358834  0
N  N146  1  0.63197861  0.92225410  0.76572699  1  -1.198759  0  -0.317004  -0.289129  0  3.355264  0
N  N147  1  0.36802695  0.07775213  0.23426492  1  -1.198903  0  -0.316923  -0.289163  0  3.355151  0
N  N148  1  0.97296020  0.55439135  0.23558914  1  -1.220804  0  -0.321146  -0.298318  0  3.330809  0
N  N149  1  0.02706093  0.44561779  0.76440926  1  -1.220584  0  -0.321221  -0.298409  0  3.331067  0
N  N150  1  0.98810372  0.80380645  0.44074008  1  -1.221844  0  -0.320233  -0.307826  0  3.376592  0
N  N151  1  0.01188929  0.19620864  0.55924926  1  -1.22078  0  -0.320268  -0.307632  0  3.376809  0
O  O152  1  0.82568356  0.75700607  0.83379638  1  -1.17492  0  -0.279505  -0.525905  0  2.280695  0
O  O153  1  0.17431919  0.24297886  0.16624728  1  -1.174833  0  -0.279547  -0.525802  0  2.280276  0
O  O154  1  0.62140527  0.73616203  0.93686229  1  -1.216539  0  -0.2765  -0.542512  0  2.331959  0
O  O155  1  0.37857872  0.26382602  0.06316364  1  -1.216233  0  -0.27634  -0.542309  0  2.332261  0
O  O156  1  0.22171380  0.73600231  0.17139577  1  -1.181602  0  -0.279274  -0.527096  0  2.283276  0
O  O157  1  0.77830743  0.26399789  0.82860907  1  -1.182063  0  -0.27918  -0.526919  0  2.283536  0
O  O158  1  0.07186182  0.77627713  0.07474434  1  -1.204053  0  -0.279067  -0.544056  0  2.296151  0
O  O159  1  0.92816666  0.22372531  0.92525923  1  -1.204599  0  -0.279153  -0.544185  0  2.295789  0
