# generated using pymatgen
data_AlH6C16NO13
_symmetry_space_group_name_H-M   'P 1'
_cell_length_a   6.73890955
_cell_length_b   20.01933768
_cell_length_c   20.39276705
_cell_angle_alpha   101.76238516
_cell_angle_beta   90.55683646
_cell_angle_gamma   91.29968452
_symmetry_Int_Tables_number   1
_chemical_formula_structural   AlH6C16NO13
_chemical_formula_sum   'Al4 H24 C64 N4 O52'
_cell_volume   2692.40532118
_cell_formula_units_Z   4
loop_
 _symmetry_equiv_pos_site_id
 _symmetry_equiv_pos_as_xyz
  1  'x, y, z'
loop_
 _atom_site_type_symbol
 _atom_site_label
 _atom_site_symmetry_multiplicity
 _atom_site_fract_x
 _atom_site_fract_y
 _atom_site_fract_z
 _atom_site_occupancy
 _atom_site_pbe_bader_charge
 _atom_site_pbe_bader_spin_density
 _atom_site_pbe_cm5_charge
 _atom_site_pbe_ddec_charge
 _atom_site_pbe_ddec_spin_density
 _atom_site_pbe_ddec_sum_bond_order
 _atom_site_pbe_magmom
Al  Al0  1  0.78401865  0.75107470  0.25134851  1  2.499896  0  0.401775  1.643866  0  2.564672  0
Al  Al1  1  0.21598609  0.24892673  0.74865522  1  2.499975  0  0.401784  1.643909  0  2.56473  0
Al  Al2  1  0.28352811  0.75040729  0.24949019  1  2.502734  0  0.400852  1.642376  0  2.568178  0
Al  Al3  1  0.71647816  0.24959603  0.75051304  1  2.502678  0  0.400839  1.642288  0  2.568113  0
H  H4  1  0.79645697  0.58791742  0.93423658  1  0.140194  0  0.116876  0.12934  0  1.004091  0
H  H5  1  0.20353880  0.41208147  0.06576960  1  0.140336  0  0.116916  0.129275  0  1.004162  0
H  H6  1  0.75299285  0.92664959  0.56715562  1  0.141675  0  0.117233  0.128311  0  0.994131  0
H  H7  1  0.24700304  0.07335466  0.43284507  1  0.141589  0  0.11727  0.128378  0  0.994061  0
H  H8  1  0.78723790  0.40395658  0.44619937  1  0.167185  0  0.134253  0.159505  0  0.94556  0
H  H9  1  0.21273373  0.59602638  0.55378814  1  0.166318  0  0.134337  0.159533  0  0.945439  0
H  H10  1  0.29223238  0.09273249  0.05451160  1  0.170953  0  0.131448  0.156397  0  0.955275  0
H  H11  1  0.70777082  0.90726720  0.94548861  1  0.170908  0  0.131463  0.15641  0  0.955295  0
H  H12  1  0.84053540  0.46151941  0.75835037  1  0.630161  0  0.339886  0.379602  0  0.867053  0
H  H13  1  0.15937135  0.53848046  0.24165794  1  0.630835  0  0.339981  0.379599  0  0.866928  0
H  H14  1  0.65724570  0.04392543  0.74049576  1  0.619334  0  0.346807  0.386085  0  0.848026  0
H  H15  1  0.34276206  0.95607877  0.25949948  1  0.619641  0  0.346786  0.386014  0  0.847974  0
H  H16  1  0.09305198  0.21170112  0.92907721  1  0.661978  0  0.343195  0.384425  0  0.861383  0
H  H17  1  0.90696613  0.78830133  0.07091657  1  0.662142  0  0.343213  0.3844  0  0.861295  0
H  H18  1  0.29251482  0.27836522  0.56704101  1  0.636912  0  0.339103  0.380648  0  0.8677  0
H  H19  1  0.70748247  0.72163515  0.43296018  1  0.636972  0  0.339142  0.381324  0  0.867982  0
H  H20  1  0.29832498  0.42260952  0.29899121  1  0.640301  0  0.357954  0.396084  0  0.828631  0
H  H21  1  0.70166180  0.57738673  0.70099741  1  0.640698  0  0.35787  0.396059  0  0.828454  0
H  H22  1  0.80680757  0.07151277  0.20303642  1  0.624001  0  0.359058  0.397851  0  0.825019  0
H  H23  1  0.19320606  0.92848837  0.79696084  1  0.624044  0  0.359067  0.397895  0  0.824933  0
H  H24  1  0.53063080  0.66267784  0.22007418  1  0.635869  0  0.355669  0.43786  0  0.84179  0
H  H25  1  0.46937391  0.33732221  0.77993504  1  0.635852  0  0.355656  0.437782  0  0.841833  0
H  H26  1  0.03928993  0.83808149  0.28404799  1  0.660525  0  0.348932  0.43197  0  0.858913  0
H  H27  1  0.96071778  0.16192053  0.71595124  1  0.660548  0  0.34897  0.432033  0  0.858848  0
C  C28  1  0.53992961  0.82434915  0.17045386  1  1.685288  0  0.277868  0.707631  0  4.174655  0
C  C29  1  0.46007950  0.17564898  0.82954587  1  1.685408  0  0.277714  0.707267  0  4.174726  0
C  C30  1  0.03121106  0.67647776  0.32988048  1  1.68855  0  0.275596  0.702436  0  4.183462  0
C  C31  1  0.96879512  0.32352189  0.67012675  1  1.687357  0  0.275643  0.702624  0  4.183308  0
C  C32  1  0.53679762  0.83842544  0.34871949  1  1.632164  0  0.276724  0.663557  0  4.108693  0
C  C33  1  0.46322361  0.16158336  0.65128083  1  1.631999  0  0.276552  0.663106  0  4.109252  0
C  C34  1  0.02724953  0.66247017  0.15255190  1  1.628006  0  0.274048  0.662857  0  4.121544  0
C  C35  1  0.97274341  0.33753449  0.84745328  1  1.627799  0  0.273995  0.662926  0  4.121307  0
C  C36  1  0.98992566  0.39110034  0.91050703  1  -0.050102  0  0.012231  -0.046449  0  3.892214  0
C  C37  1  0.01006423  0.60890081  0.08950064  1  -0.049599  0  0.012183  -0.046519  0  3.892393  0
C  C38  1  0.46023406  0.10753824  0.58870906  1  0.01832  0  0.011705  -0.049408  0  3.893423  0
C  C39  1  0.53977970  0.89246870  0.41128721  1  0.018538  0  0.011714  -0.049682  0  3.893443  0
C  C40  1  0.87801135  0.57495172  0.97607429  1  -0.009512  0  -0.058377  -0.110828  0  3.893605  0
C  C41  1  0.12198151  0.42504975  0.02393239  1  -0.009737  0  -0.058421  -0.11074  0  3.893502  0
C  C42  1  0.66286638  0.93414576  0.52473290  1  0.008243  0  -0.058899  -0.116762  0  3.899047  0
C  C43  1  0.33713991  0.06585905  0.47526534  1  0.008215  0  -0.058933  -0.116774  0  3.898964  0
C  C44  1  0.91132575  0.62483777  0.03286361  1  0.042794  0  0.003023  -0.030697  0  3.934765  0
C  C45  1  0.08867604  0.37516454  0.96714211  1  0.043151  0  0.003026  -0.030607  0  3.934566  0
C  C46  1  0.65073709  0.88298791  0.46814356  1  0.022156  0  0.004982  -0.023441  0  3.936357  0
C  C47  1  0.34926923  0.11701809  0.53185318  1  0.022356  0  0.004971  -0.023645  0  3.936797  0
C  C48  1  0.08026549  0.54390171  0.08729060  1  0.020702  0  0.004298  -0.083184  0  3.885511  0
C  C49  1  0.91971399  0.45609859  0.91271802  1  0.021594  0  0.004283  -0.083257  0  3.885779  0
C  C50  1  0.43583278  0.95174118  0.41306885  1  0.010953  0  0.007606  -0.073883  0  3.885089  0
C  C51  1  0.56417054  0.04826360  0.58692687  1  0.010854  0  0.007616  -0.074144  0  3.885082  0
C  C52  1  0.05308336  0.49202661  0.02805089  1  0.050149  0  0.01592  0.074637  0  3.946838  0
C  C53  1  0.94690657  0.50797624  0.97195528  1  0.001705  0  0.015926  0.074796  0  3.946983  0
C  C54  1  0.44060186  0.00449016  0.47183513  1  0.01613  0  0.014814  0.072599  0  3.954307  0
C  C55  1  0.55940590  0.99551425  0.52816111  1  -0.042436  0  0.014969  0.073033  0  3.954328  0
C  C56  1  0.08645367  0.46587888  0.44159119  1  0.0265  0  0.015095  -0.064667  0  3.593677  0
C  C57  1  0.91351647  0.53410398  0.55839831  1  0.026612  0  0.015054  -0.064376  0  3.593491  0
C  C58  1  0.58903953  0.03419096  0.05911303  1  0.023651  0  0.01413  -0.06245  0  3.599112  0
C  C59  1  0.41096511  0.96580635  0.94088768  1  0.023616  0  0.014138  -0.062243  0  3.59896  0
C  C60  1  0.88283391  0.44677091  0.47007915  1  0.014916  0  -0.045245  -0.103302  0  3.57853  0
C  C61  1  0.11713778  0.55321435  0.52990987  1  0.016064  0  -0.045465  -0.103452  0  3.578601  0
C  C62  1  0.38527114  0.05138384  0.03026014  1  0.006897  0  -0.047609  -0.106699  0  3.581894  0
C  C63  1  0.61473351  0.94861457  0.96974107  1  0.006544  0  -0.047606  -0.106768  0  3.581956  0
C  C64  1  0.96423496  0.36870789  0.62328811  1  0.021379  0  -0.015653  -0.150198  0  3.916541  0
C  C65  1  0.03576663  0.63128640  0.37671257  1  0.022041  0  -0.01575  -0.150126  0  3.916569  0
C  C66  1  0.45899706  0.13131716  0.87716305  1  0.053932  0  -0.015173  -0.146233  0  3.917023  0
C  C67  1  0.54102095  0.86868084  0.12284072  1  0.053486  0  -0.015165  -0.146313  0  3.916919  0
C  C68  1  0.17595079  0.47709311  0.51431353  1  0.309999  0  0.105041  0.045267  0  3.619611  0
C  C69  1  0.82402233  0.52289026  0.48567598  1  0.31075  0  0.105003  0.045357  0  3.618719  0
C  C70  1  0.67662379  0.02557526  0.98714210  1  0.308351  0  0.105608  0.04395  0  3.613247  0
C  C71  1  0.32338974  0.97442160  0.01285864  1  0.308565  0  0.105548  0.043899  0  3.613198  0
C  C72  1  0.97130615  0.45588818  0.54333958  1  0.122268  0  0.02865  0.104331  0  3.769292  0
C  C73  1  0.02867727  0.54409155  0.45664897  1  0.122547  0  0.028652  0.104623  0  3.768814  0
C  C74  1  0.47117239  0.04483748  0.95768143  1  0.093979  0  0.029317  0.108301  0  3.765041  0
C  C75  1  0.52883814  0.95515836  0.04231930  1  0.094214  0  0.029269  0.10843  0  3.765006  0
C  C76  1  0.95714764  0.40922610  0.58634850  1  -0.20488  0  -0.026386  -0.028846  0  4.05995  0
C  C77  1  0.04282993  0.59075711  0.41364253  1  -0.206506  0  -0.026253  -0.028864  0  4.059818  0
C  C78  1  0.45526959  0.09153743  0.91492385  1  -0.21489  0  -0.025756  -0.031296  0  4.065462  0
C  C79  1  0.54475143  0.90846256  0.08507494  1  -0.214437  0  -0.025818  -0.031459  0  4.065206  0
C  C80  1  0.81530174  0.47225078  0.85276574  1  1.524818  0  0.237916  0.586097  0  4.109974  0
C  C81  1  0.18464364  0.52775106  0.14724875  1  1.526253  0  0.238087  0.586214  0  4.109463  0
C  C82  1  0.68381966  0.04028758  0.64716481  1  1.527407  0  0.239463  0.584505  0  4.125531  0
C  C83  1  0.31618217  0.95971689  0.35283190  1  1.527419  0  0.239502  0.584412  0  4.125631  0
C  C84  1  0.15927405  0.30476459  0.96750001  1  1.548717  0  0.234495  0.576919  0  4.12232  0
C  C85  1  0.84073815  0.69523887  0.03250125  1  1.548687  0  0.234482  0.576899  0  4.122571  0
C  C86  1  0.24958508  0.18306541  0.53151258  1  1.532074  0  0.234095  0.578214  0  4.124128  0
C  C87  1  0.75041226  0.81693743  0.46848361  1  1.532026  0  0.233924  0.57791  0  4.124071  0
C  C88  1  0.16851025  0.42114459  0.38053495  1  1.513823  0  0.232926  0.582681  0  4.14368  0
C  C89  1  0.83147025  0.57883683  0.61945459  1  1.514378  0  0.232784  0.582388  0  4.14435  0
C  C90  1  0.67282834  0.07740778  0.12235591  1  1.551524  0  0.231998  0.576557  0  4.157258  0
C  C91  1  0.32718083  0.92259294  0.87764182  1  1.551505  0  0.231963  0.576403  0  4.157427  0
N  N92  1  0.63927752  0.54787740  0.46330813  1  0.383426  0  0.053323  0.506171  0  4.24741  0
N  N93  1  0.36068977  0.45211016  0.53668488  1  0.38481  0  0.053253  0.505961  0  4.248462  0
N  N94  1  0.13826902  0.94620241  0.03317030  1  0.385732  0  0.0559  0.511188  0  4.232273  0
N  N95  1  0.86173714  0.05379709  0.96682642  1  0.385845  0  0.05584  0.510906  0  4.232425  0
O  O96  1  0.36678487  0.81580510  0.32633690  1  -1.259288  0  -0.22528  -0.589346  0  2.372395  0
O  O97  1  0.63323931  0.18420301  0.67366242  1  -1.259411  0  -0.225113  -0.589113  0  2.372637  0
O  O98  1  0.86360993  0.68060016  0.18008971  1  -1.256871  0  -0.226852  -0.593092  0  2.3636  0
O  O99  1  0.13637855  0.31940416  0.81991146  1  -1.256739  0  -0.226836  -0.593199  0  2.363396  0
O  O100  1  0.70879032  0.80473327  0.18609355  1  -1.224958  0  -0.222031  -0.57391  0  2.304011  0
O  O101  1  0.29121286  0.19526515  0.81391016  1  -1.224929  0  -0.222066  -0.573843  0  2.303949  0
O  O102  1  0.19783232  0.68906071  0.30599843  1  -1.229271  0  -0.221333  -0.567463  0  2.305472  0
O  O103  1  0.80217252  0.31094505  0.69401182  1  -1.227909  0  -0.221322  -0.567519  0  2.305506  0
O  O104  1  0.70355940  0.82142693  0.32290957  1  -1.254441  0  -0.225376  -0.587434  0  2.348379  0
O  O105  1  0.29646469  0.17857721  0.67709475  1  -1.25418  0  -0.22537  -0.587451  0  2.348603  0
O  O106  1  0.19983405  0.68396805  0.17294516  1  -1.25072  0  -0.226179  -0.585672  0  2.347835  0
O  O107  1  0.80016029  0.31603304  0.82706203  1  -1.250817  0  -0.226183  -0.585679  0  2.34772  0
O  O108  1  0.86095225  0.69727794  0.31692716  1  -1.227466  0  -0.223901  -0.578402  0  2.297125  0
O  O109  1  0.13905829  0.30271830  0.68307307  1  -1.227751  0  -0.224014  -0.578545  0  2.297126  0
O  O110  1  0.37051084  0.81122242  0.19241863  1  -1.230095  0  -0.224953  -0.577067  0  2.29581  0
O  O111  1  0.62949072  0.18877103  0.80757305  1  -1.230207  0  -0.224805  -0.57691  0  2.296035  0
O  O112  1  0.53183592  0.70960532  0.24466670  1  -1.436089  0  -0.447445  -0.986319  0  2.16187  0
O  O113  1  0.46816732  0.29039580  0.75533802  1  -1.436161  0  -0.447439  -0.986219  0  2.161895  0
O  O114  1  0.03624891  0.79218038  0.25675839  1  -1.46011  0  -0.447916  -0.985034  0  2.15651  0
O  O115  1  0.96376472  0.20782077  0.74324137  1  -1.460054  0  -0.447944  -0.985077  0  2.15635  0
O  O116  1  0.65519594  0.49977087  0.85347074  1  -1.125964  0  -0.286271  -0.474998  0  2.051119  0
O  O117  1  0.92174030  0.45295095  0.79593577  1  -1.116626  0  -0.325027  -0.474419  0  2.248094  0
O  O118  1  0.34475096  0.50023193  0.14655577  1  -1.12674  0  -0.286422  -0.475073  0  2.050702  0
O  O119  1  0.07816338  0.54704531  0.20407202  1  -1.117574  0  -0.32517  -0.474422  0  2.248113  0
O  O120  1  0.86227514  0.03121116  0.64790409  1  -1.115268  0  -0.280982  -0.471106  0  2.053125  0
O  O121  1  0.56830647  0.04445525  0.70215858  1  -1.109999  0  -0.327701  -0.477383  0  2.232656  0
O  O122  1  0.13772370  0.96879269  0.35209211  1  -1.115305  0  -0.280977  -0.471064  0  2.053039  0
O  O123  1  0.43169541  0.95555122  0.29783814  1  -1.110461  0  -0.327724  -0.477297  0  2.23262  0
O  O124  1  0.31101953  0.29248812  0.99544935  1  -1.119526  0  -0.289974  -0.474001  0  2.041794  0
O  O125  1  0.03120087  0.25628850  0.93365925  1  -1.144321  0  -0.319049  -0.463196  0  2.2633  0
O  O126  1  0.68899564  0.70751535  0.00455192  1  -1.119441  0  -0.290008  -0.47405  0  2.042241  0
O  O127  1  0.96881723  0.74371366  0.06633803  1  -1.144616  0  -0.318957  -0.462973  0  2.263001  0
O  O128  1  0.08501578  0.18829070  0.50801674  1  -1.117423  0  -0.289128  -0.4715  0  2.035514  0
O  O129  1  0.36994929  0.23668538  0.56000782  1  -1.128197  0  -0.321237  -0.464702  0  2.254962  0
O  O130  1  0.91498597  0.81171046  0.49197846  1  -1.117281  0  -0.289019  -0.471284  0  2.035479  0
O  O131  1  0.63005097  0.76331540  0.43999288  1  -1.128252  0  -0.321221  -0.465724  0  2.25528  0
O  O132  1  0.16280132  0.35921711  0.37274402  1  -1.056252  0  -0.278654  -0.45678  0  2.043206  0
O  O133  1  0.24399395  0.45631832  0.33589903  1  -1.125993  0  -0.320397  -0.472184  0  2.253446  0
O  O134  1  0.83720891  0.64076648  0.62724566  1  -1.056255  0  -0.27858  -0.456628  0  2.043585  0
O  O135  1  0.75594960  0.54366987  0.66408788  1  -1.126798  0  -0.320182  -0.47205  0  2.253353  0
O  O136  1  0.65899341  0.13921601  0.13539210  1  -1.079193  0  -0.281357  -0.458445  0  2.040145  0
O  O137  1  0.75789490  0.03985306  0.16256328  1  -1.102979  0  -0.3177  -0.463377  0  2.253359  0
O  O138  1  0.34103361  0.86078670  0.86460272  1  -1.079112  0  -0.281326  -0.458408  0  2.040179  0
O  O139  1  0.24211577  0.96014866  0.83743446  1  -1.103069  0  -0.317695  -0.46339  0  2.253338  0
O  O140  1  0.53246889  0.58246703  0.50596312  1  -0.455431  0  -0.120079  -0.326156  0  1.944957  0
O  O141  1  0.60759281  0.53402381  0.40216367  1  -0.442026  0  -0.112208  -0.304399  0  1.910799  0
O  O142  1  0.46752225  0.41752430  0.49403801  1  -0.456682  0  -0.120037  -0.326003  0  1.945225  0
O  O143  1  0.39234339  0.46596669  0.59783222  1  -0.441869  0  -0.112127  -0.304292  0  1.911291  0
O  O144  1  0.03035453  0.91075284  0.98911423  1  -0.458022  0  -0.119375  -0.325845  0  1.928244  0
O  O145  1  0.10694487  0.95838136  0.09409077  1  -0.446618  0  -0.116212  -0.311463  0  1.903021  0
O  O146  1  0.96965761  0.08924857  0.01087951  1  -0.45797  0  -0.119432  -0.325876  0  1.928251  0
O  O147  1  0.89305234  0.04161578  0.90590440  1  -0.44661  0  -0.116101  -0.311177  0  1.903102  0
