# generated using pymatgen
data_CdH10C6S2(NO2)4
_symmetry_space_group_name_H-M   'P 1'
_cell_length_a   7.45142306
_cell_length_b   8.71995076
_cell_length_c   10.11753565
_cell_angle_alpha   90.00014608
_cell_angle_beta   89.99984534
_cell_angle_gamma   96.61286920
_symmetry_Int_Tables_number   1
_chemical_formula_structural   CdH10C6S2(NO2)4
_chemical_formula_sum   'Cd2 H20 C12 S4 N8 O16'
_cell_volume   653.02370802
_cell_formula_units_Z   2
loop_
 _symmetry_equiv_pos_site_id
 _symmetry_equiv_pos_as_xyz
  1  'x, y, z'
loop_
 _atom_site_type_symbol
 _atom_site_label
 _atom_site_symmetry_multiplicity
 _atom_site_fract_x
 _atom_site_fract_y
 _atom_site_fract_z
 _atom_site_occupancy
 _atom_site_pbe_bader_spin_density
 _atom_site_pbe_cm5_charge
 _atom_site_pbe_ddec_charge
 _atom_site_pbe_ddec_spin_density
 _atom_site_pbe_ddec_sum_bond_order
 _atom_site_pbe_magmom
Cd  Cd0  1  0.00000060  0.99999990  0.99999757  1  0  0.816634  0.990655  0  2.171418  0
Cd  Cd1  1  0.50000100  0.99999862  0.49999785  1  0  0.816632  0.990655  0  2.171416  0
H  H2  1  0.70837614  0.77284629  0.11811981  1  0  0.292474  0.396584  0  0.934484  0
H  H3  1  0.79162526  0.22715373  0.61812034  1  0  0.292499  0.396666  0  0.934382  0
H  H4  1  0.29162510  0.22715354  0.88187676  1  0  0.292508  0.396654  0  0.9344  0
H  H5  1  0.20837612  0.77284725  0.38187723  1  0  0.292525  0.396672  0  0.934378  0
H  H6  1  0.89187121  0.76020977  0.19599234  1  0  0.293518  0.387174  0  0.944299  0
H  H7  1  0.60812993  0.23979045  0.69599325  1  0  0.293549  0.387204  0  0.944243  0
H  H8  1  0.10812989  0.23978890  0.80400325  1  0  0.293633  0.387353  0  0.944089  0
H  H9  1  0.39187145  0.76021053  0.30400332  1  0  0.293611  0.387311  0  0.94412  0
H  H10  1  0.84120576  0.49872636  0.69642523  1  0  0.132942  0.134053  0  1.01161  0
H  H11  1  0.65878957  0.50127036  0.19642421  1  0  0.132943  0.134046  0  1.011669  0
H  H12  1  0.15879533  0.50127231  0.30357827  1  0  0.132936  0.134055  0  1.011656  0
H  H13  1  0.34120106  0.49873054  0.80357929  1  0  0.132934  0.134024  0  1.011714  0
H  H14  1  0.96121685  0.99730419  0.66304302  1  0  0.122732  0.117528  0  1.03709  0
H  H15  1  0.53878814  0.00269366  0.16304213  1  0  0.122729  0.117503  0  1.037112  0
H  H16  1  0.03878679  0.00269335  0.33695455  1  0  0.122716  0.117476  0  1.0371  0
H  H17  1  0.46121487  0.99730964  0.83695543  1  0  0.122734  0.117476  0  1.037099  0
H  H18  1  0.92518636  0.62797249  0.91614183  1  0  0.335656  0.290693  0  0.944103  0
H  H19  1  0.57481093  0.37202483  0.41613971  1  0  0.335649  0.290658  0  0.944188  0
H  H20  1  0.07481247  0.37202962  0.08386364  1  0  0.335647  0.290662  0  0.944157  0
H  H21  1  0.42518422  0.62796919  0.58386477  1  0  0.335607  0.290603  0  0.94412  0
C  C22  1  0.87617548  0.62174175  0.70929506  1  0  0.045195  0.030103  0  3.863652  0
C  C23  1  0.62382116  0.37825501  0.20929384  1  0  0.045209  0.030153  0  3.863674  0
C  C24  1  0.12382802  0.37825463  0.29070646  1  0  0.045238  0.030144  0  3.863718  0
C  C25  1  0.37616962  0.62174704  0.79070768  1  0  0.045281  0.030223  0  3.863637  0
C  C26  1  0.88699809  0.74411439  0.61960437  1  0  -0.046629  -0.229293  0  4.041695  0
C  C27  1  0.61300287  0.25588217  0.11960389  1  0  -0.046658  -0.229342  0  4.04176  0
C  C28  1  0.11301049  0.25587973  0.38039418  1  0  -0.046648  -0.229316  0  4.041717  0
C  C29  1  0.38698954  0.74412220  0.88039565  1  0  -0.046678  -0.229389  0  4.041651  0
C  C30  1  0.93892298  0.87801081  0.69439343  1  0  0.029788  0.023143  0  3.953125  0
C  C31  1  0.56108071  0.12198827  0.19439276  1  0  0.029826  0.023195  0  3.953226  0
C  C32  1  0.06107529  0.12198668  0.30560512  1  0  0.02981  0.023223  0  3.953065  0
C  C33  1  0.43892350  0.87801389  0.80560678  1  0  0.029793  0.023263  0  3.953022  0
S  S34  1  0.81820214  0.73706120  0.45432505  1  0  0.517937  1.205969  0  6.20245  0
S  S35  1  0.68179935  0.26293856  0.95432489  1  0  0.518007  1.206093  0  6.202236  0
S  S36  1  0.18180284  0.26293635  0.54567449  1  0  0.517974  1.20598  0  6.202495  0
S  S37  1  0.31819858  0.73706701  0.04567564  1  0  0.518028  1.206098  0  6.202375  0
N  N38  1  0.95946185  0.83975792  0.82091627  1  0  -0.252867  -0.189435  0  3.415689  0
N  N39  1  0.54053979  0.16023918  0.32091573  1  0  -0.252876  -0.189403  0  3.415674  0
N  N40  1  0.04053790  0.16024075  0.17908228  1  0  -0.252865  -0.189395  0  3.415591  0
N  N41  1  0.45946265  0.83975950  0.67908381  1  0  -0.252839  -0.189432  0  3.415586  0
N  N42  1  0.92019360  0.68442206  0.82780418  1  0  -0.270309  -0.066372  0  3.704234  0
N  N43  1  0.57980533  0.31557503  0.32780192  1  0  -0.270283  -0.066381  0  3.704338  0
N  N44  1  0.07980869  0.31557547  0.17219832  1  0  -0.270302  -0.06639  0  3.70432  0
N  N45  1  0.42018785  0.68442473  0.67219861  1  0  -0.270305  -0.066354  0  3.704187  0
O  O46  1  0.75629827  0.88969791  0.42922826  1  0  -0.353582  -0.625998  0  2.322961  0
O  O47  1  0.74370210  0.11030292  0.92922467  1  0  -0.353632  -0.62606  0  2.322926  0
O  O48  1  0.24370715  0.11030310  0.57077622  1  0  -0.353613  -0.626022  0  2.32305  0
O  O49  1  0.25629285  0.88970031  0.07077784  1  0  -0.353597  -0.626035  0  2.32302  0
O  O50  1  0.97598119  0.71976632  0.36804596  1  0  -0.335649  -0.618244  0  2.225514  0
O  O51  1  0.52402058  0.28023321  0.86804516  1  0  -0.33568  -0.61829  0  2.225393  0
O  O52  1  0.02402245  0.28023122  0.63195358  1  0  -0.335647  -0.618245  0  2.225445  0
O  O53  1  0.47597692  0.71976889  0.13195340  1  0  -0.335663  -0.61824  0  2.225492  0
O  O54  1  0.67722217  0.60744131  0.44372168  1  0  -0.331651  -0.583503  0  2.212129  0
O  O55  1  0.82278054  0.39255728  0.94372151  1  0  -0.331662  -0.583536  0  2.212114  0
O  O56  1  0.32278281  0.39255624  0.55627984  1  0  -0.331679  -0.583533  0  2.212164  0
O  O57  1  0.17721738  0.60744828  0.05628198  1  0  -0.331718  -0.583571  0  2.212042  0
O  O58  1  0.84172151  0.78745478  0.11005746  1  0  -0.587878  -0.767731  0  2.077371  0
O  O59  1  0.65827991  0.21254521  0.61005821  1  0  -0.587931  -0.767835  0  2.0772  0
O  O60  1  0.15827839  0.21254503  0.88993813  1  0  -0.588032  -0.767985  0  2.077155  0
O  O61  1  0.34172132  0.78745462  0.38993935  1  0  -0.588021  -0.76796  0  2.077155  0
