# generated using pymatgen
data_ZnH10C24(N2O3)2
_symmetry_space_group_name_H-M   'P 1'
_cell_length_a   9.56724097
_cell_length_b   10.80480946
_cell_length_c   23.76422649
_cell_angle_alpha   89.81537844
_cell_angle_beta   89.63079521
_cell_angle_gamma   90.58332967
_symmetry_Int_Tables_number   1
_chemical_formula_structural   ZnH10C24(N2O3)2
_chemical_formula_sum   'Zn2 H20 C48 N8 O12'
_cell_volume   2456.36915530
_cell_formula_units_Z   2
loop_
 _symmetry_equiv_pos_site_id
 _symmetry_equiv_pos_as_xyz
  1  'x, y, z'
loop_
 _atom_site_type_symbol
 _atom_site_label
 _atom_site_symmetry_multiplicity
 _atom_site_fract_x
 _atom_site_fract_y
 _atom_site_fract_z
 _atom_site_occupancy
 _atom_site_pbe_bader_charge
 _atom_site_pbe_bader_spin_density
 _atom_site_pbe_cm5_charge
 _atom_site_pbe_ddec_charge
 _atom_site_pbe_ddec_spin_density
 _atom_site_pbe_ddec_sum_bond_order
 _atom_site_pbe_magmom
Zn  Zn0  1  0.65005201  0.50198726  0.49852666  1  1.273133  0  0.674323  0.812353  0  2.420591  0
Zn  Zn1  1  0.35088691  0.50125778  0.49984283  1  1.267983  0  0.676092  0.815087  0  2.386201  0
H  H2  1  0.58598644  0.80304833  0.94610267  1  0.126479  0  0.120269  0.126122  0  0.974698  0
H  H3  1  0.47282279  0.18653388  0.05302073  1  0.135456  0  0.120021  0.125573  0  0.975622  0
H  H4  1  0.89923207  0.69975551  0.52118026  1  0.15829  0  0.12298  0.113394  0  0.978789  0
H  H5  1  0.10122682  0.30403666  0.47410691  1  0.172945  0  0.122888  0.111994  0  0.974062  0
H  H6  1  0.09412292  0.65098628  0.43060310  1  0.128081  0  0.124901  0.109169  0  0.956258  0
H  H7  1  0.90649226  0.35202516  0.56407213  1  0.117606  0  0.123643  0.104653  0  0.95844  0
H  H8  1  0.90957404  0.44445170  0.40633472  1  0.127082  0  0.121661  0.10768  0  0.97454  0
H  H9  1  0.09134049  0.56159287  0.58870898  1  0.188054  0  0.117157  0.113349  0  1.026664  0
H  H10  1  0.58146408  0.80285632  0.05278604  1  0.160762  0  0.120025  0.125739  0  0.97576  0
H  H11  1  0.47452464  0.18714638  0.94636827  1  0.121332  0  0.120079  0.125529  0  0.976905  0
H  H12  1  0.29373873  0.48066802  0.21144124  1  0.086775  0  0.119463  0.132205  0  0.968974  0
H  H13  1  0.32088754  0.57716148  0.78942041  1  0.117792  0  0.120258  0.133236  0  0.96846  0
H  H14  1  0.72906338  0.51802829  0.32302140  1  0.127946  0  0.116205  0.123229  0  0.989759  0
H  H15  1  0.71571032  0.42206392  0.67404442  1  0.107422  0  0.115314  0.121511  0  0.986824  0
H  H16  1  0.74218351  0.51127110  0.21781997  1  0.07905  0  0.117824  0.12524  0  0.966422  0
H  H17  1  0.73062628  0.41791240  0.77930168  1  0.130151  0  0.117735  0.12519  0  0.966576  0
H  H18  1  0.41385549  0.08007844  0.59217478  1  0.103986  0  0.115105  0.113432  0  0.967169  0
H  H19  1  0.58367643  0.92189434  0.41153629  1  0.114815  0  0.116242  0.113858  0  0.965971  0
H  H20  1  0.65786157  0.93239879  0.57623305  1  0.104439  0  0.116606  0.117417  0  0.966116  0
H  H21  1  0.34147793  0.07054347  0.42754668  1  0.102708  0  0.117181  0.115542  0  0.964472  0
C  C22  1  0.50666651  0.73823893  0.50248543  1  1.564715  0  0.214749  0.588352  0  4.211556  0
C  C23  1  0.49090383  0.26442685  0.49876510  1  1.623691  0  0.214327  0.587384  0  4.210808  0
C  C24  1  0.38937451  0.48811573  0.23583624  1  0.05829  0  -0.064156  -0.174111  0  3.897975  0
C  C25  1  0.40737332  0.54208267  0.76431669  1  0.008922  0  -0.064044  -0.173361  0  3.898271  0
C  C26  1  0.38215160  0.49029303  0.29490791  1  0.050629  0  0.019535  0.064484  0  4.033796  0
C  C27  1  0.39848575  0.54296489  0.70531821  1  0.085601  0  0.019698  0.064245  0  4.040511  0
C  C28  1  0.50623571  0.50137773  0.32647453  1  0.129661  0  0.004603  -0.047035  0  3.892374  0
C  C29  1  0.51079009  0.49864497  0.67249656  1  -0.025967  0  0.004713  -0.047494  0  3.88957  0
C  C30  1  0.63446783  0.50909508  0.29803626  1  0.014899  0  -0.066754  -0.063375  0  3.945958  0
C  C31  1  0.62953789  0.45486686  0.69997071  1  0.012326  0  -0.067507  -0.062572  0  3.946507  0
C  C32  1  0.64169898  0.50549759  0.23957698  1  -0.008153  0  -0.068131  -0.129297  0  3.942406  0
C  C33  1  0.63798693  0.45307049  0.75841898  1  0.005479  0  -0.068759  -0.131036  0  3.944152  0
C  C34  1  0.51845343  0.49550796  0.20887868  1  0.278245  0  0.09483  0.20222  0  4.034545  0
C  C35  1  0.52613323  0.49686869  0.79025127  1  0.292  0  0.09517  0.198046  0  4.032184  0
C  C36  1  0.58672323  0.96383035  0.54351429  1  -0.008867  0  -0.05696  -0.07792  0  3.595362  0
C  C37  1  0.41217657  0.03846749  0.46030359  1  -0.017823  0  -0.052222  -0.06935  0  3.585172  0
C  C38  1  0.45296705  0.04392391  0.55224596  1  -0.032505  0  -0.054135  -0.072203  0  3.589853  0
C  C39  1  0.54554476  0.95857423  0.45151631  1  -0.02557  0  -0.05186  -0.072173  0  3.582216  0
C  C40  1  0.49627134  0.12651916  0.50055905  1  0.003299  0  0.009542  -0.029976  0  3.62649  0
C  C41  1  0.50328881  0.87603362  0.50370812  1  0.063637  0  0.009601  -0.025908  0  3.62553  0
C  C42  1  0.63201247  0.04677902  0.49146681  1  0.120505  0  0.019628  0.052457  0  3.740689  0
C  C43  1  0.36684848  0.95557407  0.51218610  1  0.127256  0  0.021569  0.052691  0  3.744183  0
C  C44  1  0.50427369  0.50450073  0.38977993  1  1.55218  0  0.212693  0.580891  0  4.211096  0
C  C45  1  0.50678631  0.49700550  0.60910369  1  1.621745  0  0.213356  0.579969  0  4.20919  0
C  C46  1  0.04657078  0.58515416  0.46008557  1  0.199623  0  0.031298  0.041512  0  3.540216  0
C  C47  1  0.95425350  0.41882267  0.53502993  1  0.218524  0  0.029102  0.038308  0  3.550819  0
C  C48  1  0.95004198  0.61286018  0.51079143  1  0.195833  0  0.027135  0.03601  0  3.546982  0
C  C49  1  0.05076737  0.39116736  0.48435013  1  0.181521  0  0.028253  0.035063  0  3.552594  0
C  C50  1  0.95535226  0.47001033  0.44659156  1  0.199469  0  0.028414  0.038534  0  3.548236  0
C  C51  1  0.04524381  0.53423599  0.54863505  1  0.147521  0  0.027932  0.036592  0  3.518649  0
C  C52  1  0.50978102  0.38037701  0.87797266  1  1.32805  0  0.244632  0.433828  0  4.096879  0
C  C53  1  0.54472320  0.60987684  0.12110080  1  1.366895  0  0.244996  0.440187  0  4.096689  0
C  C54  1  0.55354865  0.61055212  0.87791653  1  1.308624  0  0.245045  0.433449  0  4.100658  0
C  C55  1  0.50518335  0.37917447  0.12129729  1  1.363963  0  0.244601  0.440662  0  4.098997  0
C  C56  1  0.55195072  0.60793797  0.94033830  1  -0.016307  0  -0.003186  -0.058675  0  3.983807  0
C  C57  1  0.50810234  0.38149130  0.05886705  1  -0.03955  0  -0.002678  -0.060895  0  3.983837  0
C  C58  1  0.53096412  0.49481376  0.96959026  1  0.010938  0  0.005065  0.032025  0  3.997522  0
C  C59  1  0.52915811  0.49460150  0.02959059  1  -0.05356  0  0.004968  0.031793  0  3.997216  0
C  C60  1  0.51091817  0.38201620  0.94040269  1  0.051405  0  -0.002972  -0.059202  0  3.984201  0
C  C61  1  0.54774762  0.60765605  0.05872166  1  -0.129272  0  -0.002376  -0.057656  0  3.980619  0
C  C62  1  0.57024821  0.71759780  0.96992950  1  0.064708  0  -0.060603  -0.068788  0  3.927733  0
C  C63  1  0.48916396  0.27196974  0.02923419  1  -0.056215  0  -0.060491  -0.066958  0  3.928277  0
C  C64  1  0.56790286  0.71747939  0.02903385  1  -0.071796  0  -0.060989  -0.06874  0  3.928354  0
C  C65  1  0.49030374  0.27226922  0.97010713  1  0.027419  0  -0.060553  -0.068194  0  3.931758  0
C  C66  1  0.24520349  0.48377855  0.31945817  1  0.905953  0  0.183609  0.256398  0  4.027583  0
C  C67  1  0.27158587  0.59017507  0.68263384  1  0.894395  0  0.182899  0.249672  0  4.025896  0
C  C68  1  0.76895441  0.09500667  0.48073519  1  0.831415  0  0.176638  0.242011  0  4.012714  0
C  C69  1  0.23080376  0.90519738  0.52257104  1  0.830807  0  0.178592  0.23986  0  4.007787  0
N  N70  1  0.53156490  0.49568587  0.85091657  1  -1.187711  0  -0.230066  -0.213517  0  3.562451  0
N  N71  1  0.52359148  0.49453350  0.14819123  1  -1.209627  0  -0.230645  -0.230836  0  3.583203  0
N  N72  1  0.85903948  0.49777359  0.49736028  1  -0.852135  0  -0.317557  -0.195758  0  3.072298  0
N  N73  1  0.14178922  0.50608744  0.49793463  1  -0.848226  0  -0.314272  -0.189986  0  3.056528  0
N  N74  1  0.12718829  0.47974789  0.33242140  1  -1.151733  0  -0.315751  -0.384349  0  2.74258  0
N  N75  1  0.16206468  0.63055143  0.67179117  1  -1.138055  0  -0.315261  -0.373525  0  2.742138  0
N  N76  1  0.88200811  0.13300997  0.47232640  1  -1.14215  0  -0.315344  -0.382216  0  2.758999  0
N  N77  1  0.11937100  0.86363761  0.53099569  1  -1.135552  0  -0.308234  -0.37101  0  2.759691  0
O  O78  1  0.62097669  0.68729757  0.51581968  1  -1.16032  0  -0.311188  -0.535932  0  2.301777  0
O  O79  1  0.37514895  0.31314929  0.51238879  1  -1.153227  0  -0.314872  -0.536347  0  2.287035  0
O  O80  1  0.39480527  0.68481814  0.48677869  1  -1.160812  0  -0.309727  -0.535743  0  2.341749  0
O  O81  1  0.60235260  0.32000133  0.48357236  1  -1.161274  0  -0.3079  -0.532832  0  2.3498  0
O  O82  1  0.61750183  0.53686575  0.41351011  1  -1.166126  0  -0.31394  -0.540822  0  2.311092  0
O  O83  1  0.39253869  0.52674128  0.58596410  1  -1.158326  0  -0.300345  -0.529958  0  2.327203  0
O  O84  1  0.39024045  0.47381335  0.41384483  1  -1.154228  0  -0.302407  -0.529593  0  2.332984  0
O  O85  1  0.61877600  0.46562981  0.58413199  1  -1.167558  0  -0.31368  -0.542085  0  2.309023  0
O  O86  1  0.49022624  0.28574574  0.85055740  1  -1.092709  0  -0.271372  -0.425614  0  2.058865  0
O  O87  1  0.55880175  0.70525193  0.14850872  1  -1.093213  0  -0.27139  -0.425941  0  2.057366  0
O  O88  1  0.57207398  0.70578599  0.85046304  1  -1.084558  0  -0.269444  -0.422243  0  2.062204  0
O  O89  1  0.48769889  0.28387984  0.14882072  1  -1.089302  0  -0.271392  -0.424922  0  2.05491  0
