# generated using pymatgen
data_Zn4H20(C8O5)5
_symmetry_space_group_name_H-M   'P 1'
_cell_length_a   23.78492966
_cell_length_b   23.78644513
_cell_length_c   23.78477580
_cell_angle_alpha   66.51871685
_cell_angle_beta   72.50180510
_cell_angle_gamma   107.50777299
_symmetry_Int_Tables_number   1
_chemical_formula_structural   Zn4H20(C8O5)5
_chemical_formula_sum   'Zn8 H40 C80 O50'
_cell_volume   10320.73449049
_cell_formula_units_Z   2
loop_
 _symmetry_equiv_pos_site_id
 _symmetry_equiv_pos_as_xyz
  1  'x, y, z'
loop_
 _atom_site_type_symbol
 _atom_site_label
 _atom_site_symmetry_multiplicity
 _atom_site_fract_x
 _atom_site_fract_y
 _atom_site_fract_z
 _atom_site_occupancy
 _atom_site_pbe_bader_charge
 _atom_site_pbe_bader_spin_density
 _atom_site_pbe_cm5_charge
 _atom_site_pbe_ddec_charge
 _atom_site_pbe_ddec_spin_density
 _atom_site_pbe_ddec_sum_bond_order
 _atom_site_pbe_magmom
Zn  Zn0  1  0.05766131  0.95789573  0.48445384  1  1.32005  0  0.678152  0.963529  0  2.373203  0
Zn  Zn1  1  0.05765935  0.09976601  0.45789754  1  1.318686  0  0.6782  0.963595  0  2.373313  0
Zn  Zn2  1  0.94233407  0.98445023  0.45788916  1  1.319966  0  0.678268  0.963654  0  2.373046  0
Zn  Zn3  1  0.94235139  0.95789306  0.59976767  1  1.318985  0  0.678186  0.963565  0  2.373141  0
Zn  Zn4  1  0.94233808  0.54210421  0.01554720  1  1.320147  0  0.67821  0.96359  0  2.37319  0
Zn  Zn5  1  0.05766796  0.51555235  0.04211004  1  1.319951  0  0.678297  0.963625  0  2.373059  0
Zn  Zn6  1  0.94234058  0.40023435  0.04210623  1  1.318617  0  0.678183  0.963623  0  2.373251  0
Zn  Zn7  1  0.05764657  0.54210224  0.90023383  1  1.318911  0  0.678188  0.963561  0  2.373196  0
H  H8  1  0.92296432  0.65235212  0.11223017  1  0.126899  0  0.118595  0.149946  0  0.975798  0
H  H9  1  0.07703315  0.61222208  0.15238992  1  0.126946  0  0.118563  0.149924  0  0.975742  0
H  H10  1  0.92296461  0.88777308  0.34761519  1  0.126795  0  0.118541  0.14989  0  0.975805  0
H  H11  1  0.07698413  0.84758212  0.38783879  1  0.127154  0  0.118641  0.150148  0  0.975559  0
H  H12  1  0.07704593  0.46478125  0.77061960  1  0.1335  0  0.11871  0.149906  0  0.976009  0
H  H13  1  0.92297447  0.27058273  0.96482021  1  0.133143  0  0.118608  0.15007  0  0.975797  0
H  H14  1  0.07698634  0.22940717  0.53519181  1  0.133369  0  0.118616  0.150048  0  0.975794  0
H  H15  1  0.92296538  0.03519485  0.72940202  1  0.13355  0  0.118565  0.149885  0  0.975774  0
H  H16  1  0.73540364  0.46480098  0.11219954  1  0.127625  0  0.118626  0.14998  0  0.975757  0
H  H17  1  0.73540220  0.27058919  0.15239135  1  0.121313  0  0.118541  0.149906  0  0.975748  0
H  H18  1  0.26459900  0.22941351  0.34760143  1  0.121869  0  0.118611  0.150106  0  0.975647  0
H  H19  1  0.26459719  0.03521557  0.38772857  1  0.127867  0  0.118676  0.149905  0  0.975893  0
H  H20  1  0.26460707  0.61218333  0.96479873  1  0.127618  0  0.11862  0.150039  0  0.975911  0
H  H21  1  0.26458772  0.65238576  0.77057966  1  0.121231  0  0.118547  0.149972  0  0.976013  0
H  H22  1  0.73541493  0.84761267  0.72941877  1  0.121104  0  0.118604  0.150121  0  0.975774  0
H  H23  1  0.73539253  0.88774826  0.53521370  1  0.127771  0  0.118692  0.150034  0  0.975884  0
H  H24  1  0.91944184  0.83733351  0.74322507  1  0.636693  0  0.306933  0.350212  0  0.971832  0
H  H25  1  0.08056228  0.66266797  0.75677381  1  0.636732  0  0.306931  0.350189  0  0.971832  0
H  H26  1  0.91943777  0.66266573  0.91789447  1  0.634044  0  0.306934  0.350187  0  0.971831  0
H  H27  1  0.08056606  0.83733703  0.58210483  1  0.634026  0  0.306982  0.350282  0  0.97172  0
H  H28  1  0.91943637  0.08210973  0.33732070  1  0.634342  0  0.307043  0.350563  0  0.971393  0
H  H29  1  0.08056511  0.41789168  0.16267966  1  0.634338  0  0.307071  0.350543  0  0.971387  0
H  H30  1  0.91943762  0.25677887  0.16265287  1  0.636511  0  0.306958  0.350139  0  0.971861  0
H  H31  1  0.08056382  0.24322354  0.33734752  1  0.636533  0  0.306965  0.350136  0  0.971873  0
H  H32  1  0.08023786  0.70043158  0.24218774  1  0.572723  0  0.318841  0.340593  0  0.924868  0
H  H33  1  0.91974911  0.74214876  0.20044054  1  0.5716  0  0.318554  0.340141  0  0.925347  0
H  H34  1  0.08017861  0.75776000  0.29965614  1  0.573259  0  0.31873  0.340309  0  0.925198  0
H  H35  1  0.91978171  0.79959067  0.25779080  1  0.572861  0  0.31889  0.340612  0  0.924934  0
H  H36  1  0.91975840  0.17757983  0.87981531  1  0.570932  0  0.318711  0.34027  0  0.925437  0
H  H37  1  0.08024762  0.37977927  0.67761240  1  0.57248  0  0.318769  0.340595  0  0.924902  0
H  H38  1  0.91978398  0.12019044  0.82241573  1  0.570966  0  0.318753  0.340358  0  0.92533  0
H  H39  1  0.08018189  0.32241674  0.62019058  1  0.57106  0  0.318801  0.340463  0  0.925122  0
H  H40  1  0.55739355  0.17757760  0.24221227  1  0.574091  0  0.318738  0.340297  0  0.92547  0
H  H41  1  0.55739535  0.37980481  0.20038371  1  0.608363  0  0.318742  0.340486  0  0.925245  0
H  H42  1  0.44260610  0.12021869  0.29951960  1  0.608701  0  0.318712  0.34039  0  0.925338  0
H  H43  1  0.44260655  0.32241873  0.25780776  1  0.57299  0  0.318751  0.340422  0  0.92539  0
H  H44  1  0.44259316  0.74220614  0.67757026  1  0.573967  0  0.318722  0.340331  0  0.92541  0
H  H45  1  0.44261373  0.70036588  0.87980684  1  0.607887  0  0.31889  0.340509  0  0.925263  0
H  H46  1  0.55738373  0.79953584  0.62021640  1  0.608371  0  0.318718  0.340449  0  0.92518  0
H  H47  1  0.55740912  0.75781650  0.82242456  1  0.573014  0  0.318676  0.340259  0  0.925514  0
C  C48  1  0.18251820  0.09127007  0.40872646  1  1.551904  0  0.232088  0.609886  0  4.144573  0
C  C49  1  0.99999621  0.13963586  0.36036429  1  1.430501  0  0.227037  0.63361  0  4.111765  0
C  C50  1  0.99998124  0.90873138  0.40875491  1  1.53983  0  0.232121  0.609611  0  4.144993  0
C  C51  1  0.81748432  0.90872742  0.59127565  1  1.551777  0  0.232073  0.609633  0  4.144332  0
C  C52  1  0.00000842  0.86036584  0.63963678  1  1.430367  0  0.227168  0.633538  0  4.111747  0
C  C53  1  0.99999123  0.09125919  0.59126070  1  1.566677  0  0.232164  0.609789  0  4.144611  0
C  C54  1  0.00000294  0.59124810  0.09126683  1  1.539412  0  0.232021  0.609637  0  4.145031  0
C  C55  1  0.00000503  0.36036582  0.13963729  1  1.430577  0  0.227127  0.633702  0  4.111664  0
C  C56  1  0.81748210  0.40873751  0.09125163  1  1.551869  0  0.232107  0.609773  0  4.144659  0
C  C57  1  0.99999883  0.40872456  0.90875588  1  1.566722  0  0.232076  0.609639  0  4.144738  0
C  C58  1  0.99999595  0.63963535  0.86036256  1  1.430297  0  0.226981  0.633381  0  4.111894  0
C  C59  1  0.18251610  0.59125361  0.90872867  1  1.551736  0  0.232003  0.609478  0  4.144444  0
C  C60  1  0.00000434  0.80425050  0.69575046  1  0.01784  0  -0.052657  -0.304278  0  4.030399  0
C  C61  1  0.00000091  0.69575142  0.80424873  1  0.018574  0  -0.052545  -0.304121  0  4.030266  0
C  C62  1  0.95607761  0.77690434  0.76702011  1  0.674935  0  0.069851  0.197724  0  4.064376  0
C  C63  1  0.04392715  0.72309829  0.73297895  1  0.67497  0  0.069781  0.19757  0  4.064562  0
C  C64  1  0.95607575  0.72309688  0.82082746  1  0.513904  0  0.069832  0.197688  0  4.064404  0
C  C65  1  0.04392838  0.77690460  0.67917183  1  0.513545  0  0.069868  0.197731  0  4.064549  0
C  C66  1  0.99999917  0.19575059  0.30424992  1  0.017688  0  -0.052565  -0.304346  0  4.030407  0
C  C67  1  0.00000344  0.30425141  0.19575070  1  0.018005  0  -0.052709  -0.304488  0  4.030506  0
C  C68  1  0.95607460  0.17917556  0.27689497  1  0.513635  0  0.070021  0.198089  0  4.064247  0
C  C69  1  0.04392689  0.32082584  0.22310538  1  0.514314  0  0.070077  0.198155  0  4.064271  0
C  C70  1  0.95607510  0.23298271  0.22308858  1  0.675957  0  0.069808  0.197602  0  4.064452  0
C  C71  1  0.04392707  0.26701886  0.27691193  1  0.6762  0  0.069747  0.197511  0  4.064368  0
C  C72  1  0.99999809  0.62877320  0.12879860  1  -0.000867  0  -0.013353  0.006644  0  4.025364  0
C  C73  1  0.95646243  0.65725753  0.13468538  1  0.045839  0  -0.101959  -0.239211  0  3.949751  0
C  C74  1  0.95644123  0.69214627  0.16963222  1  0.491334  0  0.09023  0.298588  0  4.069105  0
C  C75  1  0.99999099  0.69910317  0.19913671  1  0.113283  0  -0.035325  -0.127625  0  4.148395  0
C  C76  1  0.04354690  0.66961426  0.19218367  1  0.491089  0  0.090265  0.298294  0  4.069658  0
C  C77  1  0.04353408  0.63467259  0.15729038  1  0.045975  0  -0.102098  -0.2392  0  3.949687  0
C  C78  1  0.99998428  0.73450474  0.23454873  1  -0.374144  0  -0.050497  -0.117349  0  4.2366  0
C  C79  1  0.99997774  0.76544535  0.26550356  1  -0.169491  0  -0.050341  -0.117115  0  4.236591  0
C  C80  1  0.99997255  0.80084897  0.30091473  1  0.11529  0  -0.035378  -0.127853  0  4.14877  0
C  C81  1  0.95643552  0.83036345  0.30784224  1  0.490535  0  0.090338  0.298503  0  4.069361  0
C  C82  1  0.95644834  0.86530512  0.34273427  1  0.045864  0  -0.10205  -0.239156  0  3.949571  0
C  C83  1  0.99997216  0.87118828  0.37124164  1  -0.000382  0  -0.013254  0.006724  0  4.025313  0
C  C84  1  0.04349499  0.84268728  0.36537206  1  0.046145  0  -0.102262  -0.239631  0  3.949611  0
C  C85  1  0.04351231  0.80779256  0.33043213  1  0.490019  0  0.090782  0.299109  0  4.068691  0
C  C86  1  0.00000925  0.37119299  0.87123130  1  -0.008502  0  -0.01312  0.006873  0  4.025029  0
C  C87  1  0.04354612  0.40883291  0.79921232  1  0.041234  0  -0.102346  -0.239469  0  3.950101  0
C  C88  1  0.04356460  0.37390636  0.76430485  1  0.499137  0  0.090599  0.298916  0  4.069191  0
C  C89  1  0.00000635  0.30086033  0.80089980  1  0.117218  0  -0.035342  -0.127625  0  4.148307  0
C  C90  1  0.95645415  0.26426501  0.87394498  1  0.499654  0  0.090337  0.298424  0  4.069831  0
C  C91  1  0.95647305  0.29917297  0.90887168  1  0.04177  0  -0.102119  -0.239355  0  3.949841  0
C  C92  1  0.99999790  0.26545839  0.76548620  1  -0.166657  0  -0.050607  -0.11759  0  4.236789  0
C  C93  1  0.99998790  0.23452267  0.73453189  1  -0.371823  0  -0.0503  -0.116805  0  4.236676  0
C  C94  1  0.99997716  0.19912038  0.69911911  1  0.116847  0  -0.035224  -0.127922  0  4.148575  0
C  C95  1  0.04351536  0.23572052  0.62606951  1  0.500085  0  0.090492  0.298707  0  4.069111  0
C  C96  1  0.04349758  0.20081317  0.59114265  1  0.042021  0  -0.102211  -0.239524  0  3.949663  0
C  C97  1  0.99997643  0.12879093  0.62878526  1  -0.008645  0  -0.013199  0.006863  0  4.02525  0
C  C98  1  0.95644991  0.09114568  0.70080871  1  0.040575  0  -0.101988  -0.239188  0  3.949551  0
C  C99  1  0.95643605  0.12607162  0.73571713  1  0.498958  0  0.090344  0.298865  0  4.069151  0
C  C100  1  0.74242558  0.37120736  0.12878185  1  -0.0167  0  -0.013304  0.00668  0  4.025152  0
C  C101  1  0.70804687  0.40884927  0.13466310  1  0.056711  0  -0.102064  -0.239237  0  3.949427  0
C  C102  1  0.63821269  0.37392377  0.16960287  1  0.482907  0  0.090329  0.298643  0  4.069235  0
C  C103  1  0.60176123  0.30087546  0.19911132  1  0.106671  0  -0.035379  -0.127819  0  4.148749  0
C  C104  1  0.63821032  0.26427506  0.19217785  1  0.569437  0  0.09045  0.29882  0  4.069471  0
C  C105  1  0.70804524  0.29918345  0.15728417  1  -0.026089  0  -0.102034  -0.239218  0  3.949676  0
C  C106  1  0.53094808  0.26547404  0.23450862  1  -0.105182  0  -0.050561  -0.117407  0  4.236743  0
C  C107  1  0.46905288  0.23453947  0.26544084  1  -0.419883  0  -0.05025  -0.117112  0  4.236444  0
C  C108  1  0.39823953  0.19913733  0.30084059  1  0.106747  0  -0.035339  -0.127615  0  4.148354  0
C  C109  1  0.36179095  0.23573139  0.30780039  1  0.570545  0  0.090273  0.298499  0  4.069758  0
C  C110  1  0.29195623  0.20082373  0.34269246  1  -0.027962  0  -0.102117  -0.239377  0  3.949618  0
C  C111  1  0.25757503  0.12880369  0.37117794  1  -0.015788  0  -0.013155  0.006756  0  4.02515  0
C  C112  1  0.29195321  0.09116337  0.36527857  1  0.055926  0  -0.102226  -0.239369  0  3.949926  0
C  C113  1  0.36178725  0.12609190  0.33032922  1  0.483061  0  0.090508  0.298877  0  4.069224  0
C  C114  1  0.25757243  0.62877257  0.87120252  1  -0.016094  0  -0.013129  0.007017  0  4.025071  0
C  C115  1  0.29195792  0.63464774  0.90884737  1  0.056682  0  -0.102234  -0.239732  0  3.949679  0
C  C116  1  0.36179304  0.66958827  0.87392237  1  0.482968  0  0.090569  0.29898  0  4.068598  0
C  C117  1  0.39823924  0.69910068  0.80087088  1  0.107313  0  -0.035267  -0.127635  0  4.148174  0
C  C118  1  0.36178294  0.69216739  0.76426857  1  0.568536  0  0.090284  0.29866  0  4.069101  0
C  C119  1  0.29194741  0.65727299  0.79917833  1  -0.02612  0  -0.102128  -0.239364  0  3.949927  0
C  C120  1  0.46905269  0.73450555  0.76547001  1  -0.419404  0  -0.050597  -0.117398  0  4.236625  0
C  C121  1  0.53094819  0.76544928  0.73454079  1  -0.105979  0  -0.050265  -0.117209  0  4.236534  0
C  C122  1  0.60176175  0.80085687  0.69913966  1  0.107124  0  -0.035394  -0.127531  0  4.148465  0
C  C123  1  0.63821864  0.80781325  0.73573430  1  0.569224  0  0.090417  0.298678  0  4.06952  0
C  C124  1  0.70805330  0.84270676  0.70082599  1  -0.026524  0  -0.102168  -0.239559  0  3.949911  0
C  C125  1  0.74242802  0.87119227  0.62880402  1  -0.015241  0  -0.013152  0.007006  0  4.025068  0
C  C126  1  0.70804175  0.86529803  0.59116361  1  0.055945  0  -0.102231  -0.239504  0  3.949941  0
C  C127  1  0.63820645  0.83035105  0.62609081  1  0.483038  0  0.090355  0.298428  0  4.069309  0
O  O128  1  0.00000030  0.00000079  0.50000038  1  -1.233665  0  -0.57163  -1.026617  0  2.550062  0
O  O129  1  0.15335647  0.02554359  0.43410443  1  -1.165499  0  -0.313833  -0.545145  0  2.337928  0
O  O130  1  0.04024334  0.15604280  0.38420406  1  -1.180042  0  -0.307475  -0.54864  0  2.367549  0
O  O131  1  0.95963028  0.93410767  0.41253453  1  -1.163865  0  -0.313878  -0.545066  0  2.338215  0
O  O132  1  0.15335743  0.12783140  0.41253125  1  -1.161148  0  -0.313878  -0.545211  0  2.338207  0
O  O133  1  0.04034477  0.91253233  0.43412230  1  -1.164565  0  -0.313873  -0.545084  0  2.33809  0
O  O134  1  0.95974883  0.07555649  0.38419747  1  -1.179523  0  -0.307358  -0.548561  0  2.367332  0
O  O135  1  0.84664285  0.93410388  0.52554769  1  -1.165241  0  -0.313904  -0.54516  0  2.337763  0
O  O136  1  0.95976506  0.88420199  0.65604549  1  -1.179927  0  -0.307402  -0.548469  0  2.367553  0
O  O137  1  0.84665056  0.91252200  0.62784096  1  -1.161555  0  -0.313825  -0.545044  0  2.337985  0
O  O138  1  0.04025332  0.88420444  0.57555591  1  -1.17953  0  -0.307413  -0.548439  0  2.367288  0
O  O139  1  0.04035068  0.12782242  0.52553633  1  -1.177182  0  -0.313859  -0.545097  0  2.337802  0
O  O140  1  0.95964763  0.02553118  0.62782706  1  -1.176836  0  -0.313935  -0.545184  0  2.338078  0
O  O141  1  0.99999963  0.49999958  0.00000087  1  -1.233646  0  -0.571671  -1.026649  0  2.550032  0
O  O142  1  0.95964329  0.58745312  0.06589505  1  -1.163821  0  -0.313799  -0.545101  0  2.337979  0
O  O143  1  0.04025265  0.42444492  0.11580289  1  -1.179569  0  -0.307385  -0.548548  0  2.367395  0
O  O144  1  0.84664364  0.37217430  0.08746080  1  -1.160913  0  -0.313865  -0.545227  0  2.338207  0
O  O145  1  0.04036547  0.56588601  0.08747304  1  -1.164251  0  -0.313865  -0.545088  0  2.338372  0
O  O146  1  0.84664251  0.47446265  0.06587963  1  -1.165519  0  -0.313877  -0.54509  0  2.337795  0
O  O147  1  0.95975562  0.34395868  0.11579914  1  -1.179994  0  -0.307479  -0.548666  0  2.36745  0
O  O148  1  0.95963953  0.37216290  0.97447915  1  -1.177263  0  -0.313822  -0.545011  0  2.338426  0
O  O149  1  0.04023559  0.61579496  0.84395497  1  -1.179977  0  -0.307409  -0.548476  0  2.367437  0
O  O150  1  0.04034657  0.47445238  0.87218961  1  -1.176774  0  -0.313871  -0.545102  0  2.3378  0
O  O151  1  0.95975277  0.61579952  0.92444265  1  -1.179492  0  -0.307337  -0.548412  0  2.367464  0
O  O152  1  0.15335874  0.56588722  0.97445439  1  -1.165256  0  -0.313782  -0.544906  0  2.337763  0
O  O153  1  0.15334791  0.58746700  0.87216332  1  -1.161369  0  -0.313858  -0.545096  0  2.337979  0
O  O154  1  0.91294126  0.79993149  0.78712486  1  -1.132064  0  -0.357447  -0.418029  0  2.275907  0
O  O155  1  0.08706418  0.70007130  0.71287435  1  -1.132402  0  -0.357418  -0.417935  0  2.276037  0
O  O156  1  0.91294018  0.70006670  0.88699126  1  -1.122517  0  -0.357431  -0.417985  0  2.27602  0
O  O157  1  0.08706390  0.79993578  0.61300724  1  -1.122513  0  -0.357498  -0.418083  0  2.275999  0
O  O158  1  0.91293905  0.11301234  0.29991802  1  -1.12357  0  -0.357606  -0.418471  0  2.275601  0
O  O159  1  0.08706219  0.38698935  0.20008230  1  -1.123652  0  -0.357614  -0.418422  0  2.275672  0
O  O160  1  0.91293800  0.21287866  0.20005209  1  -1.132182  0  -0.357477  -0.417883  0  2.276148  0
O  O161  1  0.08706393  0.28712319  0.29994838  1  -1.132293  0  -0.357502  -0.417875  0  2.27612  0
O  O162  1  0.08631992  0.67480319  0.21946577  1  -1.091865  0  -0.345485  -0.41681  0  2.242191  0
O  O163  1  0.91366627  0.71942038  0.17481444  1  -1.090336  0  -0.345246  -0.416518  0  2.242376  0
O  O164  1  0.08626811  0.78049400  0.32527548  1  -1.092032  0  -0.345761  -0.416937  0  2.242095  0
O  O165  1  0.91368244  0.82519711  0.28053465  1  -1.091781  0  -0.34561  -0.416929  0  2.24212  0
O  O166  1  0.91368057  0.19421868  0.91152807  1  -1.099815  0  -0.345412  -0.416534  0  2.242684  0
O  O167  1  0.08633880  0.41148833  0.69425583  1  -1.10092  0  -0.345784  -0.41728  0  2.241967  0
O  O168  1  0.91368165  0.08848384  0.80577048  1  -1.099511  0  -0.345566  -0.416934  0  2.242513  0
O  O169  1  0.08627295  0.30577491  0.58848047  1  -1.099976  0  -0.345715  -0.416943  0  2.242092  0
O  O170  1  0.60574550  0.19422323  0.21947172  1  -1.095724  0  -0.345506  -0.416744  0  2.242665  0
O  O171  1  0.60574771  0.41151219  0.17477250  1  -1.130377  0  -0.345591  -0.417004  0  2.242447  0
O  O172  1  0.39425309  0.08851013  0.32513483  1  -1.130106  0  -0.345717  -0.417105  0  2.242422  0
O  O173  1  0.39425527  0.30577902  0.28052516  1  -1.094795  0  -0.345444  -0.416789  0  2.242684  0
O  O174  1  0.39424089  0.71946801  0.69421464  1  -1.095445  0  -0.345403  -0.416741  0  2.242568  0
O  O175  1  0.39426226  0.67474842  0.91151549  1  -1.130087  0  -0.345865  -0.417147  0  2.242289  0
O  O176  1  0.60573509  0.82516104  0.58850640  1  -1.129868  0  -0.345552  -0.41687  0  2.24226  0
O  O177  1  0.60576211  0.78053286  0.80578397  1  -1.094747  0  -0.345402  -0.416666  0  2.242634  0
