# generated using pymatgen
data_Zn4H9C28S2Cl5O13
_symmetry_space_group_name_H-M   'P 1'
_cell_length_a   18.37478688
_cell_length_b   19.63119007
_cell_length_c   32.66135446
_cell_angle_alpha   86.13134079
_cell_angle_beta   73.70469474
_cell_angle_gamma   62.10456999
_symmetry_Int_Tables_number   1
_chemical_formula_structural   Zn4H9C28S2Cl5O13
_chemical_formula_sum   'Zn16 H36 C112 S8 Cl20 O52'
_cell_volume   9965.98233565
_cell_formula_units_Z   4
loop_
 _symmetry_equiv_pos_site_id
 _symmetry_equiv_pos_as_xyz
  1  'x, y, z'
loop_
 _atom_site_type_symbol
 _atom_site_label
 _atom_site_symmetry_multiplicity
 _atom_site_fract_x
 _atom_site_fract_y
 _atom_site_fract_z
 _atom_site_occupancy
 _atom_site_pbe_bader_charge
 _atom_site_pbe_bader_spin_density
 _atom_site_pbe_cm5_charge
 _atom_site_pbe_ddec_charge
 _atom_site_pbe_ddec_spin_density
 _atom_site_pbe_ddec_sum_bond_order
 _atom_site_pbe_magmom
Zn  Zn0  1  0.87536242  0.54522797  0.51875576  1  1.313678  0  0.675362  0.974081  0  2.308225  0
Zn  Zn1  1  0.04692896  0.47934160  0.43947601  1  1.315478  0  0.676269  0.969382  0  2.407288  0
Zn  Zn2  1  0.05468930  0.39946097  0.52493091  1  1.320173  0  0.675271  0.969433  0  2.377405  0
Zn  Zn3  1  0.03971598  0.57009378  0.51653808  1  1.319076  0  0.674392  0.970026  0  2.35727  0
Zn  Zn4  1  0.62445236  0.18195257  0.73642501  1  1.318195  0  0.67487  0.968509  0  2.349747  0
Zn  Zn5  1  0.47913646  0.34961051  0.72561961  1  1.317151  0  0.674653  0.966078  0  2.378999  0
Zn  Zn6  1  0.44485042  0.26935164  0.81196355  1  1.314201  0  0.674595  0.970163  0  2.357989  0
Zn  Zn7  1  0.44889668  0.20185606  0.72478278  1  1.317828  0  0.672891  0.962958  0  2.383409  0
Zn  Zn8  1  0.46877249  0.75454456  0.31408961  1  1.300029  0  0.672615  0.96516  0  2.330145  0
Zn  Zn9  1  0.46475726  0.68528461  0.22767967  1  1.323934  0  0.678171  0.975316  0  2.394969  0
Zn  Zn10  1  0.62622441  0.70197118  0.22768135  1  1.317742  0  0.674269  0.965079  0  2.387947  0
Zn  Zn11  1  0.44611702  0.85145223  0.22969481  1  1.319078  0  0.674061  0.968216  0  2.366121  0
Zn  Zn12  1  0.02328896  0.90159303  0.02490285  1  1.318344  0  0.674427  0.966358  0  2.365341  0
Zn  Zn13  1  0.06555980  0.04654018  0.01522597  1  1.319023  0  0.673733  0.966833  0  2.314783  0
Zn  Zn14  1  0.87590724  0.06998950  0.02381872  1  1.322736  0  0.678034  0.974029  0  2.398917  0
Zn  Zn15  1  0.02284609  0.98873953  0.93871217  1  1.315309  0  0.673407  0.965932  0  2.378793  0
H  H16  1  0.79124315  0.95462035  0.66289495  1  0.124929  0  0.122545  0.147787  0  0.968669  0
H  H17  1  0.32347630  0.96896832  0.40925103  1  0.111113  0  0.120585  0.144898  0  0.971908  0
H  H18  1  0.56977181  0.44553641  0.62304093  1  0.061114  0  0.098872  0.112413  0  0.979803  0
H  H19  1  0.56967655  0.49668577  0.66608112  1  0.077049  0  0.100363  0.114577  0  0.976836  0
H  H20  1  0.66293021  0.54468326  0.61396695  1  0.056354  0  0.10078  0.11334  0  0.9769  0
H  H21  1  0.66424760  0.49277261  0.57086791  1  0.048734  0  0.099746  0.110501  0  0.978893  0
H  H22  1  0.36404690  0.66032707  0.42448113  1  0.03726  0  0.09915  0.109251  0  0.981058  0
H  H23  1  0.27738892  0.75331107  0.42329550  1  0.066026  0  0.099631  0.11025  0  0.977085  0
H  H24  1  0.17322739  0.71355144  0.47282140  1  0.043889  0  0.100513  0.112813  0  0.977161  0
H  H25  1  0.26014829  0.62100515  0.47466136  1  0.057677  0  0.097769  0.109899  0  0.983319  0
H  H26  1  0.55890610  0.75210233  0.42472378  1  0.040946  0  0.099567  0.110947  0  0.977245  0
H  H27  1  0.55644137  0.66249349  0.42453125  1  0.061221  0  0.099164  0.109582  0  0.981142  0
H  H28  1  0.65259995  0.61194390  0.47337178  1  0.060273  0  0.099104  0.111279  0  0.979758  0
H  H29  1  0.65483296  0.70164731  0.47384075  1  0.071266  0  0.098263  0.110138  0  0.982222  0
H  H30  1  0.33456304  0.20506306  0.63081706  1  0.065259  0  0.100403  0.112283  0  0.974834  0
H  H31  1  0.24447235  0.24833456  0.67670145  1  0.068814  0  0.099311  0.114082  0  0.979853  0
H  H32  1  0.14558749  0.29835710  0.62914898  1  0.062521  0  0.098668  0.113035  0  0.982815  0
H  H33  1  0.23558768  0.25530087  0.58321438  1  0.053624  0  0.100586  0.113482  0  0.974902  0
H  H34  1  0.17775294  0.66198440  0.96204263  1  0.135547  0  0.122217  0.147702  0  0.968912  0
H  H35  1  0.92856318  0.10021686  0.83335869  1  0.038416  0  0.098802  0.111025  0  0.979619  0
H  H36  1  0.93401241  0.00731186  0.83191365  1  0.081498  0  0.100726  0.114313  0  0.975375  0
H  H37  1  0.83813160  0.05236136  0.78303439  1  0.065654  0  0.099962  0.112562  0  0.975696  0
H  H38  1  0.83183198  0.14552280  0.78467532  1  0.059146  0  0.097427  0.110056  0  0.98508  0
H  H39  1  0.17319250  0.19748982  0.96878788  1  0.075249  0  0.099602  0.110193  0  0.977777  0
H  H40  1  0.26681563  0.10784581  0.96649000  1  0.066043  0  0.100614  0.113538  0  0.977855  0
H  H41  1  0.35787877  0.16147763  0.91746464  1  0.031154  0  0.097113  0.110729  0  0.986093  0
H  H42  1  0.26419019  0.25086019  0.91951549  1  0.051342  0  0.100787  0.114469  0  0.974992  0
H  H43  1  0.95975523  0.29327785  0.08799987  1  0.126708  0  0.12018  0.14354  0  0.971676  0
H  H44  1  0.26418607  0.00734354  0.06974428  1  0.053095  0  0.100172  0.112465  0  0.979097  0
H  H45  1  0.17127603  0.05635337  0.11368649  1  0.040983  0  0.099982  0.111249  0  0.977002  0
H  H46  1  0.26349633  0.01073366  0.16441712  1  0.053203  0  0.101178  0.114351  0  0.974917  0
H  H47  1  0.35672769  0.96339194  0.12032957  1  0.071351  0  0.098553  0.11087  0  0.982201  0
H  H48  1  0.93002849  0.74695619  0.08663569  1  0.07246  0  0.099858  0.112295  0  0.977459  0
H  H49  1  0.93198359  0.79331143  0.13110587  1  0.051913  0  0.099139  0.111798  0  0.979921  0
H  H50  1  0.83290695  0.74863999  0.18111138  1  0.067126  0  0.100376  0.114643  0  0.978628  0
H  H51  1  0.83229999  0.70103230  0.13679571  1  0.042306  0  0.099952  0.111843  0  0.976102  0
C  C52  1  0.87375728  0.56204072  0.42925741  1  1.568847  0  0.230479  0.627786  0  4.147483  0
C  C53  1  0.13252952  0.31201103  0.44184933  1  1.603982  0  0.214912  0.621513  0  4.204365  0
C  C54  1  0.88301721  0.41297103  0.56949667  1  1.61509  0  0.22863  0.623112  0  4.156384  0
C  C55  1  0.14305174  0.45387243  0.56648904  1  1.585849  0  0.228628  0.624458  0  4.15215  0
C  C56  1  0.85987298  0.68156666  0.56116266  1  1.59719  0  0.216882  0.624901  0  4.200104  0
C  C57  1  0.13393848  0.57239022  0.43049070  1  1.570251  0  0.227348  0.625041  0  4.150267  0
C  C58  1  0.66373964  0.29937923  0.68894694  1  1.600134  0  0.228467  0.621309  0  4.15455  0
C  C59  1  0.37365506  0.43852478  0.80872387  1  1.572572  0  0.215208  0.621258  0  4.209731  0
C  C60  1  0.61576281  0.18061103  0.82800381  1  1.588446  0  0.22936  0.625223  0  4.15457  0
C  C61  1  0.35102629  0.18318391  0.80973187  1  1.58303  0  0.228024  0.621828  0  4.155987  0
C  C62  1  0.61422898  0.06740661  0.68660321  1  1.569671  0  0.216899  0.608451  0  4.215657  0
C  C63  1  0.37387842  0.33723975  0.67708186  1  1.563206  0  0.228365  0.621586  0  4.157889  0
C  C64  1  0.36723699  0.67449400  0.31479764  1  1.555251  0  0.230253  0.627674  0  4.149855  0
C  C65  1  0.64207113  0.56883947  0.18519970  1  1.574764  0  0.215564  0.621917  0  4.211325  0
C  C66  1  0.64833815  0.67779875  0.31552448  1  1.551696  0  0.228006  0.62177  0  4.159376  0
C  C67  1  0.61450637  0.83782357  0.18129552  1  1.585147  0  0.228977  0.624531  0  4.152769  0
C  C68  1  0.37508806  0.92485348  0.31843036  1  1.59091  0  0.219051  0.611416  0  4.212702  0
C  C69  1  0.35834850  0.80915664  0.18331287  1  1.579011  0  0.228093  0.622254  0  4.152182  0
C  C70  1  0.13248210  0.91956019  0.07006577  1  1.559407  0  0.227711  0.623786  0  4.151683  0
C  C71  1  0.91171110  0.18257463  0.06129927  1  1.583603  0  0.218508  0.610565  0  4.213937  0
C  C72  1  0.84301450  0.94803817  0.06835988  1  1.575584  0  0.229158  0.623245  0  4.155578  0
C  C73  1  0.84138159  0.07752927  0.94131308  1  1.57011  0  0.229239  0.62324  0  4.153733  0
C  C74  1  0.11599194  0.81903285  0.93922806  1  1.600803  0  0.21994  0.613031  0  4.210277  0
C  C75  1  0.13314521  0.06318328  0.92423753  1  1.566428  0  0.2282  0.622442  0  4.151028  0
C  C76  1  0.71919419  0.80685726  0.59654811  1  0.096766  0  0.009957  0.103219  0  4.088336  0
C  C77  1  0.74732450  0.94164772  0.65268871  1  0.012049  0  -0.086988  -0.130658  0  3.959631  0
C  C78  1  0.80702804  0.75674468  0.58611994  1  -0.105251  0  -0.031418  -0.191214  0  3.946219  0
C  C79  1  0.66026793  0.99173478  0.66215857  1  -0.148019  0  -0.022349  -0.113074  0  3.96806  0
C  C80  1  0.76876468  0.87461504  0.62852438  1  -0.151221  0  -0.021743  0.00124  0  4.083086  0
C  C81  1  0.69725276  0.87461536  0.62054249  1  -0.102565  0  -0.028641  -0.084588  0  4.077113  0
C  C82  1  0.20184764  0.21963534  0.37370135  1  0.111961  0  0.010279  0.102741  0  4.087758  0
C  C83  1  0.30623064  0.01459517  0.38749496  1  0.031327  0  -0.089438  -0.136119  0  3.961291  0
C  C84  1  0.18028660  0.23654031  0.41756179  1  -0.136816  0  -0.029837  -0.186847  0  3.945902  0
C  C85  1  0.32737291  0.99976938  0.34374061  1  -0.187064  0  -0.021671  -0.114621  0  3.973433  0
C  C86  1  0.26086825  0.09508997  0.39863190  1  -0.128515  0  -0.020083  0.005997  0  4.068656  0
C  C87  1  0.24815700  0.13908509  0.36296160  1  -0.093772  0  -0.029114  -0.086555  0  4.096021  0
C  C88  1  0.72581187  0.32318114  0.66010253  1  -0.06157  0  -0.012437  -0.117545  0  3.933258  0
C  C89  1  0.83380565  0.37912023  0.60060482  1  0.086244  0  -0.013429  -0.122857  0  3.927827  0
C  C90  1  0.69283587  0.39174635  0.64014883  1  0.029565  0  -0.004954  0.066919  0  3.905717  0
C  C91  1  0.86963690  0.30944951  0.62112244  1  0.115886  0  0.016047  0.067983  0  3.973132  0
C  C92  1  0.74442980  0.41820842  0.61162746  1  -0.086338  0  -0.004603  0.069024  0  3.908266  0
C  C93  1  0.81679314  0.28226463  0.65010477  1  0.169669  0  0.01555  0.066816  0  3.98308  0
C  C94  1  0.61006886  0.45983442  0.63634550  1  -0.035717  0  -0.149959  -0.196784  0  3.872197  0
C  C95  1  0.66870541  0.48972844  0.60383824  1  -0.001249  0  -0.150128  -0.19642  0  3.87935  0
C  C96  1  0.30508053  0.64891234  0.34151740  1  0.034642  0  -0.014968  -0.127248  0  3.930201  0
C  C97  1  0.18706433  0.60177343  0.39903045  1  0.016833  0  -0.011929  -0.115771  0  3.948343  0
C  C98  1  0.28231338  0.66025575  0.38594931  1  0.001423  0  -0.005753  0.06744  0  3.902934  0
C  C99  1  0.20646084  0.59150092  0.35395248  1  0.105634  0  0.015991  0.066627  0  3.987795  0
C  C100  1  0.22535403  0.63818897  0.41350394  1  0.004687  0  -0.00491  0.066245  0  3.910864  0
C  C101  1  0.26469157  0.61376912  0.32570854  1  0.137476  0  0.018253  0.071486  0  3.976549  0
C  C102  1  0.29786220  0.69101111  0.42223959  1  -0.005412  0  -0.148008  -0.192025  0  3.876224  0
C  C103  1  0.23292861  0.66602098  0.45349840  1  -0.010205  0  -0.1504  -0.199454  0  3.873191  0
C  C104  1  0.71095633  0.64780684  0.34156274  1  0.045726  0  -0.014074  -0.123472  0  3.932542  0
C  C105  1  0.82197365  0.58912029  0.39791267  1  0.053242  0  -0.013815  -0.123017  0  3.936641  0
C  C106  1  0.67981511  0.65644566  0.38605894  1  -0.046579  0  -0.005282  0.067511  0  3.908535  0
C  C107  1  0.85617256  0.57890930  0.35258727  1  0.095365  0  0.01794  0.069661  0  3.975941  0
C  C108  1  0.73274737  0.62850458  0.41298368  1  0.02489  0  -0.005513  0.068663  0  3.905722  0
C  C109  1  0.80209008  0.60846843  0.32505480  1  0.109595  0  0.01776  0.069508  0  3.976151  0
C  C110  1  0.59812133  0.68904115  0.42275759  1  -0.014396  0  -0.149614  -0.194896  0  3.884686  0
C  C111  1  0.65822989  0.65746292  0.45337737  1  -0.032173  0  -0.150574  -0.199231  0  3.877775  0
C  C112  1  0.31407126  0.37413750  0.64993826  1  -0.019402  0  -0.014582  -0.123556  0  3.941143  0
C  C113  1  0.19997791  0.43190680  0.59527482  1  -0.042893  0  -0.013163  -0.122274  0  3.932257  0
C  C114  1  0.27754653  0.33264800  0.63862454  1  -0.00928  0  -0.00476  0.069266  0  3.906229  0
C  C115  1  0.23434168  0.47672914  0.60715787  1  0.111748  0  0.015773  0.06826  0  3.980203  0
C  C116  1  0.22317907  0.36019899  0.61244699  1  0.09547  0  -0.003188  0.070747  0  3.904887  0
C  C117  1  0.29004587  0.44848620  0.63388954  1  0.135009  0  0.016491  0.069414  0  3.981205  0
C  C118  1  0.27332201  0.25719153  0.64383051  1  -0.025478  0  -0.149361  -0.195766  0  3.871428  0
C  C119  1  0.21150676  0.28850751  0.61408798  1  -0.008536  0  -0.150309  -0.19706  0  3.87343  0
C  C120  1  0.29968804  0.58813506  0.81907507  1  0.151427  0  0.008942  0.101354  0  4.090711  0
C  C121  1  0.19411109  0.67150632  0.92824875  1  -0.01314  0  -0.086614  -0.129515  0  3.956492  0
C  C122  1  0.32441249  0.51405282  0.83316398  1  -0.113892  0  -0.030072  -0.187505  0  3.947612  0
C  C123  1  0.16875138  0.74462560  0.91352656  1  -0.186989  0  -0.022243  -0.116802  0  3.973204  0
C  C124  1  0.24176288  0.61425180  0.89379511  1  -0.197409  0  -0.019974  0.004579  0  4.07493  0
C  C125  1  0.25212911  0.64534478  0.85367970  1  -0.1324  0  -0.028867  -0.08579  0  4.088356  0
C  C126  1  0.77837101  0.10423148  0.91564461  1  -0.034319  0  -0.013316  -0.118499  0  3.942213  0
C  C127  1  0.66697484  0.15482422  0.85966715  1  0.013458  0  -0.014145  -0.123225  0  3.933471  0
C  C128  1  0.80938797  0.09709856  0.87123332  1  -0.012262  0  -0.005103  0.067774  0  3.913403  0
C  C129  1  0.63333443  0.16115751  0.90498764  1  0.097148  0  0.016583  0.069978  0  3.978724  0
C  C130  1  0.75617481  0.12171228  0.84445410  1  0.015128  0  -0.005444  0.065465  0  3.906708  0
C  C131  1  0.68777745  0.13687977  0.93229546  1  0.194082  0  0.015949  0.066092  0  3.989617  0
C  C132  1  0.89089256  0.06975639  0.83456923  1  -0.01605  0  -0.14937  -0.196694  0  3.869808  0
C  C133  1  0.83054524  0.09795341  0.80407526  1  -0.015161  0  -0.148501  -0.19246  0  3.870282  0
C  C134  1  0.18938947  0.08948319  0.89237375  1  0.052777  0  -0.014314  -0.121044  0  3.934976  0
C  C135  1  0.29507143  0.15056225  0.83571605  1  -0.009288  0  -0.013621  -0.122662  0  3.933207  0
C  C136  1  0.22617253  0.12723144  0.90719790  1  0.004608  0  -0.004543  0.067455  0  3.905394  0
C  C137  1  0.25929068  0.11145011  0.81942633  1  0.133982  0  0.016607  0.068474  0  3.978944  0
C  C138  1  0.27622597  0.15677316  0.88014932  1  0.024961  0  -0.004039  0.069738  0  3.904676  0
C  C139  1  0.20810801  0.08129691  0.84710459  1  0.082389  0  0.016115  0.068254  0  3.978917  0
C  C140  1  0.23384537  0.15430826  0.94741859  1  -0.036207  0  -0.149709  -0.196688  0  3.877819  0
C  C141  1  0.29080069  0.18776672  0.91668129  1  0.007805  0  -0.149542  -0.19659  0  3.872931  0
C  C142  1  0.67142363  0.44233769  0.14937695  1  0.137984  0  0.009871  0.102116  0  4.092959  0
C  C143  1  0.89247364  0.30706747  0.09668929  1  0.055587  0  -0.08825  -0.133135  0  3.953526  0
C  C144  1  0.69634862  0.49355233  0.16084997  1  -0.089289  0  -0.029815  -0.185159  0  3.945298  0
C  C145  1  0.86446841  0.25832748  0.08569993  1  -0.171773  0  -0.022844  -0.119579  0  3.973751  0
C  C146  1  0.82190677  0.37508781  0.11998340  1  -0.180767  0  -0.019817  0.005085  0  4.05789  0
C  C147  1  0.74277681  0.37532060  0.12606709  1  -0.136938  0  -0.030339  -0.088525  0  4.110668  0
C  C148  1  0.18795627  0.88673942  0.09963765  1  0.024744  0  -0.01381  -0.124305  0  3.932476  0
C  C149  1  0.29740263  0.83374961  0.15659408  1  0.066181  0  -0.010814  -0.112604  0  3.937696  0
C  C150  1  0.22459215  0.92878123  0.11030252  1  0.00287  0  -0.005703  0.066706  0  3.905635  0
C  C151  1  0.26027675  0.78979025  0.14695669  1  0.11336  0  0.016758  0.067107  0  3.984012  0
C  C152  1  0.27612874  0.90387448  0.13793257  1  -0.011347  0  -0.004017  0.066363  0  3.909675  0
C  C153  1  0.20704331  0.81543262  0.11904363  1  0.095301  0  0.016243  0.069714  0  3.977998  0
C  C154  1  0.23188449  0.00268927  0.10282015  1  0.002631  0  -0.149309  -0.196925  0  3.876573  0
C  C155  1  0.29005310  0.97451944  0.13440616  1  -0.020934  0  -0.148747  -0.195985  0  3.86788  0
C  C156  1  0.77941739  0.92435660  0.09530417  1  0.007341  0  -0.013412  -0.121406  0  3.941369  0
C  C157  1  0.66601927  0.87121720  0.15188225  1  -0.006802  0  -0.014177  -0.124279  0  3.937228  0
C  C158  1  0.80953884  0.85375951  0.11357277  1  -0.058084  0  -0.004544  0.068576  0  3.909107  0
C  C159  1  0.63314486  0.94306703  0.13312799  1  0.09249  0  0.016587  0.068649  0  3.983749  0
C  C160  1  0.75531271  0.82867707  0.14094159  1  0.017627  0  -0.003936  0.069262  0  3.905204  0
C  C161  1  0.68861023  0.96896113  0.10547430  1  0.227347  0  0.016621  0.06871  0  3.984179  0
C  C162  1  0.89044374  0.78266005  0.11680639  1  -0.02997  0  -0.149661  -0.197196  0  3.872931  0
C  C163  1  0.82883383  0.75425364  0.14805017  1  0.005364  0  -0.148421  -0.194093  0  3.872705  0
S  S164  1  0.86237326  0.79243747  0.60584551  1  0.293063  0  0.0892  0.143166  0  2.764651  0
S  S165  1  0.60380074  0.95776741  0.64211076  1  0.278313  0  0.087011  0.138037  0  2.751  0
S  S166  1  0.21698728  0.15368491  0.44529766  1  0.265772  0  0.085293  0.133978  0  2.730541  0
S  S167  1  0.29260638  0.08248235  0.31590185  1  0.299869  0  0.090723  0.146424  0  2.787525  0
S  S168  1  0.28973753  0.51481483  0.88863749  1  0.319599  0  0.08872  0.139775  0  2.743342  0
S  S169  1  0.20283497  0.74463252  0.85811996  1  0.338471  0  0.088542  0.141776  0  2.76796  0
S  S170  1  0.80726125  0.45898983  0.14293836  1  0.266884  0  0.083886  0.130311  0  2.717875  0
S  S171  1  0.75368440  0.29386865  0.10335085  1  0.317822  0  0.094198  0.154317  0  2.816246  0
Cl  Cl172  1  0.64452344  0.79209084  0.58253530  1  -0.166264  0  0.002517  -0.039002  0  1.485062  0
Cl  Cl173  1  0.17921986  0.28425880  0.33566659  1  -0.146815  0  0.01207  -0.024207  0  1.507902  0
Cl  Cl174  1  0.32057942  0.61139309  0.76727756  1  -0.157291  0  0.007117  -0.030883  0  1.503344  0
Cl  Cl175  1  0.56959332  0.45441416  0.16004890  1  -0.141201  0  0.014879  -0.020913  0  1.507127  0
Cl  Cl176  1  0.97884535  0.25535662  0.61248029  1  -0.160201  0  -0.007897  -0.055399  0  1.612988  0
Cl  Cl177  1  0.86613611  0.19897611  0.67435306  1  -0.169674  0  -0.010757  -0.061369  0  1.599621  0
Cl  Cl178  1  0.15532190  0.55498430  0.33244071  1  -0.16192  0  -0.006729  -0.055679  0  1.627219  0
Cl  Cl179  1  0.28485335  0.59556882  0.27185471  1  -0.154535  0  -0.004277  -0.045454  0  1.641556  0
Cl  Cl180  1  0.96489374  0.52726309  0.32901111  1  -0.158318  0  -0.005374  -0.04865  0  1.646478  0
Cl  Cl181  1  0.85159821  0.59468443  0.27091584  1  -0.148823  0  -0.0058  -0.051715  0  1.616062  0
Cl  Cl182  1  0.20854826  0.56797886  0.59015386  1  -0.165019  0  -0.009424  -0.05817  0  1.603354  0
Cl  Cl183  1  0.32573373  0.50827896  0.64756510  1  -0.162716  0  -0.009756  -0.059236  0  1.608069  0
Cl  Cl184  1  0.52497734  0.19633473  0.92878399  1  -0.166034  0  -0.008001  -0.057345  0  1.605993  0
Cl  Cl185  1  0.64149992  0.14446187  0.98650048  1  -0.163862  0  -0.00839  -0.054123  0  1.661133  0
Cl  Cl186  1  0.27518523  0.10009840  0.76532122  1  -0.166109  0  -0.008068  -0.055068  0  1.606438  0
Cl  Cl187  1  0.17167067  0.03175616  0.82387586  1  -0.160021  0  -0.008346  -0.056856  0  1.604019  0
Cl  Cl188  1  0.27589885  0.70517451  0.17088685  1  -0.161344  0  -0.006931  -0.053859  0  1.624187  0
Cl  Cl189  1  0.16811864  0.75588608  0.10873017  1  -0.164685  0  -0.00915  -0.0571  0  1.598863  0
Cl  Cl190  1  0.52438220  0.00260531  0.14386931  1  -0.165772  0  -0.007206  -0.05516  0  1.603609  0
Cl  Cl191  1  0.64245961  0.05527931  0.08325751  1  -0.160281  0  -0.007607  -0.052034  0  1.666286  0
O  O192  1  0.00085781  0.49984701  0.50184255  1  -1.224898  0  -0.576066  -1.034874  0  2.541953  0
O  O193  1  0.83305300  0.55892825  0.46763696  1  -1.158207  0  -0.309001  -0.54038  0  2.293447  0
O  O194  1  0.09491017  0.37057758  0.42192787  1  -1.163779  0  -0.31565  -0.538481  0  2.366852  0
O  O195  1  0.96412791  0.37389164  0.55650073  1  -1.194469  0  -0.314474  -0.545437  0  2.428298  0
O  O196  1  0.95236248  0.54611034  0.41608930  1  -1.163434  0  -0.316458  -0.548903  0  2.418742  0
O  O197  1  0.83723605  0.47998559  0.55831285  1  -1.164934  0  -0.308252  -0.540398  0  2.311981  0
O  O198  1  0.13214116  0.31259359  0.48115785  1  -1.166254  0  -0.320645  -0.547194  0  2.309395  0
O  O199  1  0.11521894  0.40592206  0.56396848  1  -1.161455  0  -0.307332  -0.538195  0  2.343963  0
O  O200  1  0.94083715  0.65512993  0.55503580  1  -1.165684  0  -0.321843  -0.548932  0  2.344453  0
O  O201  1  0.12752816  0.51505096  0.54681985  1  -1.171077  0  -0.313801  -0.545518  0  2.397608  0
O  O202  1  0.82306228  0.64962671  0.54815388  1  -1.159418  0  -0.314685  -0.541648  0  2.327476  0
O  O203  1  0.13872583  0.50871158  0.42021666  1  -1.162802  0  -0.317722  -0.550507  0  2.369721  0
O  O204  1  0.09070133  0.61205354  0.46643551  1  -1.159229  0  -0.306543  -0.531059  0  2.27473  0
O  O205  1  0.50016831  0.25023251  0.75000974  1  -1.230997  0  -0.573495  -1.03184  0  2.536799  0
O  O206  1  0.68936676  0.22943474  0.69817450  1  -1.163264  0  -0.311804  -0.543745  0  2.384851  0
O  O207  1  0.40424356  0.43729217  0.76841837  1  -1.166041  0  -0.315131  -0.539959  0  2.365537  0
O  O208  1  0.53528816  0.22407846  0.84119588  1  -1.165112  0  -0.313424  -0.546541  0  2.412988  0
O  O209  1  0.58670798  0.35416454  0.70118045  1  -1.173103  0  -0.309356  -0.536789  0  2.340983  0
O  O210  1  0.66007178  0.15648606  0.78909811  1  -1.164319  0  -0.309408  -0.539678  0  2.329032  0
O  O211  1  0.38135836  0.38012130  0.83069967  1  -1.168236  0  -0.319723  -0.545249  0  2.327389  0
O  O212  1  0.36492374  0.22587872  0.83123368  1  -1.157662  0  -0.308258  -0.538388  0  2.323914  0
O  O213  1  0.53509014  0.10823176  0.68771426  1  -1.169945  0  -0.319363  -0.543948  0  2.325737  0
O  O214  1  0.38127912  0.16599150  0.76967097  1  -1.173672  0  -0.311981  -0.541763  0  2.417276  0
O  O215  1  0.65713334  0.08535087  0.70442743  1  -1.16566  0  -0.313419  -0.535691  0  2.308501  0
O  O216  1  0.42307547  0.36431522  0.68012859  1  -1.157967  0  -0.313647  -0.544714  0  2.388969  0
O  O217  1  0.37096322  0.27800312  0.69477660  1  -1.166518  0  -0.308908  -0.537419  0  2.33849  0
O  O218  1  0.50125416  0.74951075  0.25136734  1  -1.218285  0  -0.574751  -1.03319  0  2.539936  0
O  O219  1  0.40010548  0.70001572  0.33569937  1  -1.172448  0  -0.311323  -0.544941  0  2.317183  0
O  O220  1  0.56305171  0.58714225  0.20178908  1  -1.171403  0  -0.316379  -0.541604  0  2.379147  0
O  O221  1  0.67719503  0.66702246  0.27512079  1  -1.149956  0  -0.314321  -0.544722  0  2.440136  0
O  O222  1  0.38218027  0.66990157  0.27441295  1  -1.146283  0  -0.314842  -0.546329  0  2.42982  0
O  O223  1  0.56897607  0.71177415  0.33703292  1  -1.16011  0  -0.308634  -0.539309  0  2.313153  0
O  O224  1  0.67863185  0.60956032  0.18796720  1  -1.157464  0  -0.32102  -0.546099  0  2.308803  0
O  O225  1  0.65884198  0.77808607  0.19869638  1  -1.162298  0  -0.309868  -0.538142  0  2.340662  0
O  O226  1  0.38935623  0.92958985  0.27790265  1  -1.174769  0  -0.319998  -0.545723  0  2.350145  0
O  O227  1  0.53401817  0.86840368  0.18655513  1  -1.170147  0  -0.313963  -0.547742  0  2.399854  0
O  O228  1  0.39748811  0.86347994  0.33842961  1  -1.165327  0  -0.315185  -0.538117  0  2.293289  0
O  O229  1  0.40826944  0.73739648  0.18343426  1  -1.165076  0  -0.314408  -0.54661  0  2.373976  0
O  O230  1  0.35729620  0.86410522  0.20283074  1  -1.157362  0  -0.307541  -0.532695  0  2.294677  0
O  O231  1  0.99917898  0.00171370  0.00080526  1  -1.23249  0  -0.574765  -1.033685  0  2.540355  0
O  O232  1  0.08419190  0.89116163  0.06746668  1  -1.163753  0  -0.315399  -0.548421  0  2.406836  0
O  O233  1  0.99353513  0.15014553  0.04732345  1  -1.192254  0  -0.315551  -0.539078  0  2.271673  0
O  O234  1  0.81935739  0.01957711  0.06432635  1  -1.165236  0  -0.312018  -0.541909  0  2.400505  0
O  O235  1  0.13791339  0.97613425  0.05002836  1  -1.160853  0  -0.309333  -0.540528  0  2.31932  0
O  O236  1  0.91850428  0.89257930  0.05239961  1  -1.164347  0  -0.308988  -0.537307  0  2.312102  0
O  O237  1  0.86262525  0.15605310  0.05655712  1  -1.172747  0  -0.318207  -0.542216  0  2.387104  0
O  O238  1  0.81770612  0.10857971  0.97885799  1  -1.158606  0  -0.310709  -0.540858  0  2.379985  0
O  O239  1  0.09700360  0.87951367  0.91815723  1  -1.1761  0  -0.319861  -0.546092  0  2.332811  0
O  O240  1  0.91673662  0.02534821  0.92184647  1  -1.16409  0  -0.308482  -0.536466  0  2.31784  0
O  O241  1  0.09381611  0.81647959  0.97977385  1  -1.15658  0  -0.315064  -0.537014  0  2.308367  0
O  O242  1  0.14148148  0.05875797  0.96207853  1  -1.159932  0  -0.30805  -0.53801  0  2.30776  0
O  O243  1  0.08077941  0.04960360  0.91220213  1  -1.163408  0  -0.316265  -0.548093  0  2.400042  0
