# generated using pymatgen
data_Al2Zn3H60C60N6(ClO2)6
_symmetry_space_group_name_H-M   'P 1'
_cell_length_a   13.62633903
_cell_length_b   16.69366433
_cell_length_c   22.90627409
_cell_angle_alpha   82.30175495
_cell_angle_beta   72.68674998
_cell_angle_gamma   65.92431474
_symmetry_Int_Tables_number   1
_chemical_formula_structural   Al2Zn3H60C60N6(ClO2)6
_chemical_formula_sum   'Al4 Zn6 H120 C120 N12 Cl12 O24'
_cell_volume   4541.27545573
_cell_formula_units_Z   2
loop_
 _symmetry_equiv_pos_site_id
 _symmetry_equiv_pos_as_xyz
  1  'x, y, z'
loop_
 _atom_site_type_symbol
 _atom_site_label
 _atom_site_symmetry_multiplicity
 _atom_site_fract_x
 _atom_site_fract_y
 _atom_site_fract_z
 _atom_site_occupancy
 _atom_site_pbe_bader_charge
 _atom_site_pbe_bader_spin_density
 _atom_site_pbe_cm5_charge
 _atom_site_pbe_ddec_charge
 _atom_site_pbe_ddec_spin_density
 _atom_site_pbe_ddec_sum_bond_order
 _atom_site_pbe_magmom
Al  Al0  1  0.32106282  0.89433052  0.96963453  1  2.497822  0  0.382554  1.489506  0  2.774574  0
Al  Al1  1  0.18511813  0.60579654  0.53013402  1  2.497615  0  0.382649  1.489805  0  2.771741  0
Al  Al2  1  0.67893474  0.10567053  0.03036639  1  2.497814  0  0.382562  1.489702  0  2.774371  0
Al  Al3  1  0.81488238  0.39420320  0.46986519  1  2.497615  0  0.382652  1.489814  0  2.771706  0
Zn  Zn4  1  0.20130699  0.45062930  0.82286904  1  1.125109  0  0.538905  0.622839  0  2.730058  0
Zn  Zn5  1  0.47486271  0.04942689  0.67727077  1  1.118363  0  0.539324  0.623152  0  2.729849  0
Zn  Zn6  1  0.79869243  0.54937110  0.17713074  1  1.125176  0  0.538881  0.622798  0  2.730051  0
Zn  Zn7  1  0.52513724  0.95057088  0.32272962  1  1.118376  0  0.539307  0.623118  0  2.729912  0
Zn  Zn8  1  0.78366589  0.25012480  0.75001409  1  1.12228  0  0.553792  0.613888  0  2.730712  0
Zn  Zn9  1  0.21633308  0.74987494  0.24998496  1  1.122261  0  0.553743  0.613832  0  2.73077  0
H  H10  1  0.41365252  0.82739303  0.78126173  1  0.096346  0  0.091359  0.153518  0  1.023274  0
H  H11  1  0.02215358  0.67254685  0.71869427  1  0.116529  0  0.091595  0.154121  0  1.022135  0
H  H12  1  0.58634658  0.17260803  0.21873804  1  0.096359  0  0.091362  0.153502  0  1.023288  0
H  H13  1  0.97785033  0.32745224  0.28130615  1  0.116391  0  0.091612  0.154151  0  1.022124  0
H  H14  1  0.34079697  0.75594488  0.79458750  1  0.047391  0  0.097827  0.145977  0  0.995703  0
H  H15  1  0.89123737  0.74400135  0.70534167  1  0.058964  0  0.097911  0.14634  0  0.995118  0
H  H16  1  0.65920091  0.24405552  0.20541386  1  0.047513  0  0.097848  0.145992  0  0.995678  0
H  H17  1  0.10876488  0.25599643  0.29465961  1  0.05892  0  0.097902  0.146324  0  0.995138  0
H  H18  1  0.48454248  0.71127322  0.78968466  1  0.060568  0  0.102083  0.151373  0  0.973252  0
H  H19  1  0.98546069  0.78866474  0.71024223  1  0.053363  0  0.102082  0.151421  0  0.972519  0
H  H20  1  0.51545662  0.28872784  0.21031730  1  0.060584  0  0.102084  0.151389  0  0.973243  0
H  H21  1  0.01454213  0.21133500  0.28975701  1  0.053333  0  0.102087  0.151433  0  0.972543  0
H  H22  1  0.36502251  0.63933278  0.05976872  1  0.086854  0  0.095271  0.155291  0  1.012234  0
H  H23  1  0.06413760  0.86083230  0.44025734  1  0.098816  0  0.095307  0.155009  0  1.011915  0
H  H24  1  0.63497987  0.36066630  0.94022892  1  0.086875  0  0.09525  0.155286  0  1.012342  0
H  H25  1  0.93586425  0.13916942  0.55974493  1  0.098762  0  0.095308  0.155028  0  1.011894  0
H  H26  1  0.37682337  0.57756264  0.99751194  1  0.082293  0  0.095406  0.143302  0  1.007945  0
H  H27  1  0.95189720  0.92259290  0.50253344  1  0.005737  0  0.095403  0.143093  0  1.007715  0
H  H28  1  0.62316144  0.42243776  0.00248782  1  0.082276  0  0.095414  0.143349  0  1.007804  0
H  H29  1  0.04809308  0.07740422  0.49746654  1  0.005655  0  0.095412  0.143094  0  1.007646  0
H  H30  1  0.24502779  0.65183141  0.03781801  1  0.078119  0  0.106047  0.157395  0  0.966524  0
H  H31  1  0.93460818  0.84838898  0.46219309  1  0.071355  0  0.105841  0.157194  0  0.96604  0
H  H32  1  0.75496762  0.34817556  0.96218445  1  0.078261  0  0.106083  0.157406  0  0.966472  0
H  H33  1  0.06539845  0.15160616  0.53780287  1  0.071358  0  0.105846  0.157192  0  0.965992  0
H  H34  1  0.40844145  0.43958886  0.85073696  1  0.137571  0  0.108183  0.091405  0  1.024722  0
H  H35  1  0.69889403  0.06036382  0.64932376  1  0.1355  0  0.108176  0.091463  0  1.024514  0
H  H36  1  0.59155797  0.56041154  0.14926282  1  0.137565  0  0.108186  0.091393  0  1.024716  0
H  H37  1  0.30110438  0.93963397  0.35067951  1  0.13546  0  0.108171  0.091446  0  1.024546  0
H  H38  1  0.47921636  0.53770913  0.88278944  1  0.11068  0  0.110776  0.123619  0  0.989595  0
H  H39  1  0.89977165  0.96217806  0.61726100  1  0.084083  0  0.11065  0.122404  0  0.989458  0
H  H40  1  0.52078131  0.46229324  0.11721133  1  0.110655  0  0.110821  0.123686  0  0.989614  0
H  H41  1  0.10022700  0.03782234  0.38273935  1  0.084045  0  0.11065  0.122408  0  0.989427  0
H  H42  1  0.15503717  0.74610369  0.89707682  1  0.058168  0  0.106987  0.115193  0  1.019985  0
H  H43  1  0.79804447  0.75394214  0.60283399  1  0.059121  0  0.107123  0.115675  0  1.020652  0
H  H44  1  0.84495763  0.25389671  0.10292335  1  0.058182  0  0.106982  0.115164  0  1.020032  0
H  H45  1  0.20195734  0.24605498  0.39716831  1  0.059164  0  0.107129  0.115688  0  1.020666  0
H  H46  1  0.09755461  0.63909741  0.86172261  1  0.142483  0  0.113812  0.089504  0  0.999454  0
H  H47  1  0.59822381  0.86103826  0.63819618  1  0.12025  0  0.113571  0.088983  0  0.999156  0
H  H48  1  0.90244380  0.36090036  0.13827542  1  0.142552  0  0.113818  0.089518  0  0.999422  0
H  H49  1  0.40177821  0.13895689  0.36180715  1  0.120245  0  0.113574  0.089011  0  0.999117  0
H  H50  1  0.65506249  0.84786253  0.96886713  1  0.039572  0  0.100855  0.153789  0  0.977001  0
H  H51  1  0.47216352  0.65201839  0.53111780  1  0.03557  0  0.100801  0.153907  0  0.978162  0
H  H52  1  0.34493636  0.15213591  0.03113381  1  0.039539  0  0.100849  0.153796  0  0.976982  0
H  H53  1  0.52783700  0.34798135  0.46888403  1  0.035624  0  0.100826  0.153921  0  0.978212  0
H  H54  1  0.63832196  0.80577015  0.04558578  1  0.099706  0  0.098971  0.167936  0  0.995319  0
H  H55  1  0.49013840  0.69418367  0.45441170  1  0.091291  0  0.099149  0.168034  0  0.995326  0
H  H56  1  0.36167799  0.19422763  0.95441461  1  0.099567  0  0.098963  0.167922  0  0.995354  0
H  H57  1  0.50986321  0.30581542  0.54558913  1  0.091297  0  0.099125  0.167978  0  0.995355  0
H  H58  1  0.62664877  0.91552405  0.03145008  1  0.10256  0  0.101861  0.158508  0  1.026562  0
H  H59  1  0.57387397  0.58435492  0.46849666  1  0.09947  0  0.10202  0.158474  0  1.026622  0
H  H60  1  0.37335053  0.08447503  0.96854985  1  0.102449  0  0.101842  0.158473  0  1.026581  0
H  H61  1  0.42612930  0.41564548  0.53150462  1  0.099551  0  0.102018  0.158461  0  1.026702  0
H  H62  1  0.12709203  0.00293444  0.14822073  1  0.074338  0  0.094783  0.142824  0  1.020753  0
H  H63  1  0.27857989  0.49733082  0.35153030  1  0.056082  0  0.094972  0.143493  0  1.018746  0
H  H64  1  0.87290585  0.99706596  0.85178020  1  0.074366  0  0.094794  0.142812  0  1.020701  0
H  H65  1  0.72142326  0.50266826  0.64846982  1  0.056155  0  0.094974  0.143484  0  1.018771  0
H  H66  1  0.22174786  0.04490074  0.15963906  1  0.071851  0  0.101077  0.151244  0  0.977754  0
H  H67  1  0.42661827  0.45537698  0.34008827  1  0.068537  0  0.100959  0.15141  0  0.977223  0
H  H68  1  0.77824969  0.95510032  0.84036230  1  0.072116  0  0.101083  0.151247  0  0.977741  0
H  H69  1  0.57338531  0.54462276  0.65991259  1  0.06857  0  0.100954  0.151418  0  0.977201  0
H  H70  1  0.22943513  0.93984330  0.18815740  1  0.06531  0  0.095116  0.146377  0  1.024654  0
H  H71  1  0.35779399  0.56048086  0.31164288  1  0.072116  0  0.09468  0.146388  0  1.025121  0
H  H72  1  0.77056429  0.06015709  0.81184195  1  0.065295  0  0.095123  0.146389  0  1.024555  0
H  H73  1  0.64220883  0.43951888  0.68835637  1  0.07214  0  0.094662  0.146364  0  1.0251  0
H  H74  1  0.28715627  0.14784820  0.88140102  1  0.059907  0  0.0945  0.15842  0  1.015048  0
H  H75  1  0.31635596  0.35235495  0.61848596  1  0.079722  0  0.094478  0.158523  0  1.01558  0
H  H76  1  0.71284315  0.85215220  0.11860050  1  0.059928  0  0.094515  0.158436  0  1.015043  0
H  H77  1  0.68364346  0.64764544  0.38151382  1  0.079711  0  0.094481  0.158525  0  1.015598  0
H  H78  1  0.14434969  0.18810024  0.88150990  1  0.064935  0  0.097929  0.154414  0  0.984107  0
H  H79  1  0.21384812  0.31214593  0.61837583  1  0.042086  0  0.097883  0.154184  0  0.984267  0
H  H80  1  0.85564973  0.81190016  0.11849163  1  0.064958  0  0.097919  0.154393  0  0.984136  0
H  H81  1  0.78615251  0.68785512  0.38162367  1  0.042419  0  0.097868  0.15417  0  0.984251  0
H  H82  1  0.24838381  0.12426670  0.82008673  1  0.076875  0  0.10267  0.15854  0  0.986358  0
H  H83  1  0.19259075  0.37604214  0.67975714  1  0.03671  0  0.102977  0.158365  0  0.987204  0
H  H84  1  0.75161419  0.87573502  0.17991405  1  0.076833  0  0.102703  0.158589  0  0.986295  0
H  H85  1  0.80740899  0.62395761  0.32024352  1  0.036728  0  0.102986  0.158364  0  0.987207  0
H  H86  1  0.02727242  0.86567642  0.95826070  1  0.055072  0  0.099333  0.150209  0  0.987829  0
H  H87  1  0.85119025  0.63430863  0.54160578  1  0.071  0  0.099995  0.150669  0  0.987963  0
H  H88  1  0.97272842  0.13432267  0.04173852  1  0.055004  0  0.099329  0.150177  0  0.987862  0
H  H89  1  0.14880950  0.36569111  0.45839401  1  0.070985  0  0.09999  0.150679  0  0.987953  0
H  H90  1  0.03540206  0.90991572  0.88213549  1  0.052723  0  0.09944  0.145404  0  0.988016  0
H  H91  1  0.82755801  0.59006467  0.61775349  1  0.05714  0  0.099565  0.145046  0  0.989907  0
H  H92  1  0.96459801  0.09008336  0.11786343  1  0.052588  0  0.099405  0.145321  0  0.988115  0
H  H93  1  0.17244141  0.40993573  0.38224673  1  0.057138  0  0.099577  0.145068  0  0.989907  0
H  H94  1  0.94219646  0.97681798  0.94459069  1  0.123562  0  0.10473  0.164235  0  1.029735  0
H  H95  1  0.86369403  0.52311740  0.55531612  1  0.124728  0  0.104987  0.164583  0  1.028995  0
H  H96  1  0.05780329  0.02318176  0.05540823  1  0.12387  0  0.104735  0.164254  0  1.029684  0
H  H97  1  0.13630527  0.47688168  0.44468381  1  0.124371  0  0.10499  0.164587  0  1.029029  0
H  H98  1  0.78260274  0.22373762  0.88136968  1  0.134059  0  0.113792  0.088045  0  1.029919  0
H  H99  1  0.88814595  0.27607943  0.61876230  1  0.1315  0  0.11382  0.088045  0  1.029695  0
H  H100  1  0.21739741  0.77625818  0.11862825  1  0.134064  0  0.113764  0.088007  0  1.029868  0
H  H101  1  0.11185489  0.72391965  0.38123779  1  0.131385  0  0.113812  0.088016  0  1.029738  0
H  H102  1  0.91600056  0.13814864  0.94324689  1  0.115144  0  0.112372  0.127128  0  1.028017  0
H  H103  1  0.99757634  0.36186383  0.55679681  1  0.117259  0  0.111949  0.126996  0  1.029329  0
H  H104  1  0.08399939  0.86184914  0.05675174  1  0.115484  0  0.112361  0.127116  0  1.028039  0
H  H105  1  0.00242681  0.63813525  0.44320288  1  0.117247  0  0.111919  0.12698  0  1.029316  0
H  H106  1  0.16472174  0.03224604  0.77401191  1  0.136227  0  0.09955  0.125799  0  1.031951  0
H  H107  1  0.97114349  0.46798395  0.72592823  1  0.125198  0  0.099391  0.126082  0  1.031714  0
H  H108  1  0.83527582  0.96775501  0.22598639  1  0.136263  0  0.099573  0.125809  0  1.031963  0
H  H109  1  0.02885472  0.53201579  0.27407270  1  0.131577  0  0.099384  0.126078  0  1.031705  0
H  H110  1  0.01965239  0.12101815  0.71938079  1  0.065065  0  0.119527  0.089888  0  0.980059  0
H  H111  1  0.86059206  0.37893790  0.78068358  1  0.070522  0  0.119865  0.090233  0  0.980687  0
H  H112  1  0.98034395  0.87898224  0.28061648  1  0.065178  0  0.119539  0.089943  0  0.980015  0
H  H113  1  0.13940922  0.62106185  0.21931594  1  0.070515  0  0.119862  0.090225  0  0.980687  0
H  H114  1  0.46795733  0.04683702  0.10906280  1  0.120217  0  0.113537  0.12833  0  1.02973  0
H  H115  1  0.62422849  0.45325239  0.39088361  1  0.153244  0  0.113137  0.127603  0  1.029382  0
H  H116  1  0.53204200  0.95316666  0.89093885  1  0.120262  0  0.113543  0.12835  0  1.029739  0
H  H117  1  0.37577270  0.54675064  0.60911821  1  0.15332  0  0.113108  0.127581  0  1.02937  0
H  H118  1  0.52279861  0.05070245  0.20306162  1  0.113859  0  0.11371  0.086258  0  1.009722  0
H  H119  1  0.77696496  0.44938831  0.29686072  1  0.134782  0  0.113651  0.086465  0  1.008181  0
H  H120  1  0.47720093  0.94929926  0.79693976  1  0.113905  0  0.113744  0.086316  0  1.009678  0
H  H121  1  0.22303239  0.55061472  0.70314048  1  0.134751  0  0.113651  0.086488  0  1.008109  0
H  H122  1  0.49085120  0.81691130  0.26870597  1  0.126574  0  0.107232  0.080023  0  1.043249  0
H  H123  1  0.57688242  0.68319240  0.23126970  1  0.128619  0  0.106939  0.079275  0  1.043875  0
H  H124  1  0.50914810  0.18308778  0.73129265  1  0.126497  0  0.107232  0.080013  0  1.043334  0
H  H125  1  0.42311809  0.31680734  0.76872951  1  0.128635  0  0.106946  0.079294  0  1.043846  0
H  H126  1  0.43985391  0.79984062  0.17507502  1  0.123312  0  0.097259  0.114289  0  1.038545  0
H  H127  1  0.41513661  0.70023499  0.32492051  1  0.135475  0  0.097428  0.114547  0  1.039374  0
H  H128  1  0.56014445  0.20016502  0.82492268  1  0.123185  0  0.09726  0.114281  0  1.038588  0
H  H129  1  0.58486326  0.29976606  0.67507825  1  0.135491  0  0.097429  0.114561  0  1.039363  0
C  C130  1  0.40624087  0.76825234  0.80587464  1  -0.088053  0  -0.240822  -0.476277  0  3.90789  0
C  C131  1  0.98028480  0.73167008  0.69406280  1  -0.143627  0  -0.241074  -0.477608  0  3.905851  0
C  C132  1  0.59375746  0.23174872  0.19412570  1  -0.088214  0  -0.240805  -0.47625  0  3.907896  0
C  C133  1  0.01971757  0.26832901  0.30593790  1  -0.143461  0  -0.241084  -0.477635  0  3.905883  0
C  C134  1  0.38085461  0.77846066  0.87369988  1  0.72754  0  0.152267  0.47134  0  3.968532  0
C  C135  1  0.03288479  0.72145417  0.62623612  1  0.774955  0  0.15276  0.473408  0  3.966598  0
C  C136  1  0.61914526  0.22154039  0.12630063  1  0.727531  0  0.152295  0.471411  0  3.968392  0
C  C137  1  0.96711682  0.27854492  0.37376471  1  0.775021  0  0.152746  0.473453  0  3.966576  0
C  C138  1  0.35189201  0.71559941  0.91537588  1  -0.011448  0  -0.063661  -0.335451  0  3.989142  0
C  C139  1  0.98272663  0.78436029  0.58459142  1  0.00061  0  -0.06357  -0.336331  0  3.989777  0
C  C140  1  0.64810697  0.28440034  0.08462361  1  -0.01149  0  -0.063572  -0.335331  0  3.989174  0
C  C141  1  0.01727575  0.21563880  0.41540971  1  0.000493  0  -0.063545  -0.336366  0  3.989919  0
C  C142  1  0.34551035  0.71596324  0.97829037  1  0.767894  0  0.154335  0.476799  0  3.959547  0
C  C143  1  0.03967419  0.78416037  0.52169294  1  0.735507  0  0.153495  0.475828  0  3.95925  0
C  C144  1  0.65448522  0.28403716  0.02170922  1  0.767765  0  0.15429  0.476734  0  3.959512  0
C  C145  1  0.96032588  0.21583872  0.47830817  1  0.735486  0  0.153474  0.475716  0  3.959369  0
C  C146  1  0.33403390  0.64103981  0.02037192  1  -0.146111  0  -0.239993  -0.48091  0  3.904128  0
C  C147  1  0.99540080  0.85914582  0.47963982  1  -0.074065  0  -0.23942  -0.479431  0  3.902159  0
C  C148  1  0.66595904  0.35896124  0.97962763  1  -0.146152  0  -0.24002  -0.480975  0  3.90413  0
C  C149  1  0.00460025  0.14085130  0.52036130  1  -0.073947  0  -0.239436  -0.479409  0  3.902032  0
C  C150  1  0.35455823  0.50817747  0.86128435  1  0.45548  0  0.051227  0.107433  0  3.912739  0
C  C151  1  0.72403879  0.99179954  0.63877532  1  0.466993  0  0.05141  0.106452  0  3.91361  0
C  C152  1  0.64544240  0.49182358  0.13871515  1  0.455053  0  0.051263  0.107471  0  3.912582  0
C  C153  1  0.27596128  0.00819955  0.36122535  1  0.46674  0  0.051432  0.106493  0  3.913836  0
C  C154  1  0.39345324  0.56334835  0.87955903  1  -0.023098  0  -0.079921  -0.184003  0  3.930281  0
C  C155  1  0.83634965  0.93659529  0.62047881  1  0.00937  0  -0.079449  -0.181408  0  3.928826  0
C  C156  1  0.60654432  0.43665271  0.12044014  1  -0.022797  0  -0.079916  -0.183993  0  3.930253  0
C  C157  1  0.16365284  0.06340510  0.37951825  1  0.009648  0  -0.07949  -0.181483  0  3.928961  0
C  C158  1  0.32188326  0.65091193  0.89340583  1  -0.000743  0  0.017831  0.170026  0  4.000714  0
C  C159  1  0.86609758  0.84905472  0.60661149  1  -0.009451  0  0.01796  0.170676  0  4.001046  0
C  C160  1  0.67811276  0.34908913  0.10659362  1  -0.000752  0  0.01768  0.169756  0  4.000849  0
C  C161  1  0.13390139  0.15094502  0.39338713  1  -0.009404  0  0.018017  0.1708  0  4.001026  0
C  C162  1  0.21351318  0.67859818  0.88678453  1  -0.035022  0  -0.084341  -0.184301  0  3.938343  0
C  C163  1  0.77875527  0.82140814  0.61320978  1  -0.031901  0  -0.085453  -0.187511  0  3.941182  0
C  C164  1  0.78648381  0.32140091  0.11321756  1  -0.035095  0  -0.084284  -0.184137  0  3.93826  0
C  C165  1  0.22124249  0.17859095  0.38679173  1  -0.031743  0  -0.085461  -0.187514  0  3.941178  0
C  C166  1  0.18084679  0.62014948  0.86765046  1  0.451054  0  0.048861  0.097916  0  3.946881  0
C  C167  1  0.66855626  0.87989289  0.63234258  1  0.4731  0  0.049758  0.099396  0  3.946719  0
C  C168  1  0.81915251  0.37984961  0.13234947  1  0.451026  0  0.048878  0.097898  0  3.946928  0
C  C169  1  0.33144183  0.12010554  0.36765719  1  0.473049  0  0.049705  0.099286  0  3.946718  0
C  C170  1  0.60881931  0.86408287  0.01664702  1  -0.091053  0  -0.241131  -0.490005  0  3.878799  0
C  C171  1  0.48986877  0.63586223  0.48332192  1  -0.098651  0  -0.241294  -0.490158  0  3.879723  0
C  C172  1  0.39117878  0.13591556  0.98335363  1  -0.090687  0  -0.241129  -0.489985  0  3.878785  0
C  C173  1  0.51013251  0.36413751  0.51667934  1  -0.098727  0  -0.24132  -0.490143  0  3.879879  0
C  C174  1  0.48661281  0.89135381  0.02403414  1  0.718049  0  0.160137  0.486787  0  3.949005  0
C  C175  1  0.40220642  0.60876348  0.47589221  1  0.752708  0  0.15986  0.487578  0  3.947093  0
C  C176  1  0.51338487  0.10864856  0.97596576  1  0.717909  0  0.16014  0.486734  0  3.949062  0
C  C177  1  0.59779487  0.39123626  0.52410905  1  0.75272  0  0.159909  0.487737  0  3.947039  0
C  C178  1  0.40889389  0.91952986  0.08144564  1  0.009982  0  -0.057408  -0.31747  0  3.973922  0
C  C179  1  0.41018362  0.58056848  0.41845313  1  0.053083  0  -0.057119  -0.318304  0  3.973986  0
C  C180  1  0.59110338  0.08047644  0.91855437  1  0.009979  0  -0.057361  -0.31735  0  3.973973  0
C  C181  1  0.58981669  0.41943323  0.58154679  1  0.053076  0  -0.057145  -0.318357  0  3.974032  0
C  C182  1  0.29305504  0.94752471  0.08980541  1  0.734903  0  0.153103  0.471542  0  3.95935  0
C  C183  1  0.33068527  0.55267223  0.40999619  1  0.687277  0  0.153068  0.47351  0  3.959749  0
C  C184  1  0.70694340  0.05247765  0.91019522  1  0.735196  0  0.153017  0.471376  0  3.95955  0
C  C185  1  0.66931536  0.44732882  0.59000287  1  0.68729  0  0.153083  0.473518  0  3.959916  0
C  C186  1  0.21268649  0.98590004  0.14985344  1  -0.117593  0  -0.242833  -0.479418  0  3.904022  0
C  C187  1  0.34877425  0.51436981  0.34990446  1  -0.098394  0  -0.242521  -0.480667  0  3.902148  0
C  C188  1  0.78731151  0.01410167  0.85014690  1  -0.118058  0  -0.24287  -0.479407  0  3.903888  0
C  C189  1  0.65122901  0.48563058  0.65009507  1  -0.09855  0  -0.242523  -0.480654  0  3.902077  0
C  C190  1  0.44775130  0.92313507  0.13486691  1  -0.032265  0  0.017994  0.166342  0  3.980543  0
C  C191  1  0.50611683  0.57692067  0.36507494  1  -0.006482  0  0.017648  0.166265  0  3.981048  0
C  C192  1  0.55224727  0.07686861  0.86513226  1  -0.032551  0  0.017967  0.166331  0  3.980439  0
C  C193  1  0.49388458  0.42308039  0.63492704  1  -0.005696  0  0.017648  0.166182  0  3.981123  0
C  C194  1  0.22490608  0.13208297  0.86991186  1  -0.063056  0  -0.244602  -0.489031  0  3.899619  0
C  C195  1  0.22684935  0.36817436  0.62993334  1  -0.029057  0  -0.24452  -0.488336  0  3.901062  0
C  C196  1  0.77509301  0.86791809  0.13008879  1  -0.063045  0  -0.244624  -0.48908  0  3.899618  0
C  C197  1  0.77314974  0.63182670  0.37006817  1  -0.029393  0  -0.244486  -0.488276  0  3.901078  0
C  C198  1  0.21756339  0.04963835  0.90213881  1  0.755106  0  0.15972  0.488308  0  3.947057  0
C  C199  1  0.16936877  0.45055844  0.59765941  1  0.758099  0  0.160276  0.487908  0  3.948759  0
C  C200  1  0.78243449  0.95036204  0.09786124  1  0.755069  0  0.159737  0.488437  0  3.946982  0
C  C201  1  0.83063218  0.54944196  0.40234009  1  0.758105  0  0.16028  0.48796  0  3.948803  0
C  C202  1  0.13218302  0.02338647  0.89953110  1  0.012292  0  -0.061065  -0.325167  0  3.976743  0
C  C203  1  0.05508458  0.47684728  0.60037360  1  0.00956  0  -0.061518  -0.325686  0  3.976192  0
C  C204  1  0.86781826  0.97661327  0.10046623  1  0.012305  0  -0.061098  -0.325299  0  3.976726  0
C  C205  1  0.94491594  0.52315246  0.39962605  1  0.009479  0  -0.061535  -0.32575  0  3.976298  0
C  C206  1  0.11756470  0.94952534  0.93238882  1  0.694847  0  0.146895  0.466713  0  3.979428  0
C  C207  1  0.99950796  0.55058527  0.56743172  1  0.713475  0  0.146974  0.466571  0  3.97686  0
C  C208  1  0.88243330  0.05047637  0.06760934  1  0.694697  0  0.146935  0.466841  0  3.979159  0
C  C209  1  0.00049178  0.44941447  0.43256720  1  0.713356  0  0.146994  0.466649  0  3.97677  0
C  C210  1  0.02509743  0.92413150  0.92964723  1  -0.116011  0  -0.242525  -0.490049  0  3.901947  0
C  C211  1  0.87890215  0.57587821  0.57021789  1  -0.158004  0  -0.243712  -0.490062  0  3.901852  0
C  C212  1  0.97490154  0.07586824  0.07035138  1  -0.116287  0  -0.242579  -0.490046  0  3.901887  0
C  C213  1  0.12109791  0.42412087  0.42978190  1  -0.157638  0  -0.243733  -0.490121  0  3.901862  0
C  C214  1  0.86846805  0.18118918  0.85969406  1  0.445557  0  0.049777  0.101198  0  3.927943  0
C  C215  1  0.90965011  0.31875251  0.64039709  1  0.469272  0  0.048747  0.100411  0  3.925875  0
C  C216  1  0.13152753  0.81881122  0.14030510  1  0.445695  0  0.049906  0.101325  0  3.927893  0
C  C217  1  0.09035348  0.68124723  0.35960289  1  0.469338  0  0.048817  0.100493  0  3.925718  0
C  C218  1  0.94352319  0.13350656  0.89358053  1  -0.031374  0  -0.079407  -0.173195  0  3.907631  0
C  C219  1  0.97075469  0.36656238  0.60644798  1  -0.032167  0  -0.078263  -0.171944  0  3.906896  0
C  C220  1  0.05647558  0.86649515  0.10641706  1  -0.031625  0  -0.079497  -0.173279  0  3.907935  0
C  C221  1  0.02924878  0.63343605  0.39355215  1  -0.031985  0  -0.078307  -0.172002  0  3.906774  0
C  C222  1  0.05199763  0.07762485  0.86383499  1  0.019499  0  0.018869  0.169034  0  3.986005  0
C  C223  1  0.99347557  0.42258770  0.63613532  1  0.005196  0  0.018693  0.16868  0  3.986109  0
C  C224  1  0.94800454  0.92237619  0.13616162  1  0.019331  0  0.018942  0.169058  0  3.98621  0
C  C225  1  0.00652462  0.57741270  0.36386520  1  0.005118  0  0.018736  0.168657  0  3.986249  0
C  C226  1  0.08089869  0.07363693  0.79977797  1  -0.030022  0  -0.079962  -0.176208  0  3.909803  0
C  C227  1  0.95446714  0.42652617  0.70021064  1  -0.051302  0  -0.079375  -0.176302  0  3.908476  0
C  C228  1  0.91910040  0.92636412  0.20022006  1  -0.029942  0  -0.080008  -0.176231  0  3.909722  0
C  C229  1  0.04553184  0.57347358  0.29979059  1  -0.05765  0  -0.079377  -0.176283  0  3.908532  0
C  C230  1  0.00113823  0.12334717  0.76902173  1  0.467523  0  0.047785  0.095144  0  3.9409  0
C  C231  1  0.89384782  0.37667847  0.73103704  1  0.494697  0  0.047428  0.095326  0  3.94106  0
C  C232  1  0.99885965  0.87665322  0.23097483  1  0.467422  0  0.047739  0.095014  0  3.940897  0
C  C233  1  0.10615237  0.62332193  0.26896304  1  0.494749  0  0.047442  0.095342  0  3.940977  0
C  C234  1  0.47161792  0.99430562  0.14322918  1  0.015761  0  -0.079242  -0.174845  0  3.913566  0
C  C235  1  0.60952193  0.50577692  0.35670751  1  -0.048961  0  -0.078574  -0.174258  0  3.912118  0
C  C236  1  0.52838194  0.00569544  0.85677089  1  0.016061  0  -0.079265  -0.174952  0  3.913637  0
C  C237  1  0.39048016  0.49422742  0.64329490  1  -0.049788  0  -0.078589  -0.174205  0  3.912049  0
C  C238  1  0.50183733  0.99714223  0.19545047  1  0.43287  0  0.04728  0.09979  0  3.931363  0
C  C239  1  0.69477819  0.50292730  0.30447862  1  0.423208  0  0.046401  0.099096  0  3.932236  0
C  C240  1  0.49816516  0.00285817  0.80455008  1  0.432931  0  0.047244  0.099744  0  3.931449  0
C  C241  1  0.30522232  0.49707244  0.69552234  1  0.423271  0  0.046405  0.099061  0  3.932146  0
C  C242  1  0.48565375  0.86507244  0.23136540  1  0.42753  0  0.044694  0.096484  0  3.934764  0
C  C243  1  0.58246998  0.63502605  0.26861183  1  0.426753  0  0.044657  0.096216  0  3.937498  0
C  C244  1  0.51434207  0.13493059  0.76863476  1  0.427371  0  0.044682  0.096409  0  3.93473  0
C  C245  1  0.41753131  0.36497369  0.73138856  1  0.426389  0  0.044667  0.096243  0  3.937384  0
C  C246  1  0.45685407  0.85677452  0.17986320  1  -0.011569  0  -0.08071  -0.16899  0  3.916383  0
C  C247  1  0.49385322  0.64330589  0.32009159  1  -0.031333  0  -0.081095  -0.169261  0  3.918965  0
C  C248  1  0.54314186  0.14322982  0.82013681  1  -0.011323  0  -0.080701  -0.168945  0  3.916339  0
C  C249  1  0.50614665  0.35669516  0.67990761  1  -0.031078  0  -0.081092  -0.169264  0  3.919022  0
N  N250  1  0.25020272  0.53602127  0.85541611  1  -1.254819  0  -0.326759  -0.212186  0  3.566263  0
N  N251  1  0.64160812  0.96400931  0.64460152  1  -1.254792  0  -0.327011  -0.21133  0  3.565636  0
N  N252  1  0.74979877  0.46397650  0.14458269  1  -1.254658  0  -0.326825  -0.212243  0  3.566321  0
N  N253  1  0.35839490  0.03598847  0.35539919  1  -1.254844  0  -0.327003  -0.2113  0  3.565634  0
N  N254  1  0.50756066  0.93397747  0.23910066  1  -1.253758  0  -0.337809  -0.22796  0  3.601535  0
N  N255  1  0.68098558  0.56610379  0.26083078  1  -1.255945  0  -0.33675  -0.226441  0  3.601942  0
N  N256  1  0.49243735  0.06602424  0.76090012  1  -1.253824  0  -0.337747  -0.227835  0  3.601503  0
N  N257  1  0.31901295  0.43389529  0.73916972  1  -1.255917  0  -0.336737  -0.226461  0  3.601907  0
N  N258  1  0.89662795  0.17596508  0.79841280  1  -1.260785  0  -0.338215  -0.229452  0  3.617959  0
N  N259  1  0.87135480  0.32400718  0.70168106  1  -1.262536  0  -0.338804  -0.230764  0  3.618453  0
N  N260  1  0.10337123  0.82403268  0.20158510  1  -1.260912  0  -0.338227  -0.229402  0  3.618003  0
N  N261  1  0.12864648  0.67599256  0.29831932  1  -1.26249  0  -0.338809  -0.23074  0  3.618409  0
Cl  Cl262  1  0.25538654  0.32733466  0.87617345  1  -0.668663  0  -0.353579  -0.52013  0  1.156989  0
Cl  Cl263  1  0.45878439  0.17277039  0.62400055  1  -0.66984  0  -0.353607  -0.520259  0  1.157204  0
Cl  Cl264  1  0.74461397  0.67266509  0.12382620  1  -0.66867  0  -0.353576  -0.520118  0  1.15699  0
Cl  Cl265  1  0.54121774  0.82722607  0.37599827  1  -0.669877  0  -0.353596  -0.520256  0  1.157217  0
Cl  Cl266  1  0.03519588  0.52963404  0.80593859  1  -0.677352  0  -0.361785  -0.529251  0  1.101598  0
Cl  Cl267  1  0.37068856  0.97049582  0.69422669  1  -0.672158  0  -0.362198  -0.529664  0  1.101311  0
Cl  Cl268  1  0.96480374  0.47036439  0.19406134  1  -0.677398  0  -0.361796  -0.529269  0  1.101623  0
Cl  Cl269  1  0.62931107  0.02950261  0.30577281  1  -0.672153  0  -0.362174  -0.529626  0  1.101322  0
Cl  Cl270  1  0.62991209  0.33668830  0.81552411  1  -0.671536  0  -0.323693  -0.501315  0  1.172756  0
Cl  Cl271  1  0.78207179  0.16368122  0.68437555  1  -0.670324  0  -0.323777  -0.501388  0  1.172611  0
Cl  Cl272  1  0.37008745  0.66331340  0.18447421  1  -0.671571  0  -0.323687  -0.501302  0  1.172743  0
Cl  Cl273  1  0.21793144  0.83631458  0.31562401  1  -0.6703  0  -0.32376  -0.501378  0  1.17263  0
O  O274  1  0.39103688  0.84448798  0.89047190  1  -1.236558  0  -0.234517  -0.528525  0  2.332626  0
O  O275  1  0.12582031  0.65541854  0.60942407  1  -1.236758  0  -0.23485  -0.52926  0  2.33092  0
O  O276  1  0.60895914  0.15551307  0.10952754  1  -1.236562  0  -0.234553  -0.528654  0  2.332516  0
O  O277  1  0.87417997  0.34457858  0.39057719  1  -1.236704  0  -0.234853  -0.529294  0  2.330894  0
O  O278  1  0.34748007  0.77944307  0.00345844  1  -1.232795  0  -0.23461  -0.530423  0  2.333493  0
O  O279  1  0.13039916  0.72077490  0.49649359  1  -1.241111  0  -0.234551  -0.530362  0  2.332574  0
O  O280  1  0.65251922  0.22055602  0.99654018  1  -1.232707  0  -0.234574  -0.530386  0  2.333362  0
O  O281  1  0.86960366  0.27922485  0.50350740  1  -1.241116  0  -0.234553  -0.5303  0  2.332633  0
O  O282  1  0.45818006  0.88754686  0.97596197  1  -1.243545  0  -0.233096  -0.541239  0  2.367848  0
O  O283  1  0.32172841  0.61267786  0.52392402  1  -1.248209  0  -0.232912  -0.542197  0  2.36766  0
O  O284  1  0.54181770  0.11245223  0.02403954  1  -1.243524  0  -0.23312  -0.541289  0  2.367837  0
O  O285  1  0.67827340  0.38731926  0.47607697  1  -1.248222  0  -0.232908  -0.542268  0  2.367641  0
O  O286  1  0.24941084  0.94416167  0.04790350  1  -1.246484  0  -0.236157  -0.544537  0  2.390429  0
O  O287  1  0.24165639  0.55608723  0.45183620  1  -1.252254  0  -0.235801  -0.545207  0  2.39134  0
O  O288  1  0.75058955  0.05583676  0.95209717  1  -1.246515  0  -0.236094  -0.544456  0  2.390427  0
O  O289  1  0.75834238  0.44391448  0.54816356  1  -1.252274  0  -0.235805  -0.545213  0  2.391369  0
O  O290  1  0.29011329  0.00666933  0.93194888  1  -1.240431  0  -0.227179  -0.53251  0  2.38362  0
O  O291  1  0.22885856  0.49341864  0.56773811  1  -1.241831  0  -0.227995  -0.532599  0  2.386726  0
O  O292  1  0.70988273  0.99333173  0.06805274  1  -1.240392  0  -0.227181  -0.532601  0  2.383574  0
O  O293  1  0.77114260  0.50657979  0.43225938  1  -1.241878  0  -0.228021  -0.532643  0  2.386646  0
O  O294  1  0.18100921  0.89941600  0.96556080  1  -1.254456  0  -0.239804  -0.559189  0  2.427506  0
O  O295  1  0.04610866  0.60059200  0.53412625  1  -1.249311  0  -0.239389  -0.55883  0  2.425753  0
O  O296  1  0.81898846  0.10058637  0.03443822  1  -1.254239  0  -0.239754  -0.559169  0  2.427426  0
O  O297  1  0.95389076  0.39940840  0.46587353  1  -1.2492  0  -0.239387  -0.558841  0  2.425692  0
