# generated using pymatgen
data_U2H12C16N2O11
_symmetry_space_group_name_H-M   'P 1'
_cell_length_a   8.57628327
_cell_length_b   9.88791070
_cell_length_c   11.82484639
_cell_angle_alpha   78.40628055
_cell_angle_beta   80.70456723
_cell_angle_gamma   83.51264397
_symmetry_Int_Tables_number   1
_chemical_formula_structural   U2H12C16N2O11
_chemical_formula_sum   'U4 H24 C32 N4 O22'
_cell_volume   966.03820917
_cell_formula_units_Z   2
loop_
 _symmetry_equiv_pos_site_id
 _symmetry_equiv_pos_as_xyz
  1  'x, y, z'
loop_
 _atom_site_type_symbol
 _atom_site_label
 _atom_site_symmetry_multiplicity
 _atom_site_fract_x
 _atom_site_fract_y
 _atom_site_fract_z
 _atom_site_occupancy
 _atom_site_hle17_bader_spin_density
 _atom_site_hle17_ddec_charge
 _atom_site_hle17_ddec_spin_density
 _atom_site_hle17_ddec_sum_bond_order
 _atom_site_hle17_magmom
 _atom_site_hse06_10hf_bader_spin_density
 _atom_site_hse06_10hf_ddec_charge
 _atom_site_hse06_10hf_ddec_spin_density
 _atom_site_hse06_10hf_ddec_sum_bond_order
 _atom_site_hse06_10hf_magmom
 _atom_site_hse06_bader_spin_density
 _atom_site_hse06_ddec_charge
 _atom_site_hse06_ddec_spin_density
 _atom_site_hse06_ddec_sum_bond_order
 _atom_site_hse06_magmom
 _atom_site_pbe_bader_spin_density
 _atom_site_pbe_cm5_charge
 _atom_site_pbe_ddec_charge
 _atom_site_pbe_ddec_spin_density
 _atom_site_pbe_ddec_sum_bond_order
 _atom_site_pbe_magmom
U  U0  1  0.18627226  0.58252417  0.03580785  1  0  2.480003  0  4.126417  0  0  2.555015  0  4.770608  0  0  2.665857  0  4.733347  0  0  2.162788  2.475814  0  4.797472  0
U  U1  1  0.81372778  0.41747656  0.96419257  1  0  2.479965  0  4.126458  0  0  2.555034  0  4.770637  0  0  2.665891  0  4.733352  0  0  2.162786  2.475859  0  4.797459  0
U  U2  1  0.70538748  0.69426509  0.51408060  1  0  2.382922  0  4.214406  0  0  2.417221  0  4.892257  0  0  2.527613  0  4.856404  0  0  2.20731  2.338835  0  4.91847  0
U  U3  1  0.29461119  0.30573774  0.48591795  1  0  2.382837  0  4.21463  0  0  2.417173  0  4.892406  0  0  2.527488  0  4.85666  0  0  2.207311  2.338776  0  4.918633  0
H  H4  1  0.78295004  0.38011987  0.23291658  1  0  0.138651  0  0.956162  0  0  0.146315  0  1.022603  0  0  0.148942  0  1.021299  0  0  0.116697  0.144702  0  1.023456  0
H  H5  1  0.21704755  0.61988188  0.76708566  1  0  0.1386  0  0.956213  0  0  0.146287  0  1.022652  0  0  0.148915  0  1.021348  0  0  0.116691  0.144686  0  1.023493  0
H  H6  1  0.86708322  0.44714369  0.33479557  1  0  0.140909  0  0.918089  0  0  0.152927  0  0.976324  0  0  0.154354  0  0.976807  0  0  0.124567  0.152245  0  0.975824  0
H  H7  1  0.13291781  0.55285911  0.66520440  1  0  0.140878  0  0.918089  0  0  0.152923  0  0.976326  0  0  0.154353  0  0.976806  0  0  0.12453  0.15224  0  0.975827  0
H  H8  1  0.60728025  0.74747509  0.21502029  1  0  0.139272  0  0.931837  0  0  0.149004  0  0.991768  0  0  0.151677  0  0.991018  0  0  0.116171  0.147336  0  0.992327  0
H  H9  1  0.39272078  0.25252773  0.78497798  1  0  0.139288  0  0.931805  0  0  0.149012  0  0.991752  0  0  0.151684  0  0.991001  0  0  0.116186  0.147344  0  0.992311  0
H  H10  1  0.70775506  0.77375593  0.06999249  1  0  0.138082  0  0.904395  0  0  0.153457  0  0.956831  0  0  0.155311  0  0.956862  0  0  0.120084  0.152364  0  0.956716  0
H  H11  1  0.29224499  0.22624483  0.93000539  1  0  0.138101  0  0.904399  0  0  0.153476  0  0.95683  0  0  0.155327  0  0.956861  0  0  0.120093  0.152381  0  0.956714  0
H  H12  1  0.45167364  0.76704899  0.75291675  1  0  0.090017  0  0.965474  0  0  0.096557  0  1.031253  0  0  0.099803  0  1.028001  0  0  0.129032  0.094051  0  1.033813  0
H  H13  1  0.54832768  0.23295072  0.24708199  1  0  0.089996  0  0.965475  0  0  0.096534  0  1.031253  0  0  0.099781  0  1.028001  0  0  0.129028  0.094027  0  1.033814  0
H  H14  1  0.39575119  0.92599101  0.89403214  1  0  0.107107  0  0.949966  0  0  0.117934  0  1.00743  0  0  0.120981  0  1.006573  0  0  0.114619  0.115711  0  1.008348  0
H  H15  1  0.60424905  0.07400766  0.10596774  1  0  0.107167  0  0.949927  0  0  0.117997  0  1.007383  0  0  0.121044  0  1.006526  0  0  0.114655  0.115775  0  1.008302  0
H  H16  1  0.61468304  0.07396947  0.90942193  1  0  0.100722  0  0.960379  0  0  0.111149  0  1.021244  0  0  0.114195  0  1.018915  0  0  0.11225  0.108826  0  1.023101  0
H  H17  1  0.38531582  0.92603127  0.09057863  1  0  0.100702  0  0.96039  0  0  0.111122  0  1.021257  0  0  0.114167  0  1.018925  0  0  0.112247  0.108801  0  1.023113  0
H  H18  1  0.87611655  0.04106825  0.79179353  1  0  0.118434  0  0.948959  0  0  0.12831  0  1.006575  0  0  0.132311  0  1.004558  0  0  0.115915  0.125386  0  1.008283  0
H  H19  1  0.12388250  0.95893042  0.20820649  1  0  0.118437  0  0.948931  0  0  0.128315  0  1.006549  0  0  0.132317  0  1.004531  0  0  0.115915  0.125393  0  1.008256  0
H  H20  1  0.09749991  0.95764738  0.72846317  1  0  0.118831  0  0.933911  0  0  0.133368  0  0.983409  0  0  0.136834  0  0.981815  0  0  0.11897  0.130747  0  0.984899  0
H  H21  1  0.90250161  0.04235026  0.27153673  1  0  0.118846  0  0.933874  0  0  0.133368  0  0.983389  0  0  0.136838  0  0.981789  0  0  0.118962  0.130747  0  0.98488  0
H  H22  1  0.34652789  0.91927190  0.59364163  1  0  0.109833  0  0.965094  0  0  0.12057  0  1.024259  0  0  0.12338  0  1.021356  0  0  0.119701  0.118606  0  1.026464  0
H  H23  1  0.65347254  0.08072470  0.40635772  1  0  0.109829  0  0.965062  0  0  0.120573  0  1.024235  0  0  0.123382  0  1.021334  0  0  0.119708  0.118609  0  1.026441  0
H  H24  1  0.33911936  0.79620935  0.42910000  1  0  0.117799  0  0.948442  0  0  0.128774  0  1.00389  0  0  0.132361  0  1.002684  0  0  0.120647  0.126168  0  1.005051  0
H  H25  1  0.66088116  0.20378621  0.57090035  1  0  0.117831  0  0.948454  0  0  0.1288  0  1.003894  0  0  0.132386  0  1.002689  0  0  0.120662  0.126193  0  1.005055  0
H  H26  1  0.08291654  0.71902046  0.40480841  1  0  0.097479  0  0.959869  0  0  0.105171  0  1.020682  0  0  0.108808  0  1.016465  0  0  0.128727  0.10249  0  1.023692  0
H  H27  1  0.91708261  0.28097717  0.59519261  1  0  0.097399  0  0.959965  0  0  0.105096  0  1.020748  0  0  0.108737  0  1.016526  0  0  0.128699  0.102412  0  1.023763  0
C  C28  1  0.91394827  0.68729313  0.23365489  1  0  0.656657  0  3.759487  0  0  0.626422  0  4.046639  0  0  0.664239  0  4.034323  0  0  0.250689  0.600038  0  4.054401  0
C  C29  1  0.08605168  0.31270866  0.76634368  1  0  0.656682  0  3.7594  0  0  0.626497  0  4.04651  0  0  0.66431  0  4.034199  0  0  0.25074  0.60011  0  4.054275  0
C  C30  1  0.81477865  0.60041837  0.18145747  1  0  0.280855  0  3.618472  0  0  0.292341  0  3.855274  0  0  0.299882  0  3.86578  0  0  0.083622  0.286747  0  3.847919  0
C  C31  1  0.18522140  0.39958236  0.81854295  1  0  0.280854  0  3.618357  0  0  0.292272  0  3.855287  0  0  0.299814  0  3.865793  0  0  0.083623  0.286679  0  3.847928  0
C  C32  1  0.77580564  0.46870210  0.27637169  1  0  -0.376784  0  3.598699  0  0  -0.421976  0  3.829593  0  0  -0.429485  0  3.835597  0  0  -0.152245  -0.416756  0  3.825113  0
C  C33  1  0.22419421  0.53130069  0.72362926  1  0  -0.376657  0  3.598631  0  0  -0.421988  0  3.829606  0  0  -0.429505  0  3.835618  0  0  -0.152199  -0.416776  0  3.825116  0
C  C34  1  0.61699938  0.47942003  0.35175956  1  0  0.777529  0  3.741779  0  0  0.747324  0  4.03324  0  0  0.787281  0  4.019633  0  0  0.255737  0.719435  0  4.041828  0
C  C35  1  0.38299801  0.52058384  0.64823898  1  0  0.777478  0  3.741747  0  0  0.747435  0  4.032988  0  0  0.787389  0  4.019387  0  0  0.255783  0.719545  0  4.041569  0
C  C36  1  0.66685361  0.69402805  0.14510837  1  0  -0.36559  0  3.613013  0  0  -0.409619  0  3.846151  0  0  -0.417023  0  3.85098  0  0  -0.155226  -0.404537  0  3.842683  0
C  C37  1  0.33314634  0.30597373  0.85489105  1  0  -0.365584  0  3.612982  0  0  -0.409587  0  3.846144  0  0  -0.416981  0  3.850961  0  0  -0.155211  -0.404502  0  3.842669  0
C  C38  1  0.54765978  0.61652946  0.10668346  1  0  0.762664  0  3.759066  0  0  0.731324  0  4.05394  0  0  0.771305  0  4.040064  0  0  0.249538  0.703703  0  4.062458  0
C  C39  1  0.45234144  0.38347128  0.89331597  1  0  0.762691  0  3.75904  0  0  0.731334  0  4.053941  0  0  0.771313  0  4.040064  0  0  0.249542  0.703714  0  4.062454  0
C  C40  1  0.54247407  0.83040895  0.76285177  1  0  0.160875  0  3.668224  0  0  0.134027  0  3.927909  0  0  0.143363  0  3.942889  0  0  0.07011  0.127888  0  3.917757  0
C  C41  1  0.45752608  0.16959073  0.23715050  1  0  0.160878  0  3.668212  0  0  0.134059  0  3.927876  0  0  0.143389  0  3.942862  0  0  0.070111  0.127919  0  3.917728  0
C  C42  1  0.51291988  0.91929928  0.84281565  1  0  -0.10971  0  3.702791  0  0  -0.122384  0  3.950089  0  0  -0.129859  0  3.971507  0  0  -0.071089  -0.117679  0  3.936051  0
C  C43  1  0.48708154  0.08069935  0.15718748  1  0  -0.109777  0  3.702731  0  0  -0.122483  0  3.950051  0  0  -0.129956  0  3.971464  0  0  -0.071142  -0.117779  0  3.936014  0
C  C44  1  0.63381613  0.99739753  0.85284302  1  0  -0.004622  0  3.718534  0  0  -0.02107  0  3.96411  0  0  -0.017265  0  3.982534  0  0  -0.061211  -0.023466  0  3.95199  0
C  C45  1  0.36618391  0.00260319  0.14715825  1  0  -0.004547  0  3.718555  0  0  -0.020971  0  3.964118  0  0  -0.01716  0  3.982538  0  0  -0.061168  -0.023366  0  3.951997  0
C  C46  1  0.78111900  0.97958624  0.78587044  1  0  -0.130396  0  3.671649  0  0  -0.14723  0  3.911813  0  0  -0.154497  0  3.931679  0  0  -0.066946  -0.142736  0  3.898808  0
C  C47  1  0.21888115  0.02041346  0.21412929  1  0  -0.130422  0  3.671667  0  0  -0.147273  0  3.911815  0  0  -0.15454  0  3.931682  0  0  -0.066954  -0.14278  0  3.898813  0
C  C48  1  0.80269755  0.88747170  0.70769335  1  0  0.19506  0  3.752927  0  0  0.195224  0  3.995692  0  0  0.203031  0  4.015362  0  0  0.137124  0.190185  0  3.982087  0
C  C49  1  0.19730269  0.11252697  0.29230653  1  0  0.195048  0  3.75297  0  0  0.195237  0  3.995687  0  0  0.203044  0  4.015355  0  0  0.137109  0.190199  0  3.982087  0
C  C50  1  0.95543765  0.86449160  0.63409984  1  0  0.186504  0  3.755068  0  0  0.189102  0  3.998178  0  0  0.197161  0  4.018212  0  0  0.131537  0.183638  0  3.984491  0
C  C51  1  0.04456377  0.13550707  0.36589991  1  0  0.186463  0  3.755277  0  0  0.189069  0  3.998359  0  0  0.197127  0  4.018393  0  0  0.131576  0.183606  0  3.984671  0
C  C52  1  0.09666815  0.90727632  0.65485608  1  0  -0.119813  0  3.654654  0  0  -0.139469  0  3.900619  0  0  -0.146194  0  3.919186  0  0  -0.063325  -0.135134  0  3.888276  0
C  C53  1  0.90333327  0.09272234  0.34514366  1  0  -0.119907  0  3.654734  0  0  -0.139539  0  3.900698  0  0  -0.146267  0  3.919263  0  0  -0.063378  -0.135204  0  3.888357  0
C  C54  1  0.23634307  0.88392442  0.58093221  1  0  0.011689  0  3.687238  0  0  -0.011731  0  3.944156  0  0  -0.006376  0  3.959771  0  0  -0.051686  -0.014944  0  3.933496  0
C  C55  1  0.76365726  0.11607322  0.41906698  1  0  0.011785  0  3.687146  0  0  -0.011664  0  3.94408  0  0  -0.006308  0  3.959693  0  0  -0.05166  -0.014881  0  3.933426  0
C  C56  1  0.23264609  0.81656292  0.48882616  1  0  -0.103996  0  3.700003  0  0  -0.117356  0  3.949475  0  0  -0.124342  0  3.968945  0  0  -0.070283  -0.11317  0  3.936943  0
C  C57  1  0.76735424  0.18343473  0.51117303  1  0  -0.104084  0  3.699981  0  0  -0.117432  0  3.94945  0  0  -0.12442  0  3.968924  0  0  -0.070319  -0.113248  0  3.93692  0
C  C58  1  0.08961907  0.77396730  0.47449050  1  0  0.138741  0  3.703464  0  0  0.113456  0  3.966459  0  0  0.122486  0  3.982139  0  0  0.057617  0.107343  0  3.95599  0
C  C59  1  0.91038117  0.22603138  0.52550854  1  0  0.138846  0  3.703451  0  0  0.113588  0  3.966413  0  0  0.122614  0  3.982096  0  0  0.057689  0.107476  0  3.95594  0
N  N60  1  0.68241618  0.81668222  0.69444234  1  0  -0.387375  0  3.199465  0  0  -0.359723  0  3.483249  0  0  -0.38208  0  3.50548  0  0  -0.347834  -0.343899  0  3.467345  0
N  N61  1  0.31758278  0.18331748  0.30555752  1  0  -0.387343  0  3.199519  0  0  -0.359716  0  3.48328  0  0  -0.382062  0  3.505508  0  0  -0.34783  -0.343892  0  3.467379  0
N  N62  1  0.95327119  0.79821478  0.54447855  1  0  -0.431226  0  3.265733  0  0  -0.40556  0  3.558085  0  0  -0.430081  0  3.584351  0  0  -0.37438  -0.38844  0  3.539699  0
N  N63  1  0.04672915  0.20178284  0.45552234  1  0  -0.431179  0  3.265743  0  0  -0.405556  0  3.558119  0  0  -0.430063  0  3.584379  0  0  -0.374411  -0.388434  0  3.539733  0
O  O64  1  0.21225384  0.42886926  0.14530204  1  0  -0.687669  0  1.545018  0  0  -0.707086  0  1.827573  0  0  -0.726895  0  1.816043  0  0  -0.752678  -0.695384  0  1.836507  0
O  O65  1  0.78774621  0.57113148  0.85469753  1  0  -0.687663  0  1.545005  0  0  -0.7071  0  1.827558  0  0  -0.72691  0  1.816022  0  0  -0.752691  -0.695403  0  1.836484  0
O  O66  1  0.16979936  0.74048541  0.92707612  1  0  -0.734149  0  1.496399  0  0  -0.744967  0  1.766202  0  0  -0.765177  0  1.751309  0  0  -0.767989  -0.73277  0  1.77745  0
O  O67  1  0.83020078  0.25951429  0.07292445  1  0  -0.734172  0  1.496423  0  0  -0.744997  0  1.766218  0  0  -0.765211  0  1.751322  0  0  -0.767997  -0.732806  0  1.777459  0
O  O68  1  0.81739267  0.53384326  0.56441674  1  0  -0.675038  0  1.563008  0  0  -0.68465  0  1.855801  0  0  -0.706155  0  1.843375  0  0  -0.748506  -0.671582  0  1.865141  0
O  O69  1  0.18260491  0.46615854  0.43558126  1  0  -0.675021  0  1.563023  0  0  -0.684614  0  1.855766  0  0  -0.706107  0  1.843365  0  0  -0.7485  -0.671548  0  1.865109  0
O  O70  1  0.59415545  0.85436911  0.46054399  1  0  -0.68124  0  1.612746  0  0  -0.686122  0  1.913341  0  0  -0.708855  0  1.901575  0  0  -0.751252  -0.672034  0  1.922436  0
O  O71  1  0.40584086  0.14563369  0.53945738  1  0  -0.681225  0  1.612821  0  0  -0.686091  0  1.91337  0  0  -0.708813  0  1.901631  0  0  -0.751223  -0.672002  0  1.922467  0
O  O72  1  0.05166966  0.71103730  0.18138602  1  0  -0.603568  0  1.996953  0  0  -0.585619  0  2.2398  0  0  -0.616733  0  2.231019  0  0  -0.338714  -0.562886  0  2.244826  0
O  O73  1  0.94833058  0.28896137  0.81861387  1  0  -0.603581  0  1.996904  0  0  -0.585644  0  2.239734  0  0  -0.61676  0  2.230953  0  0  -0.338736  -0.562914  0  2.244759  0
O  O74  1  0.85436910  0.73024283  0.32711249  1  0  -0.649545  0  2.107973  0  0  -0.634493  0  2.38068  0  0  -0.671301  0  2.375226  0  0  -0.369573  -0.607036  0  2.382902  0
O  O75  1  0.14563084  0.26975894  0.67288693  1  0  -0.649534  0  2.107951  0  0  -0.634506  0  2.380637  0  0  -0.671302  0  2.375188  0  0  -0.369619  -0.607048  0  2.382859  0
O  O76  1  0.58013737  0.58302878  0.40293059  1  0  -0.660003  0  2.094258  0  0  -0.648046  0  2.372198  0  0  -0.684869  0  2.366853  0  0  -0.369865  -0.62091  0  2.374483  0
O  O77  1  0.41986002  0.41697508  0.59706795  1  0  -0.660026  0  2.094178  0  0  -0.648073  0  2.371977  0  0  -0.68488  0  2.366631  0  0  -0.369945  -0.620941  0  2.374266  0
O  O78  1  0.52431054  0.38499428  0.36140903  1  0  -0.6382  0  2.06409  0  0  -0.617261  0  2.331338  0  0  -0.652566  0  2.325499  0  0  -0.349437  -0.591242  0  2.334146  0
O  O79  1  0.47568686  0.61500952  0.63859459  1  0  -0.638191  0  2.064086  0  0  -0.617269  0  2.331202  0  0  -0.652596  0  2.325387  0  0  -0.349418  -0.591276  0  2.334067  0
O  O80  1  0.40872065  0.67269325  0.09824336  1  0  -0.645204  0  1.960769  0  0  -0.631432  0  2.214971  0  0  -0.663915  0  2.206296  0  0  -0.336953  -0.607509  0  2.219687  0
O  O81  1  0.59127949  0.32730645  0.90175722  1  0  -0.645218  0  1.960721  0  0  -0.631443  0  2.21494  0  0  -0.663928  0  2.206265  0  0  -0.336954  -0.607524  0  2.219653  0
O  O82  1  0.59553919  0.49603132  0.08486468  1  0  -0.655771  0  2.094427  0  0  -0.640654  0  2.369966  0  0  -0.677493  0  2.365267  0  0  -0.363311  -0.613891  0  2.372037  0
O  O83  1  0.40446095  0.50396838  0.91513589  1  0  -0.655807  0  2.094423  0  0  -0.640693  0  2.369998  0  0  -0.677531  0  2.365299  0  0  -0.363347  -0.613925  0  2.37207  0
O  O84  1  0.90735197  0.55869499  0.08245273  1  0  -0.790692  0  2.077422  0  0  -0.808552  0  2.38947  0  0  -0.850018  0  2.39525  0  0  -0.480945  -0.776241  0  2.382463  0
O  O85  1  0.09264699  0.44130471  0.91754798  1  0  -0.790705  0  2.077431  0  0  -0.80855  0  2.389519  0  0  -0.850005  0  2.395271  0  0  -0.480947  -0.776251  0  2.382538  0
