# generated using pymatgen
data_Zn3H18C16(NO)12
_symmetry_space_group_name_H-M   'P 1'
_cell_length_a   4.82017647
_cell_length_b   17.61661250
_cell_length_c   17.10799360
_cell_angle_alpha   88.84127350
_cell_angle_beta   98.09324124
_cell_angle_gamma   90.01092211
_symmetry_Int_Tables_number   1
_chemical_formula_structural   Zn3H18C16(NO)12
_chemical_formula_sum   'Zn6 H36 C32 N24 O24'
_cell_volume   1437.96030681
_cell_formula_units_Z   2
loop_
 _symmetry_equiv_pos_site_id
 _symmetry_equiv_pos_as_xyz
  1  'x, y, z'
loop_
 _atom_site_type_symbol
 _atom_site_label
 _atom_site_symmetry_multiplicity
 _atom_site_fract_x
 _atom_site_fract_y
 _atom_site_fract_z
 _atom_site_occupancy
 _atom_site_pbe_bader_charge
 _atom_site_pbe_bader_spin_density
 _atom_site_pbe_cm5_charge
 _atom_site_pbe_ddec_charge
 _atom_site_pbe_ddec_spin_density
 _atom_site_pbe_ddec_sum_bond_order
 _atom_site_pbe_magmom
Zn  Zn0  1  0.19641423  0.86689299  0.19989154  1  1.299245  0  0.700413  0.896738  0  2.337627  0
Zn  Zn1  1  0.99767772  0.63316802  0.80029356  1  1.300199  0  0.700727  0.89702  0  2.337921  0
Zn  Zn2  1  0.80356723  0.13310703  0.80011024  1  1.299216  0  0.700429  0.896756  0  2.337499  0
Zn  Zn3  1  0.00233826  0.36682968  0.19970928  1  1.30045  0  0.700695  0.896953  0  2.337935  0
Zn  Zn4  1  0.76462322  0.75012095  0.00009583  1  1.335273  0  0.686125  0.993353  0  2.121505  0
Zn  Zn5  1  0.23536691  0.24988966  0.99991074  1  1.335129  0  0.686137  0.993407  0  2.12151  0
H  H6  1  0.73272702  0.14531546  0.50065094  1  0.450213  0  0.308817  0.306835  0  0.936023  0
H  H7  1  0.23245213  0.35485353  0.49939911  1  0.444548  0  0.308865  0.307086  0  0.935704  0
H  H8  1  0.26725590  0.85467523  0.49935663  1  0.44999  0  0.308782  0.306869  0  0.935919  0
H  H9  1  0.76757431  0.64514813  0.50059068  1  0.444937  0  0.308924  0.307219  0  0.935695  0
H  H10  1  0.52514986  0.06534774  0.51868642  1  0.506816  0  0.285115  0.28654  0  1.041925  0
H  H11  1  0.00646770  0.43470272  0.48132383  1  0.514952  0  0.285531  0.287816  0  1.040822  0
H  H12  1  0.47483034  0.93464156  0.48131392  1  0.507005  0  0.28518  0.286607  0  1.041824  0
H  H13  1  0.99355384  0.56530172  0.51866743  1  0.515058  0  0.285507  0.287785  0  1.040921  0
H  H14  1  0.42761840  0.17684125  0.34865230  1  0.091453  0  0.116572  0.121395  0  0.990065  0
H  H15  1  0.07893660  0.32340033  0.65134793  1  0.086643  0  0.117021  0.121498  0  0.990371  0
H  H16  1  0.57236814  0.82315192  0.65135033  1  0.091468  0  0.11663  0.12146  0  0.989925  0
H  H17  1  0.92106567  0.67659590  0.34864932  1  0.086672  0  0.117015  0.121535  0  0.990277  0
H  H18  1  0.52269313  0.16440706  0.25300107  1  0.145408  0  0.125136  0.144619  0  0.982446  0
H  H19  1  0.26940883  0.33581709  0.74702170  1  0.152579  0  0.124993  0.144635  0  0.984098  0
H  H20  1  0.47730652  0.83558533  0.74700651  1  0.145295  0  0.125126  0.144672  0  0.982381  0
H  H21  1  0.73060827  0.66418159  0.25297140  1  0.152379  0  0.125001  0.144712  0  0.983985  0
H  H22  1  0.44388935  0.02777553  0.19936869  1  0.158218  0  0.151417  0.128473  0  0.958331  0
H  H23  1  0.24432983  0.47243534  0.80068993  1  0.174874  0  0.150281  0.127075  0  0.95898  0
H  H24  1  0.55609153  0.97222282  0.80063246  1  0.158413  0  0.1514  0.128518  0  0.958215  0
H  H25  1  0.75566560  0.52756055  0.19931546  1  0.174836  0  0.150265  0.127083  0  0.959012  0
H  H26  1  0.86744806  0.83298369  0.32546256  1  0.537152  0  0.297277  0.316262  0  1.0045  0
H  H27  1  0.54207867  0.66721559  0.67459207  1  0.527916  0  0.2976  0.316974  0  1.00313  0
H  H28  1  0.13253716  0.16701304  0.67453657  1  0.537172  0  0.297235  0.316149  0  1.004646  0
H  H29  1  0.45794424  0.33278047  0.32540926  1  0.527899  0  0.297622  0.317034  0  1.003074  0
H  H30  1  0.62455332  0.84583867  0.39151424  1  0.454979  0  0.320601  0.32171  0  0.919702  0
H  H31  1  0.23254720  0.65434161  0.60874605  1  0.464653  0  0.320838  0.32116  0  0.91978  0
H  H32  1  0.37542559  0.15415531  0.60848262  1  0.454976  0  0.32054  0.321605  0  0.919707  0
H  H33  1  0.76746488  0.34565694  0.39126364  1  0.464501  0  0.320821  0.321197  0  0.919658  0
H  H34  1  0.18726189  0.66959963  0.01115204  1  0.656658  0  0.300092  0.40785  0  0.913982  0
H  H35  1  0.17682617  0.83039364  0.98898611  1  0.65804  0  0.300222  0.407659  0  0.914445  0
H  H36  1  0.81272551  0.33040901  0.98884730  1  0.656676  0  0.300063  0.407844  0  0.914033  0
H  H37  1  0.82316034  0.16961551  0.01101450  1  0.657939  0  0.300181  0.407563  0  0.914587  0
H  H38  1  0.15467964  0.68377114  0.10215992  1  0.656692  0  0.296391  0.401875  0  0.924986  0
H  H39  1  0.05294002  0.81613200  0.89798667  1  0.657822  0  0.297074  0.403111  0  0.923233  0
H  H40  1  0.84532243  0.31623580  0.89783943  1  0.656792  0  0.296402  0.401935  0  0.924934  0
H  H41  1  0.94703726  0.18387435  0.10201299  1  0.657832  0  0.297163  0.403288  0  0.922999  0
C  C42  1  0.01453301  0.98075736  0.32115839  1  0.442331  0  0.065392  -0.070565  0  4.030642  0
C  C43  1  0.69395324  0.51954029  0.67871962  1  0.45186  0  0.064199  -0.074143  0  4.030335  0
C  C44  1  0.98544415  0.01923935  0.67884104  1  0.441665  0  0.065382  -0.070524  0  4.030493  0
C  C45  1  0.30606793  0.48046124  0.32127341  1  0.451693  0  0.064276  -0.073916  0  4.030251  0
C  C46  1  0.82982151  0.94241780  0.36631480  1  1.081313  0  0.238178  0.420912  0  4.167267  0
C  C47  1  0.46378590  0.55784459  0.63361324  1  1.05294  0  0.239344  0.422481  0  4.167547  0
C  C48  1  0.17016261  0.05757954  0.63368317  1  1.081879  0  0.238106  0.420697  0  4.167677  0
C  C49  1  0.53624042  0.44215633  0.36638078  1  1.052848  0  0.23929  0.422317  0  4.167429  0
C  C50  1  0.77964796  0.05743820  0.43019849  1  1.598395  0  0.3325  0.581624  0  4.134374  0
C  C51  1  0.34981654  0.44281030  0.56971006  1  1.562281  0  0.332249  0.581721  0  4.133582  0
C  C52  1  0.22031538  0.94255687  0.56979960  1  1.598877  0  0.332447  0.581484  0  4.134594  0
C  C53  1  0.65021788  0.55719233  0.43028371  1  1.585297  0  0.332316  0.581621  0  4.134016  0
C  C54  1  0.11634156  0.21500853  0.25216395  1  1.604962  0  0.219006  0.627019  0  4.154033  0
C  C55  1  0.86385083  0.28513276  0.74775820  1  1.593195  0  0.218805  0.628195  0  4.150565  0
C  C56  1  0.88367414  0.78498474  0.74783637  1  1.604415  0  0.218838  0.626837  0  4.153722  0
C  C57  1  0.13616210  0.71487236  0.25224373  1  1.593631  0  0.218801  0.628206  0  4.150863  0
C  C58  1  0.34842647  0.16032096  0.28816614  1  0.295508  0  -0.052253  -0.212967  0  3.862807  0
C  C59  1  0.06004363  0.33990241  0.71181552  1  0.285887  0  -0.052151  -0.213923  0  3.864573  0
C  C60  1  0.65156927  0.83967274  0.71183737  1  0.295562  0  -0.052311  -0.213016  0  3.862481  0
C  C61  1  0.93997863  0.66009567  0.28817859  1  0.285733  0  -0.052211  -0.214161  0  3.864604  0
C  C62  1  0.30438305  0.02380711  0.24384143  1  1.003741  0  0.162473  0.125707  0  3.890535  0
C  C63  1  0.06055816  0.47640292  0.75617386  1  0.994146  0  0.163018  0.12607  0  3.890675  0
C  C64  1  0.69560040  0.97619065  0.75616022  1  1.003728  0  0.162593  0.125907  0  3.890407  0
C  C65  1  0.93944872  0.52359386  0.24382384  1  0.994209  0  0.163034  0.126138  0  3.890716  0
C  C66  1  0.06619129  0.05714805  0.33941344  1  0.939604  0  0.217612  0.263075  0  4.134667  0
C  C67  1  0.72714586  0.44314331  0.66047121  1  0.942661  0  0.218482  0.264649  0  4.136065  0
C  C68  1  0.93378844  0.94284808  0.66058649  1  0.939907  0  0.217624  0.263207  0  4.135105  0
C  C69  1  0.27288608  0.55685896  0.33951778  1  0.942872  0  0.218262  0.264383  0  4.136552  0
C  C70  1  0.65495489  0.84420576  0.11144833  1  2.174401  0  0.267361  0.837744  0  4.255556  0
C  C71  1  0.54457334  0.65586911  0.88868075  1  2.186805  0  0.268157  0.840223  0  4.251984  0
C  C72  1  0.34502655  0.15580089  0.88855787  1  2.175159  0  0.267482  0.837978  0  4.255282  0
C  C73  1  0.45545024  0.34413544  0.11132136  1  2.1869  0  0.268249  0.840705  0  4.252073  0
N  N74  1  0.95881060  0.09844145  0.39219798  1  -1.221962  0  -0.369554  -0.519054  0  3.262528  0
N  N75  1  0.56706143  0.40183362  0.60767362  1  -1.200606  0  -0.368216  -0.517896  0  3.262659  0
N  N76  1  0.04116825  0.90155575  0.60780322  1  -1.222813  0  -0.369456  -0.51895  0  3.262751  0
N  N77  1  0.43297912  0.59816694  0.39231560  1  -1.223681  0  -0.36824  -0.517788  0  3.263012  0
N  N78  1  0.65048111  0.09441677  0.48364970  1  -1.321032  0  -0.582065  -0.650989  0  3.350132  0
N  N79  1  0.16723728  0.40577863  0.51630358  1  -1.297236  0  -0.582498  -0.6532  0  3.349712  0
N  N80  1  0.34949768  0.90557647  0.51635140  1  -1.321081  0  -0.582073  -0.651031  0  3.350046  0
N  N81  1  0.83279434  0.59422469  0.48368727  1  -1.298056  0  -0.58248  -0.653219  0  3.349915  0
N  N82  1  0.16636862  0.96153778  0.26078551  1  -1.221965  0  -0.353784  -0.319773  0  3.589625  0
N  N83  1  0.90599314  0.53871668  0.73920839  1  -1.226985  0  -0.353189  -0.318075  0  3.588626  0
N  N84  1  0.83360476  0.03846109  0.73921655  1  -1.221678  0  -0.353919  -0.31993  0  3.589529  0
N  N85  1  0.09402241  0.46128293  0.26078965  1  -1.226979  0  -0.353218  -0.318104  0  3.588614  0
N  N86  1  0.25201300  0.08273790  0.29014889  1  -1.233664  0  -0.233979  -0.015324  0  3.74193  0
N  N87  1  0.96192315  0.41750396  0.70982070  1  -1.230534  0  -0.235746  -0.01571  0  3.742377  0
N  N88  1  0.74797022  0.91725996  0.70985034  1  -1.233599  0  -0.234002  -0.015635  0  3.741915  0
N  N89  1  0.03809831  0.58249424  0.29017041  1  -1.230073  0  -0.235559  -0.015637  0  3.742856  0
N  N90  1  0.71237465  0.98305858  0.41906475  1  -1.231254  0  -0.339149  -0.496937  0  3.245201  0
N  N91  1  0.29355231  0.51717797  0.58088240  1  -1.218978  0  -0.339934  -0.496799  0  3.245657  0
N  N92  1  0.28760472  0.01693577  0.58093697  1  -1.231422  0  -0.339125  -0.496897  0  3.245328  0
N  N93  1  0.70646485  0.48282582  0.41911083  1  -1.218977  0  -0.340005  -0.496806  0  3.245862  0
N  N94  1  0.76768466  0.86808923  0.35975724  1  -1.313797  0  -0.570147  -0.609794  0  3.350852  0
N  N95  1  0.40804423  0.63215557  0.64021921  1  -1.315002  0  -0.571057  -0.61019  0  3.350621  0
N  N96  1  0.23229741  0.13190640  0.64024077  1  -1.313729  0  -0.570006  -0.609453  0  3.35113  0
N  N97  1  0.59198017  0.36784336  0.35978152  1  -1.314647  0  -0.57103  -0.610231  0  3.350346  0
O  O98  1  0.92323489  0.83626476  0.11120234  1  -1.197863  0  -0.345522  -0.633401  0  2.373003  0
O  O99  1  0.81313886  0.66375228  0.88899786  1  -1.195596  0  -0.345588  -0.634414  0  2.373524  0
O  O100  1  0.07674451  0.16373962  0.88880388  1  -1.197464  0  -0.345522  -0.633459  0  2.372675  0
O  O101  1  0.18689066  0.33624321  0.11100380  1  -1.195352  0  -0.345622  -0.634575  0  2.373552  0
O  O102  1  0.15232959  0.28385250  0.27637699  1  -1.194047  0  -0.327594  -0.578923  0  2.350107  0
O  O103  1  0.87603051  0.21628630  0.72355304  1  -1.194159  0  -0.32724  -0.579365  0  2.34792  0
O  O104  1  0.84769949  0.71614432  0.72361986  1  -1.193533  0  -0.32753  -0.57887  0  2.350098  0
O  O105  1  0.12395410  0.78371424  0.27644985  1  -1.194374  0  -0.327146  -0.579277  0  2.348123  0
O  O106  1  0.91945394  0.19308358  0.20242696  1  -1.194299  0  -0.313974  -0.555298  0  2.170292  0
O  O107  1  0.71635232  0.30700668  0.79743769  1  -1.188039  0  -0.314788  -0.555932  0  2.168327  0
O  O108  1  0.08054562  0.80691912  0.79757846  1  -1.194355  0  -0.313904  -0.555173  0  2.169973  0
O  O109  1  0.28366789  0.69300635  0.20256537  1  -1.188124  0  -0.314812  -0.55591  0  2.168458  0
O  O110  1  0.49336727  0.81115623  0.05497731  1  -1.184503  0  -0.33587  -0.634862  0  2.271837  0
O  O111  1  0.43921699  0.68897583  0.94508659  1  -1.190715  0  -0.336927  -0.636728  0  2.269523  0
O  O112  1  0.50660081  0.18884857  0.94503238  1  -1.184635  0  -0.336078  -0.634996  0  2.271847  0
O  O113  1  0.56080068  0.31103230  0.05491159  1  -1.190818  0  -0.336946  -0.636941  0  2.269589  0
O  O114  1  0.56299681  0.88214272  0.16605138  1  -1.199134  0  -0.350979  -0.632869  0  2.323198  0
O  O115  1  0.39802204  0.61790328  0.83407753  1  -1.206961  0  -0.350939  -0.633208  0  2.321445  0
O  O116  1  0.43699693  0.11786101  0.83395671  1  -1.200217  0  -0.350938  -0.632936  0  2.323227  0
O  O117  1  0.60200282  0.38209544  0.16592803  1  -1.207369  0  -0.350959  -0.633347  0  2.321722  0
O  O118  1  0.05045524  0.67218585  0.04950692  1  -1.252764  0  -0.571992  -0.753981  0  2.100391  0
O  O119  1  0.00156446  0.82784792  0.95063769  1  -1.253337  0  -0.57272  -0.754767  0  2.100431  0
O  O120  1  0.94953988  0.32782103  0.95049390  1  -1.252703  0  -0.571981  -0.754059  0  2.100324  0
O  O121  1  0.99841161  0.17216000  0.04936510  1  -1.253274  0  -0.572774  -0.75485  0  2.100325  0
