# generated using pymatgen
data_AgH12C16(NO)2
_symmetry_space_group_name_H-M   'P 1'
_cell_length_a   7.01219791
_cell_length_b   9.87435173
_cell_length_c   19.04550000
_cell_angle_alpha   90.00000000
_cell_angle_beta   90.00000000
_cell_angle_gamma   106.22950437
_symmetry_Int_Tables_number   1
_chemical_formula_structural   AgH12C16(NO)2
_chemical_formula_sum   'Ag4 H48 C64 N8 O8'
_cell_volume   1266.17628145
_cell_formula_units_Z   4
loop_
 _symmetry_equiv_pos_site_id
 _symmetry_equiv_pos_as_xyz
  1  'x, y, z'
loop_
 _atom_site_type_symbol
 _atom_site_label
 _atom_site_symmetry_multiplicity
 _atom_site_fract_x
 _atom_site_fract_y
 _atom_site_fract_z
 _atom_site_occupancy
 _atom_site_hle17_bader_spin_density
 _atom_site_hle17_ddec_charge
 _atom_site_hle17_ddec_spin_density
 _atom_site_hle17_ddec_sum_bond_order
 _atom_site_hle17_magmom
 _atom_site_hse06_10hf_bader_spin_density
 _atom_site_hse06_10hf_ddec_charge
 _atom_site_hse06_10hf_ddec_spin_density
 _atom_site_hse06_10hf_ddec_sum_bond_order
 _atom_site_hse06_10hf_magmom
 _atom_site_hse06_bader_spin_density
 _atom_site_hse06_ddec_charge
 _atom_site_hse06_ddec_spin_density
 _atom_site_hse06_ddec_sum_bond_order
 _atom_site_hse06_magmom
 _atom_site_pbe_bader_charge
 _atom_site_pbe_bader_spin_density
 _atom_site_pbe_cm5_charge
 _atom_site_pbe_ddec_charge
 _atom_site_pbe_ddec_spin_density
 _atom_site_pbe_ddec_sum_bond_order
 _atom_site_pbe_magmom
Ag  Ag0  1  0.51724061  0.66775287  0.27911633  1  0  0.50235  0  1.448289  0  0  0.364588  0  1.878627  0  0  0.392447  0  1.838835  0  0.568642  0  0.46349  0.346962  0  1.905189  0
Ag  Ag1  1  0.48275875  0.83224537  0.77911633  1  0  0.502341  0  1.448278  0  0  0.364585  0  1.878612  0  0  0.392445  0  1.838821  0  0.568629  0  0.46351  0.346958  0  1.905176  0
Ag  Ag2  1  0.48276044  0.33224947  0.72088420  1  0  0.502315  0  1.448242  0  0  0.364585  0  1.878561  0  0  0.392443  0  1.838772  0  0.568641  0  0.463496  0.346957  0  1.905125  0
Ag  Ag3  1  0.51724207  0.16775275  0.22088472  1  0  0.502341  0  1.448283  0  0  0.364594  0  1.878595  0  0  0.392453  0  1.838805  0  0.568633  0  0.463508  0.346969  0  1.905154  0
H  H4  1  0.31339287  0.42504488  0.19240923  1  0  0.081139  0  0.956199  0  0  0.087505  0  1.027875  0  0  0.090324  0  1.024288  0  0.119884  0  0.113489  0.085412  0  1.03042  0
H  H5  1  0.68659813  0.07494259  0.69241291  1  0  0.081132  0  0.956322  0  0  0.087487  0  1.027987  0  0  0.090304  0  1.024406  0  0.119825  0  0.11347  0.085395  0  1.030531  0
H  H6  1  0.68660598  0.57496275  0.80759182  1  0  0.081109  0  0.95623  0  0  0.087468  0  1.027912  0  0  0.090286  0  1.024328  0  0.119902  0  0.11347  0.085376  0  1.030456  0
H  H7  1  0.31339349  0.92505027  0.30759024  1  0  0.081062  0  0.956312  0  0  0.087455  0  1.02795  0  0  0.090272  0  1.024369  0  0.119852  0  0.11345  0.085363  0  1.030495  0
H  H8  1  0.10176086  0.17831298  0.19781523  1  0  0.1037  0  0.959158  0  0  0.115319  0  1.016922  0  0  0.11773  0  1.016334  0  0.110272  0  0.107452  0.113768  0  1.017273  0
H  H9  1  0.89823401  0.32167343  0.69781103  1  0  0.103722  0  0.959036  0  0  0.115381  0  1.016774  0  0  0.117789  0  1.016194  0  0.110284  0  0.107481  0.113829  0  1.017129  0
H  H10  1  0.89824959  0.82169148  0.80218424  1  0  0.103705  0  0.959097  0  0  0.115363  0  1.016835  0  0  0.117774  0  1.016249  0  0.110463  0  0.107451  0.113813  0  1.017187  0
H  H11  1  0.10174275  0.67832154  0.30218477  1  0  0.103796  0  0.959112  0  0  0.11547  0  1.016788  0  0  0.117883  0  1.0162  0  0.110343  0  0.107479  0.11392  0  1.017138  0
H  H12  1  0.97486943  0.07471265  0.31618440  1  0  0.098946  0  0.958434  0  0  0.109009  0  1.020287  0  0  0.111174  0  1.019364  0  0.120427  0  0.106539  0.107443  0  1.020832  0
H  H13  1  0.02512157  0.42527481  0.81618125  1  0  0.098934  0  0.958349  0  0  0.109017  0  1.020212  0  0  0.111184  0  1.019287  0  0.120537  0  0.106532  0.107443  0  1.020755  0
H  H14  1  0.02513668  0.92528442  0.68381350  1  0  0.098916  0  0.958382  0  0  0.108994  0  1.020239  0  0  0.111159  0  1.019318  0  0.120419  0  0.106535  0.107429  0  1.020785  0
H  H15  1  0.97485929  0.57472332  0.18381402  1  0  0.098904  0  0.958247  0  0  0.10897  0  1.02014  0  0  0.111137  0  1.019215  0  0.120536  0  0.106502  0.107403  0  1.020688  0
H  H16  1  0.05286166  0.22820509  0.42097031  1  0  0.10019  0  0.979957  0  0  0.110302  0  1.042379  0  0  0.111916  0  1.044436  0  0.106989  0  0.103724  0.108758  0  1.041732  0
H  H17  1  0.94713224  0.27178975  0.92096978  1  0  0.100127  0  0.979839  0  0  0.110249  0  1.042242  0  0  0.111867  0  1.044291  0  0.10708  0  0.103693  0.108657  0  1.041651  0
H  H18  1  0.94713405  0.77179093  0.57902864  1  0  0.100156  0  0.979904  0  0  0.110278  0  1.042323  0  0  0.111892  0  1.044378  0  0.106984  0  0.103715  0.108718  0  1.041697  0
H  H19  1  0.05287166  0.72821259  0.07902707  1  0  0.100144  0  0.97989  0  0  0.110255  0  1.042321  0  0  0.111868  0  1.044375  0  0.106946  0  0.103704  0.108692  0  1.041699  0
H  H20  1  0.35971964  0.61541162  0.40942637  1  0  0.102434  0  0.977743  0  0  0.109615  0  1.049224  0  0  0.113976  0  1.044964  0  0.1098  0  0.099726  0.106332  0  1.052449  0
H  H21  1  0.64027199  0.88458874  0.90943110  1  0  0.102466  0  0.977663  0  0  0.109662  0  1.049146  0  0  0.114025  0  1.044878  0  0.109785  0  0.099734  0.10638  0  1.052378  0
H  H22  1  0.64027892  0.38458440  0.59057363  1  0  0.102448  0  0.977739  0  0  0.109625  0  1.049228  0  0  0.113987  0  1.044967  0  0.109796  0  0.099715  0.106345  0  1.052447  0
H  H23  1  0.35971932  0.11541783  0.09057205  1  0  0.102433  0  0.977721  0  0  0.109615  0  1.049209  0  0  0.113979  0  1.044946  0  0.109756  0  0.099712  0.106333  0  1.052424  0
H  H24  1  0.14710990  0.36107176  0.50243785  1  0  0.088254  0  0.960587  0  0  0.100452  0  1.0219  0  0  0.10256  0  1.021888  0  0.081434  0  0.101399  0.098928  0  1.021905  0
H  H25  1  0.85289054  0.13892519  0.00243837  1  0  0.088251  0  0.960703  0  0  0.100448  0  1.021989  0  0  0.102549  0  1.021996  0  0.081408  0  0.101385  0.098927  0  1.021989  0
H  H26  1  0.85287832  0.63893059  0.49756110  1  0  0.088206  0  0.960638  0  0  0.100417  0  1.021923  0  0  0.102511  0  1.021947  0  0.081069  0  0.101387  0.098902  0  1.021916  0
H  H27  1  0.14712151  0.86107610  0.99756163  1  0  0.088301  0  0.960683  0  0  0.100481  0  1.02199  0  0  0.102578  0  1.022008  0  0.08108  0  0.101394  0.098935  0  1.022019  0
H  H28  1  0.42583420  0.76010950  0.49935208  1  0  0.119493  0  0.990337  0  0  0.129189  0  1.049282  0  0  0.132324  0  1.048801  0  0.152714  0  0.105632  0.12684  0  1.049812  0
H  H29  1  0.57417413  0.73988981  0.99935470  1  0  0.119437  0  0.990401  0  0  0.129116  0  1.049352  0  0  0.132255  0  1.048868  0  0.15273  0  0.10564  0.126765  0  1.049881  0
H  H30  1  0.57415949  0.23988863  0.50064845  1  0  0.11938  0  0.990352  0  0  0.12912  0  1.049252  0  0  0.132268  0  1.048754  0  0.152708  0  0.105591  0.126771  0  1.049779  0
H  H31  1  0.42583774  0.26011465  0.00064897  1  0  0.119367  0  0.990362  0  0  0.129095  0  1.04928  0  0  0.132244  0  1.048779  0  0.152699  0  0.105608  0.126744  0  1.049808  0
H  H32  1  0.49887814  0.89395498  0.61034838  1  0  0.078434  0  0.962492  0  0  0.086054  0  1.030569  0  0  0.08787  0  1.029277  0  0.138146  0  0.110445  0.084362  0  1.032004  0
H  H33  1  0.50112531  0.60604643  0.11035258  1  0  0.078361  0  0.962422  0  0  0.085972  0  1.030562  0  0  0.087789  0  1.02927  0  0.138167  0  0.110434  0.084279  0  1.032  0
H  H34  1  0.50112452  0.10604420  0.38965162  1  0  0.078447  0  0.962476  0  0  0.086053  0  1.030587  0  0  0.087868  0  1.029296  0  0.13812  0  0.110449  0.08436  0  1.032022  0
H  H35  1  0.49886861  0.39395592  0.88965057  1  0  0.078426  0  0.962502  0  0  0.086038  0  1.030603  0  0  0.087853  0  1.029313  0  0.13809  0  0.110445  0.084345  0  1.032041  0
H  H36  1  0.22667247  0.54400880  0.73026804  1  0  0.075317  0  0.955545  0  0  0.082893  0  1.025497  0  0  0.085834  0  1.02186  0  0.081374  0  0.109538  0.080604  0  1.028362  0
H  H37  1  0.77332249  0.95600000  0.23027224  1  0  0.075291  0  0.955538  0  0  0.082852  0  1.025523  0  0  0.085797  0  1.021879  0  0.08129  0  0.109501  0.080559  0  1.028396  0
H  H38  1  0.77332918  0.45599144  0.26973196  1  0  0.075324  0  0.955555  0  0  0.082898  0  1.02551  0  0  0.085839  0  1.021872  0  0.081458  0  0.109538  0.080608  0  1.028376  0
H  H39  1  0.22666846  0.04401290  0.76972986  1  0  0.075339  0  0.955573  0  0  0.082906  0  1.025535  0  0  0.085851  0  1.021891  0  0.08146  0  0.1095  0.080616  0  1.0284  0
H  H40  1  0.14557289  0.39031806  0.62362868  1  0  0.108408  0  0.978124  0  0  0.116635  0  1.043177  0  0  0.120072  0  1.041757  0  0.11439  0  0.10305  0.114006  0  1.044576  0
H  H41  1  0.85442392  0.10968417  0.12362973  1  0  0.108415  0  0.978183  0  0  0.116627  0  1.043242  0  0  0.120063  0  1.041822  0  0.114352  0  0.10304  0.113999  0  1.044639  0
H  H42  1  0.85442490  0.60968323  0.37637185  1  0  0.108399  0  0.978052  0  0  0.11661  0  1.043133  0  0  0.120047  0  1.041712  0  0.114439  0  0.103026  0.113981  0  1.044529  0
H  H43  1  0.14557451  0.89032240  0.87636975  1  0  0.108311  0  0.978232  0  0  0.116556  0  1.04328  0  0  0.119994  0  1.041857  0  0.114445  0  0.103014  0.113927  0  1.044678  0
H  H44  1  0.09134439  0.86398934  0.40228453  1  0  0.098791  0  0.959827  0  0  0.111063  0  1.019659  0  0  0.114226  0  1.017959  0  0.077872  0  0.101656  0.108854  0  1.020961  0
H  H45  1  0.90865717  0.63600364  0.90228400  1  0  0.098713  0  0.959938  0  0  0.111057  0  1.019688  0  0  0.114221  0  1.017987  0  0.078104  0  0.101644  0.108847  0  1.020994  0
H  H46  1  0.90866268  0.13599930  0.59771652  1  0  0.09871  0  0.960089  0  0  0.111108  0  1.019759  0  0  0.11427  0  1.018063  0  0.078088  0  0.101652  0.108897  0  1.021066  0
H  H47  1  0.09135428  0.36399977  0.09771652  1  0  0.098691  0  0.959995  0  0  0.111034  0  1.019742  0  0  0.114198  0  1.018043  0  0.077978  0  0.101646  0.108825  0  1.021046  0
H  H48  1  0.34239367  0.97516915  0.49210417  1  0  0.099789  0  0.978464  0  0  0.107495  0  1.04659  0  0  0.111299  0  1.043324  0  0.099955  0  0.102075  0.104666  0  1.049109  0
H  H49  1  0.65761645  0.52482382  0.99210417  1  0  0.099872  0  0.978602  0  0  0.107489  0  1.046759  0  0  0.111291  0  1.043495  0  0.100115  0  0.102091  0.104664  0  1.049266  0
H  H50  1  0.65761750  0.02482265  0.50789740  1  0  0.09979  0  0.978637  0  0  0.107458  0  1.046749  0  0  0.11126  0  1.043486  0  0.100222  0  0.102072  0.10463  0  1.049262  0
H  H51  1  0.34239114  0.47518063  0.00789583  1  0  0.099844  0  0.978471  0  0  0.107454  0  1.046669  0  0  0.111256  0  1.043407  0  0.100073  0  0.102086  0.104628  0  1.049179  0
C  C52  1  0.25134984  0.37955216  0.24238009  1  0  0.115493  0  3.726293  0  0  0.082647  0  3.981088  0  0  0.08978  0  3.997575  0  0.429423  0  0.036783  0.078362  0  3.969866  0
C  C53  1  0.74864259  0.12043531  0.74237799  1  0  0.11574  0  3.726674  0  0  0.082913  0  3.981431  0  0  0.090046  0  3.997918  0  0.429015  0  0.036882  0.078624  0  3.970214  0
C  C54  1  0.74864854  0.62044703  0.75762201  1  0  0.115477  0  3.726282  0  0  0.082649  0  3.981085  0  0  0.089781  0  3.997571  0  0.429353  0  0.036725  0.078363  0  3.969863  0
C  C55  1  0.25134885  0.87956071  0.25761991  1  0  0.115745  0  3.726556  0  0  0.082894  0  3.98131  0  0  0.090024  0  3.997802  0  0.429441  0  0.036895  0.078605  0  3.970091  0
C  C56  1  0.13583098  0.23996247  0.24575412  1  0  -0.111914  0  3.748366  0  0  -0.121783  0  4.003623  0  0  -0.126808  0  4.021174  0  -0.069274  0  -0.087462  -0.119366  0  3.992589  0
C  C57  1  0.86417690  0.26002078  0.74575254  1  0  -0.11236  0  3.748646  0  0  -0.122272  0  4.003946  0  0  -0.127298  0  4.021491  0  -0.069374  0  -0.087693  -0.119857  0  3.992916  0
C  C58  1  0.86417453  0.76003672  0.75424483  1  0  -0.112115  0  3.748291  0  0  -0.121998  0  4.003524  0  0  -0.127023  0  4.021074  0  -0.069538  0  -0.087477  -0.11958  0  3.992489  0
C  C59  1  0.13582981  0.73997419  0.25424378  1  0  -0.112423  0  3.748616  0  0  -0.122296  0  4.003877  0  0  -0.127322  0  4.021425  0  -0.06937  0  -0.087632  -0.119881  0  3.99285  0
C  C60  1  0.06431596  0.18401605  0.31103935  1  0  -0.002483  0  3.706813  0  0  -0.024096  0  3.96067  0  0  -0.020832  0  3.979148  0  0.002919  0  -0.069331  -0.026613  0  3.948854  0
C  C61  1  0.93568158  0.31597352  0.81103988  1  0  -0.002341  0  3.706898  0  0  -0.023986  0  3.960772  0  0  -0.020721  0  3.979247  0  0.003155  0  -0.069337  -0.026486  0  3.948937  0
C  C62  1  0.93568914  0.81598208  0.68895592  1  0  -0.002421  0  3.706952  0  0  -0.024057  0  3.96083  0  0  -0.020794  0  3.979308  0  0.002951  0  -0.069396  -0.026575  0  3.949011  0
C  C63  1  0.06430664  0.68402883  0.18895540  1  0  -0.002354  0  3.706863  0  0  -0.024007  0  3.960752  0  0  -0.020743  0  3.979221  0  0.002792  0  -0.069374  -0.026522  0  3.948941  0
C  C64  1  0.10977859  0.26989119  0.36985482  1  0  -0.132206  0  3.671616  0  0  -0.148305  0  3.913274  0  0  -0.155866  0  3.93679  0  -0.055473  0  -0.076188  -0.143535  0  3.898429  0
C  C65  1  0.89021633  0.23010260  0.86985115  1  0  -0.132156  0  3.671793  0  0  -0.148185  0  3.913495  0  0  -0.155745  0  3.937006  0  -0.055069  0  -0.076067  -0.143361  0  3.898631  0
C  C66  1  0.89022265  0.73010799  0.63014623  1  0  -0.132071  0  3.67186  0  0  -0.148156  0  3.913539  0  0  -0.155711  0  3.93705  0  -0.055387  0  -0.07608  -0.143376  0  3.898707  0
C  C67  1  0.10977801  0.76990080  0.13014623  1  0  -0.131997  0  3.671905  0  0  -0.148042  0  3.913622  0  0  -0.155611  0  3.937172  0  -0.054669  0  -0.075975  -0.143236  0  3.898734  0
C  C68  1  0.22611068  0.41068120  0.36338348  1  0  0.240221  0  3.774261  0  0  0.239839  0  4.009178  0  0  0.248685  0  4.030605  0  0.480119  0  0.111642  0.233622  0  3.994656  0
C  C69  1  0.77387586  0.08930943  0.86338820  1  0  0.240369  0  3.774016  0  0  0.239787  0  4.009205  0  0  0.248628  0  4.030645  0  0.479927  0  0.111664  0.233574  0  3.994674  0
C  C70  1  0.77388016  0.58931693  0.63661442  1  0  0.240359  0  3.774222  0  0  0.239903  0  4.009253  0  0  0.24875  0  4.03068  0  0.479995  0  0.111711  0.233685  0  3.994729  0
C  C71  1  0.22612026  0.91068764  0.13661390  1  0  0.240294  0  3.774133  0  0  0.239745  0  4.009284  0  0  0.248588  0  4.030709  0  0.479704  0  0.111622  0.23353  0  3.994762  0
C  C72  1  0.27646051  0.50699210  0.42276181  1  0  -0.13097  0  3.698008  0  0  -0.151765  0  3.951855  0  0  -0.155276  0  3.970103  0  0.048648  0  -0.083424  -0.149391  0  3.939744  0
C  C73  1  0.72353576  0.99300193  0.92276653  1  0  -0.130998  0  3.697787  0  0  -0.15182  0  3.951744  0  0  -0.155332  0  3.969999  0  0.048607  0  -0.083478  -0.14945  0  3.939634  0
C  C74  1  0.72353484  0.49301024  0.57723767  1  0  -0.131045  0  3.698102  0  0  -0.151827  0  3.951986  0  0  -0.155337  0  3.970234  0  0.048659  0  -0.083434  -0.14945  0  3.939872  0
C  C75  1  0.27646220  0.00699620  0.07723609  1  0  -0.130966  0  3.697718  0  0  -0.15176  0  3.951668  0  0  -0.155272  0  3.969917  0  0.048752  0  -0.083444  -0.149377  0  3.939542  0
C  C76  1  0.22816953  0.47018214  0.49028117  1  0  -0.079438  0  3.698457  0  0  -0.098007  0  3.943281  0  0  -0.100261  0  3.96371  0  -0.137414  0  -0.078504  -0.096479  0  3.929398  0
C  C77  1  0.77183055  0.02982114  0.99028537  1  0  -0.079389  0  3.698467  0  0  -0.097944  0  3.943229  0  0  -0.100201  0  3.96365  0  -0.137566  0  -0.078436  -0.096418  0  3.929351  0
C  C78  1  0.77181584  0.52982021  0.50971936  1  0  -0.07943  0  3.698407  0  0  -0.097971  0  3.943229  0  0  -0.100229  0  3.963654  0  -0.137087  0  -0.078481  -0.096449  0  3.929341  0
C  C79  1  0.22817377  0.97018226  0.00971358  1  0  -0.079435  0  3.698533  0  0  -0.097985  0  3.943266  0  0  -0.100242  0  3.963685  0  -0.137159  0  -0.078414  -0.096442  0  3.929395  0
C  C80  1  0.27642782  0.56143232  0.55149773  1  0  0.132762  0  3.800081  0  0  0.150646  0  4.024063  0  0  0.155557  0  4.047214  0  -0.050686  0  0.004556  0.147553  0  4.008326  0
C  C81  1  0.72357237  0.93856803  0.05150035  1  0  0.132678  0  3.800282  0  0  0.150657  0  4.024104  0  0  0.155573  0  4.047243  0  -0.050685  0  0.004506  0.147562  0  4.008371  0
C  C82  1  0.72356486  0.43856686  0.44850332  1  0  0.132982  0  3.799861  0  0  0.150808  0  4.023904  0  0  0.155719  0  4.047056  0  -0.050966  0  0.004602  0.147713  0  4.00817  0
C  C83  1  0.27642809  0.06143642  0.94850175  1  0  0.132486  0  3.800448  0  0  0.150492  0  4.024259  0  0  0.155404  0  4.047412  0  -0.051142  0  0.004424  0.147397  0  4.00852  0
C  C84  1  0.37806544  0.70602684  0.54904308  1  0  -0.158593  0  3.660438  0  0  -0.17382  0  3.897902  0  0  -0.182359  0  3.920576  0  -0.047553  0  -0.084662  -0.167985  0  3.882787  0
C  C85  1  0.62193926  0.79397774  0.04904676  1  0  -0.158564  0  3.660451  0  0  -0.173762  0  3.897871  0  0  -0.182305  0  3.920535  0  -0.047436  0  -0.084656  -0.167924  0  3.882756  0
C  C86  1  0.62193764  0.29397340  0.45095639  1  0  -0.158542  0  3.660364  0  0  -0.173759  0  3.897795  0  0  -0.182308  0  3.920462  0  -0.047561  0  -0.084608  -0.167922  0  3.882678  0
C  C87  1  0.37805834  0.20602672  0.95095744  1  0  -0.158326  0  3.660335  0  0  -0.173598  0  3.89773  0  0  -0.182145  0  3.920393  0  -0.047542  0  -0.084571  -0.167759  0  3.882617  0
C  C88  1  0.42124005  0.78166767  0.61127720  1  0  0.115599  0  3.720466  0  0  0.087228  0  3.973402  0  0  0.093481  0  3.993359  0  0.4115  0  0.036545  0.082965  0  3.960379  0
C  C89  1  0.57876566  0.71833585  0.11128351  1  0  0.115837  0  3.720564  0  0  0.087403  0  3.973575  0  0  0.093661  0  3.993526  0  0.411658  0  0.036619  0.083135  0  3.960556  0
C  C90  1  0.57876178  0.21832940  0.38872227  1  0  0.115588  0  3.720437  0  0  0.087195  0  3.973426  0  0  0.093449  0  3.993386  0  0.411581  0  0.036523  0.082931  0  3.960401  0
C  C91  1  0.42123361  0.28167283  0.88872070  1  0  0.115558  0  3.720388  0  0  0.087172  0  3.973411  0  0  0.093428  0  3.993367  0  0.411642  0  0.036509  0.082903  0  3.960396  0
C  C92  1  0.26848114  0.58629927  0.67779738  1  0  0.116166  0  3.741047  0  0  0.086786  0  3.995528  0  0  0.094169  0  4.01284  0  0.532248  0  0.032757  0.081861  0  3.984277  0
C  C93  1  0.73151275  0.91370319  0.17780158  1  0  0.116318  0  3.740857  0  0  0.086954  0  3.99531  0  0  0.094335  0  4.012625  0  0.53228  0  0.032846  0.082029  0  3.984061  0
C  C94  1  0.73151826  0.41369886  0.32220209  1  0  0.116117  0  3.741179  0  0  0.086742  0  3.995649  0  0  0.094123  0  4.012962  0  0.532119  0  0.03277  0.081818  0  3.984396  0
C  C95  1  0.26847612  0.08630443  0.82220104  1  0  0.116039  0  3.74111  0  0  0.086685  0  3.995592  0  0  0.094063  0  4.012909  0  0.532048  0  0.032806  0.081761  0  3.984341  0
C  C96  1  0.22082218  0.50250728  0.61826363  1  0  -0.176926  0  3.709924  0  0  -0.194011  0  3.959124  0  0  -0.202088  0  3.979337  0  -0.055999  0  -0.090542  -0.189124  0  3.946231  0
C  C97  1  0.77917313  0.99749519  0.11826573  1  0  -0.177043  0  3.70989  0  0  -0.194153  0  3.959091  0  0  -0.202229  0  3.979303  0  -0.056089  0  -0.090607  -0.189268  0  3.946202  0
C  C98  1  0.77916783  0.49748874  0.38173689  1  0  -0.177041  0  3.70987  0  0  -0.194108  0  3.959127  0  0  -0.202185  0  3.979341  0  -0.055631  0  -0.090595  -0.189221  0  3.946233  0
C  C99  1  0.22082061  0.00251032  0.88173427  1  0  -0.17672  0  3.709858  0  0  -0.193855  0  3.958995  0  0  -0.201928  0  3.979204  0  -0.055529  0  -0.09052  -0.18897  0  3.946104  0
C  C100  1  0.70641948  0.86914499  0.39343467  1  0  0.6099  0  3.970176  0  0  0.56312  0  4.259781  0  0  0.596921  0  4.252935  0  1.564297  0  0.186045  0.540339  0  4.262675  0
C  C101  1  0.29358618  0.63085115  0.89343204  1  0  0.609767  0  3.97  0  0  0.563003  0  4.259612  0  0  0.5968  0  4.252768  0  1.564011  0  0.186044  0.540223  0  4.262505  0
C  C102  1  0.29359050  0.13085103  0.60656533  1  0  0.609714  0  3.97001  0  0  0.562959  0  4.259616  0  0  0.596757  0  4.252775  0  1.564289  0  0.185976  0.540178  0  4.26251  0
C  C103  1  0.70642587  0.36915014  0.10656586  1  0  0.609715  0  3.970195  0  0  0.562965  0  4.259788  0  0  0.59676  0  4.252938  0  1.564331  0  0.185934  0.540185  0  4.262686  0
C  C104  1  0.85760515  0.93663466  0.44876900  1  0  -0.067156  0  3.75789  0  0  -0.042412  0  3.986204  0  0  -0.048392  0  4.007774  0  -0.103663  0  -0.021527  -0.038091  0  3.970754  0
C  C105  1  0.14239433  0.56335304  0.94876848  1  0  -0.067172  0  3.757702  0  0  -0.042473  0  3.986103  0  0  -0.048443  0  4.007651  0  -0.10415  0  -0.021558  -0.038152  0  3.970655  0
C  C106  1  0.14240007  0.06335292  0.55123205  1  0  -0.067152  0  3.757565  0  0  -0.042481  0  3.986041  0  0  -0.048446  0  4.00758  0  -0.104217  0  -0.0216  -0.03816  0  3.97059  0
C  C107  1  0.85760934  0.43664509  0.05123047  1  0  -0.066986  0  3.75762  0  0  -0.042336  0  3.986077  0  0  -0.048291  0  4.007602  0  -0.104193  0  -0.021514  -0.038017  0  3.970634  0
C  C108  1  0.05172149  0.92353353  0.44536295  1  0  -0.086074  0  3.740007  0  0  -0.106961  0  3.986889  0  0  -0.107358  0  4.005583  0  -0.026463  0  -0.089629  -0.106492  0  3.973851  0
C  C109  1  0.94828660  0.57646156  0.94536085  1  0  -0.085874  0  3.739706  0  0  -0.106792  0  3.986536  0  0  -0.107189  0  4.005223  0  -0.026636  0  -0.089552  -0.106323  0  3.973502  0
C  C110  1  0.94828498  0.07645722  0.55463863  1  0  -0.086051  0  3.739938  0  0  -0.107018  0  3.98681  0  0  -0.107418  0  4.005499  0  -0.026562  0  -0.089639  -0.106548  0  3.973773  0
C  C111  1  0.05172526  0.42354290  0.05463915  1  0  -0.086078  0  3.739992  0  0  -0.106981  0  3.986839  0  0  -0.107383  0  4.005523  0  -0.026525  0  -0.089647  -0.106512  0  3.973806  0
C  C112  1  0.19256367  0.98629789  0.49581843  1  0  -0.085885  0  3.744087  0  0  -0.107968  0  3.993694  0  0  -0.108813  0  4.013585  0  -0.036064  0  -0.089341  -0.106919  0  3.979974  0
C  C113  1  0.80743343  0.51369825  0.99581791  1  0  -0.086141  0  3.744195  0  0  -0.108134  0  3.993864  0  0  -0.108975  0  4.013737  0  -0.036063  0  -0.08943  -0.107085  0  3.980149  0
C  C114  1  0.80744161  0.01369707  0.50418419  1  0  -0.085935  0  3.74436  0  0  -0.107996  0  3.994021  0  0  -0.108829  0  4.0139  0  -0.03654  0  -0.089374  -0.106945  0  3.980299  0
C  C115  1  0.19255884  0.48629988  0.00418262  1  0  -0.085985  0  3.74433  0  0  -0.107992  0  3.993978  0  0  -0.108834  0  4.013871  0  -0.036198  0  -0.089404  -0.106943  0  3.98026  0
N  N116  1  0.29685735  0.46321864  0.29923499  1  0  -0.357983  0  3.305593  0  0  -0.272873  0  3.573394  0  0  -0.293386  0  3.591839  0  -1.198292  0  -0.342467  -0.25915  0  3.560116  0
N  N117  1  0.70313941  0.03677621  0.79923814  1  0  -0.358079  0  3.305633  0  0  -0.272869  0  3.573442  0  0  -0.293382  0  3.591888  0  -1.198107  0  -0.342407  -0.259147  0  3.560168  0
N  N118  1  0.70314228  0.53678371  0.70076343  1  0  -0.35794  0  3.30555  0  0  -0.272822  0  3.573371  0  0  -0.293333  0  3.591817  0  -1.198216  0  -0.342434  -0.259098  0  3.560093  0
N  N119  1  0.29686141  0.96322192  0.20076186  1  0  -0.358042  0  3.305597  0  0  -0.272858  0  3.573425  0  0  -0.293369  0  3.591871  0  -1.198453  0  -0.342447  -0.259136  0  3.56015  0
N  N120  1  0.36897755  0.72391762  0.67517209  1  0  -0.31507  0  3.292548  0  0  -0.238658  0  3.57133  0  0  -0.256367  0  3.587977  0  -1.221672  0  -0.345143  -0.226843  0  3.560014  0
N  N121  1  0.63101367  0.77608168  0.17517209  1  0  -0.315206  0  3.293052  0  0  -0.238762  0  3.571827  0  0  -0.256472  0  3.588472  0  -1.221835  0  -0.345166  -0.226947  0  3.560512  0
N  N122  1  0.63102369  0.27608156  0.32482844  1  0  -0.31501  0  3.292667  0  0  -0.238586  0  3.57143  0  0  -0.256295  0  3.588077  0  -1.221707  0  -0.345128  -0.226771  0  3.560112  0
N  N123  1  0.36897395  0.22392278  0.82482844  1  0  -0.314994  0  3.292726  0  0  -0.238622  0  3.571528  0  0  -0.256331  0  3.588177  0  -1.221751  0  -0.345148  -0.226808  0  3.560217  0
O  O124  1  0.77479268  0.81815699  0.34012549  1  0  -0.641863  0  2.046035  0  0  -0.572608  0  2.307896  0  0  -0.60148  0  2.298128  0  -1.161666  0  -0.344715  -0.55171  0  2.313043  0
O  O125  1  0.22520787  0.68183704  0.84012444  1  0  -0.641786  0  2.046075  0  0  -0.572532  0  2.307922  0  0  -0.601413  0  2.298181  0  -1.161682  0  -0.344687  -0.551634  0  2.313066  0
O  O126  1  0.22521587  0.18183903  0.65987609  1  0  -0.64174  0  2.045856  0  0  -0.572486  0  2.307701  0  0  -0.60136  0  2.297941  0  -1.161566  0  -0.344665  -0.551589  0  2.312852  0
O  O127  1  0.77479093  0.31816320  0.15987504  1  0  -0.641797  0  2.046181  0  0  -0.572543  0  2.308013  0  0  -0.601422  0  2.298267  0  -1.161689  0  -0.344664  -0.551649  0  2.313163  0
O  O128  1  0.52637150  0.86551346  0.40249298  1  0  -0.640736  0  1.941986  0  0  -0.587034  0  2.170964  0  0  -0.610972  0  2.160796  0  -1.186504  0  -0.333549  -0.569858  0  2.177009  0
O  O129  1  0.47363992  0.63449006  0.90249193  1  0  -0.640708  0  1.941881  0  0  -0.587014  0  2.170849  0  0  -0.610955  0  2.160686  0  -1.186213  0  -0.333591  -0.569839  0  2.17689  0
O  O130  1  0.47364359  0.13448467  0.59750807  1  0  -0.640681  0  1.941988  0  0  -0.587013  0  2.170989  0  0  -0.610955  0  2.160821  0  -1.18659  0  -0.333543  -0.569837  0  2.177029  0
O  O131  1  0.52637070  0.36551123  0.09750860  1  0  -0.640707  0  1.941933  0  0  -0.587001  0  2.170883  0  0  -0.610947  0  2.160724  0  -1.186452  0  -0.333548  -0.569825  0  2.176925  0
