# generated using pymatgen
data_ZnH9C8N3O5
_symmetry_space_group_name_H-M   'P 1'
_cell_length_a   7.17486676
_cell_length_b   8.79825734
_cell_length_c   16.23400000
_cell_angle_alpha   90.00000000
_cell_angle_beta   90.00000000
_cell_angle_gamma   90.00000000
_symmetry_Int_Tables_number   1
_chemical_formula_structural   ZnH9C8N3O5
_chemical_formula_sum   'Zn4 H36 C32 N12 O20'
_cell_volume   1024.79274615
_cell_formula_units_Z   4
loop_
 _symmetry_equiv_pos_site_id
 _symmetry_equiv_pos_as_xyz
  1  'x, y, z'
loop_
 _atom_site_type_symbol
 _atom_site_label
 _atom_site_symmetry_multiplicity
 _atom_site_fract_x
 _atom_site_fract_y
 _atom_site_fract_z
 _atom_site_occupancy
 _atom_site_hle17_bader_spin_density
 _atom_site_hle17_ddec_charge
 _atom_site_hle17_ddec_spin_density
 _atom_site_hle17_ddec_sum_bond_order
 _atom_site_hle17_magmom
 _atom_site_hse06_10hf_bader_spin_density
 _atom_site_hse06_10hf_ddec_charge
 _atom_site_hse06_10hf_ddec_spin_density
 _atom_site_hse06_10hf_ddec_sum_bond_order
 _atom_site_hse06_10hf_magmom
 _atom_site_hse06_bader_spin_density
 _atom_site_hse06_ddec_charge
 _atom_site_hse06_ddec_spin_density
 _atom_site_hse06_ddec_sum_bond_order
 _atom_site_hse06_magmom
 _atom_site_pbe_bader_charge
 _atom_site_pbe_bader_spin_density
 _atom_site_pbe_cm5_charge
 _atom_site_pbe_ddec_charge
 _atom_site_pbe_ddec_spin_density
 _atom_site_pbe_ddec_sum_bond_order
 _atom_site_pbe_magmom
Zn  Zn0  1  0.75042509  0.54499088  0.04064186  1  0  1.045495  0  1.74479  0  0  0.855153  0  2.20335  0  0  0.904217  0  2.148837  0  1.28394  0  0.688249  0.820522  0  2.241131  0
Zn  Zn1  1  0.74957490  0.45500942  0.54064186  1  0  1.045553  0  1.744667  0  0  0.855201  0  2.203218  0  0  0.904262  0  2.148704  0  1.284001  0  0.688304  0.820574  0  2.240999  0
Zn  Zn2  1  0.24958512  0.04497709  0.45935567  1  0  1.045504  0  1.744766  0  0  0.855165  0  2.203305  0  0  0.904231  0  2.148793  0  1.283937  0  0.688314  0.820539  0  2.24108  0
Zn  Zn3  1  0.25041859  0.95502094  0.95935567  1  0  1.045499  0  1.744729  0  0  0.855155  0  2.203284  0  0  0.904218  0  2.148771  0  1.283987  0  0.688332  0.820531  0  2.241053  0
H  H4  1  0.93669893  0.31633423  0.39591721  1  0  0.058891  0  0.939166  0  0  0.069325  0  1.003522  0  0  0.070378  0  1.002968  0  0.099486  0  0.109898  0.068625  0  1.003606  0
H  H5  1  0.56330523  0.68366607  0.89592029  1  0  0.05889  0  0.939274  0  0  0.069321  0  1.003624  0  0  0.070381  0  1.003062  0  0.09947  0  0.10991  0.068621  0  1.003707  0
H  H6  1  0.06329734  0.81633552  0.10408279  1  0  0.058882  0  0.939218  0  0  0.069293  0  1.003598  0  0  0.070376  0  1.003008  0  0.099401  0  0.109898  0.068596  0  1.00368  0
H  H7  1  0.43670358  0.18366251  0.60408217  1  0  0.058873  0  0.939224  0  0  0.069284  0  1.003619  0  0  0.070366  0  1.003029  0  0.099589  0  0.109896  0.068582  0  1.003704  0
H  H8  1  0.17539002  0.48479373  0.06957866  1  0  0.092707  0  0.929317  0  0  0.099579  0  0.994359  0  0  0.10233  0  0.991941  0  0.101674  0  0.120125  0.097577  0  0.995882  0
H  H9  1  0.32460115  0.51520430  0.56958174  1  0  0.092737  0  0.92928  0  0  0.099567  0  0.994352  0  0  0.102316  0  0.991937  0  0.101504  0  0.120145  0.097566  0  0.995872  0
H  H10  1  0.82460207  0.98479616  0.43041949  1  0  0.092744  0  0.929335  0  0  0.09963  0  0.994362  0  0  0.102381  0  0.991944  0  0.101457  0  0.120151  0.097628  0  0.995886  0
H  H11  1  0.67539651  0.01520187  0.93041949  1  0  0.092742  0  0.929306  0  0  0.099601  0  0.994362  0  0  0.102352  0  0.991944  0  0.101751  0  0.120151  0.097599  0  0.995883  0
H  H12  1  0.21782565  0.35923250  0.32581988  1  0  0.11095  0  0.950572  0  0  0.119451  0  1.015683  0  0  0.122324  0  1.013541  0  0.125271  0  0.109712  0.117188  0  1.017553  0
H  H13  1  0.28217388  0.64077007  0.82582420  1  0  0.11092  0  0.950574  0  0  0.119416  0  1.015684  0  0  0.122289  0  1.013542  0  0.125405  0  0.109702  0.117148  0  1.017567  0
H  H14  1  0.78218177  0.85923947  0.17417519  1  0  0.110953  0  0.950672  0  0  0.119423  0  1.015812  0  0  0.122297  0  1.01367  0  0.125262  0  0.109654  0.117156  0  1.01769  0
H  H15  1  0.71781960  0.14076424  0.67417519  1  0  0.110921  0  0.950611  0  0  0.119422  0  1.015722  0  0  0.122295  0  1.013582  0  0.125241  0  0.109677  0.117162  0  1.017585  0
H  H16  1  0.36904936  0.39442697  0.18647345  1  0  0.118311  0  0.971939  0  0  0.124847  0  1.036059  0  0  0.128917  0  1.033777  0  0.135115  0  0.1069  0.121886  0  1.037792  0
H  H17  1  0.13094738  0.60557219  0.68647838  1  0  0.118329  0  0.971962  0  0  0.124857  0  1.036072  0  0  0.128926  0  1.033792  0  0.135083  0  0.106894  0.121899  0  1.037803  0
H  H18  1  0.63094551  0.89443281  0.31352101  1  0  0.118289  0  0.971977  0  0  0.124802  0  1.036103  0  0  0.12887  0  1.033826  0  0.135067  0  0.106872  0.121845  0  1.037836  0
H  H19  1  0.86905028  0.10556636  0.81352162  1  0  0.118306  0  0.971992  0  0  0.124823  0  1.036111  0  0  0.12889  0  1.033836  0  0.135093  0  0.106892  0.121867  0  1.037844  0
H  H20  1  0.70830723  0.52645084  0.21734261  1  0  0.090531  0  0.955314  0  0  0.098149  0  1.022638  0  0  0.101241  0  1.019331  0  0.13777  0  0.119066  0.095809  0  1.025138  0
H  H21  1  0.79169136  0.47355287  0.71734323  1  0  0.090497  0  0.955349  0  0  0.098125  0  1.022686  0  0  0.101212  0  1.019383  0  0.137792  0  0.119058  0.095784  0  1.025186  0
H  H22  1  0.29169740  0.02645183  0.28265739  1  0  0.090503  0  0.955271  0  0  0.098129  0  1.022603  0  0  0.101234  0  1.019277  0  0.137732  0  0.11904  0.095788  0  1.025102  0
H  H23  1  0.20830491  0.97354620  0.78265677  1  0  0.090504  0  0.955277  0  0  0.098135  0  1.022598  0  0  0.10123  0  1.019283  0  0.137746  0  0.119045  0.095794  0  1.025097  0
H  H24  1  0.73412513  0.60645760  0.40430516  1  0  0.304704  0  0.895785  0  0  0.291004  0  0.958759  0  0  0.297196  0  0.954666  0  0.45706  0  0.294017  0.286676  0  0.961337  0
H  H25  1  0.76587206  0.39354157  0.90430455  1  0  0.304709  0  0.895819  0  0  0.291015  0  0.958786  0  0  0.297207  0  0.95469  0  0.457067  0  0.294018  0.286687  0  0.961366  0
H  H26  1  0.26586975  0.10645972  0.09569853  1  0  0.304698  0  0.895771  0  0  0.291036  0  0.958697  0  0  0.29723  0  0.954599  0  0.457055  0  0.294004  0.286707  0  0.961278  0
H  H27  1  0.23412839  0.89354058  0.59569853  1  0  0.304643  0  0.895864  0  0  0.29095  0  0.958808  0  0  0.297139  0  0.954719  0  0.457041  0  0.293992  0.286622  0  0.961388  0
H  H28  1  0.95717178  0.58421569  0.43194345  1  0  0.314129  0  0.913746  0  0  0.299002  0  0.976325  0  0  0.306123  0  0.970929  0  0.496818  0  0.289498  0.293925  0  0.980101  0
H  H29  1  0.54282541  0.41578461  0.93194284  1  0  0.31416  0  0.913714  0  0  0.299014  0  0.976323  0  0  0.306134  0  0.970922  0  0.496784  0  0.289478  0.293938  0  0.980101  0
H  H30  1  0.04282449  0.08421781  0.06805778  1  0  0.314224  0  0.913629  0  0  0.29905  0  0.976294  0  0  0.30617  0  0.970895  0  0.49683  0  0.289503  0.293973  0  0.980072  0
H  H31  1  0.45717643  0.91577908  0.56805778  1  0  0.314273  0  0.913551  0  0  0.299138  0  0.976167  0  0  0.306258  0  0.970764  0  0.496668  0  0.289532  0.294063  0  0.979945  0
H  H32  1  0.67251562  0.24967217  0.29559874  1  0  0.1185  0  0.932325  0  0  0.129912  0  0.994106  0  0  0.13207  0  0.994305  0  0.046813  0  0.103578  0.128008  0  0.994646  0
H  H33  1  0.82748714  0.75032813  0.79559813  1  0  0.118501  0  0.932307  0  0  0.129911  0  0.994088  0  0  0.132068  0  0.994291  0  0.046812  0  0.103573  0.128009  0  0.994631  0
H  H34  1  0.32747507  0.74966664  0.20439756  1  0  0.118525  0  0.932328  0  0  0.129956  0  0.99408  0  0  0.132114  0  0.99428  0  0.046834  0  0.103612  0.12805  0  0.994621  0
H  H35  1  0.17252585  0.25033480  0.70439756  1  0  0.118549  0  0.932324  0  0  0.129985  0  0.994068  0  0  0.132143  0  0.994271  0  0.04682  0  0.103609  0.12808  0  0.99461  0
H  H36  1  0.56470596  0.42207790  0.32241592  1  0  0.126101  0  0.944234  0  0  0.143142  0  1.001055  0  0  0.145438  0  0.999871  0  0.074541  0  0.110645  0.14131  0  1.002203  0
H  H37  1  0.93529542  0.57792013  0.82241838  1  0  0.126115  0  0.944214  0  0  0.143137  0  1.001065  0  0  0.145434  0  0.999884  0  0.074653  0  0.110645  0.141306  0  1.002209  0
H  H38  1  0.43529171  0.92207919  0.17758839  1  0  0.126096  0  0.944254  0  0  0.143144  0  1.001071  0  0  0.145439  0  0.999889  0  0.074492  0  0.11063  0.141311  0  1.002219  0
H  H39  1  0.06471479  0.07792111  0.67758778  1  0  0.126129  0  0.944249  0  0  0.143184  0  1.001054  0  0  0.145481  0  0.999865  0  0.074522  0  0.110669  0.141351  0  1.002202  0
C  C40  1  0.85018582  0.40154088  0.36439017  1  0  0.192742  0  3.603091  0  0  0.167113  0  3.839623  0  0  0.172584  0  3.855033  0  0.282991  0  0.004482  0.163488  0  3.828642  0
C  C41  1  0.64981276  0.59846056  0.86439017  1  0  0.192721  0  3.603223  0  0  0.167131  0  3.839737  0  0  0.1726  0  3.855141  0  0.283022  0  0.004465  0.163506  0  3.828755  0
C  C42  1  0.14981184  0.90154217  0.13560922  1  0  0.192734  0  3.603058  0  0  0.167144  0  3.839597  0  0  0.172599  0  3.855006  0  0.283096  0  0.004487  0.163509  0  3.828617  0
C  C43  1  0.35019048  0.09845700  0.63560922  1  0  0.192789  0  3.603171  0  0  0.167143  0  3.839712  0  0  0.172599  0  3.855117  0  0.282919  0  0.0045  0.163519  0  3.828732  0
C  C44  1  0.95003437  0.44045427  0.28402673  1  0  -0.018217  0  3.677293  0  0  0.009206  0  3.909366  0  0  0.002556  0  3.935074  0  0.031916  0  -0.007438  0.012896  0  3.893311  0
C  C45  1  0.54996422  0.55954831  0.78402673  1  0  -0.018218  0  3.677362  0  0  0.009164  0  3.909487  0  0  0.002508  0  3.935206  0  0.031884  0  -0.007462  0.012853  0  3.893433  0
C  C46  1  0.04996887  0.94045442  0.21597388  1  0  -0.018252  0  3.677307  0  0  0.009163  0  3.90939  0  0  0.002507  0  3.935114  0  0.03193  0  -0.007471  0.012857  0  3.893333  0
C  C47  1  0.45003484  0.05954475  0.71597327  1  0  -0.018364  0  3.677604  0  0  0.009162  0  3.909552  0  0  0.002509  0  3.935272  0  0.031881  0  -0.007458  0.01285  0  3.893499  0
C  C48  1  0.11647742  0.47413480  0.13125662  1  0  0.133322  0  3.673111  0  0  0.099802  0  3.927684  0  0  0.106949  0  3.946211  0  0.46148  0  0.048312  0.095697  0  3.91394  0
C  C49  1  0.38351932  0.52586550  0.63125970  1  0  0.133366  0  3.67319  0  0  0.099896  0  3.927723  0  0  0.107045  0  3.946249  0  0.461776  0  0.048324  0.095791  0  3.913981  0
C  C50  1  0.88351745  0.97414064  0.36874276  1  0  0.13337  0  3.673118  0  0  0.099809  0  3.927697  0  0  0.106957  0  3.946223  0  0.461641  0  0.048323  0.095704  0  3.913954  0
C  C51  1  0.61647974  0.02585739  0.86874215  1  0  0.133357  0  3.673114  0  0  0.099818  0  3.927683  0  0  0.106968  0  3.946206  0  0.461382  0  0.048312  0.095713  0  3.913941  0
C  C52  1  0.13889875  0.40482449  0.27402673  1  0  -0.035209  0  3.682086  0  0  -0.066943  0  3.933758  0  0  -0.063399  0  3.952896  0  -0.070521  0  -0.06435  -0.069101  0  3.921715  0
C  C53  1  0.36109799  0.59517809  0.77402981  1  0  -0.035213  0  3.68206  0  0  -0.066922  0  3.933735  0  0  -0.063373  0  3.952866  0  -0.070824  0  -0.064346  -0.069082  0  3.921693  0
C  C54  1  0.86110170  0.90482691  0.22597080  1  0  -0.035246  0  3.682116  0  0  -0.066961  0  3.933769  0  0  -0.063414  0  3.952904  0  -0.070597  0  -0.064329  -0.06912  0  3.921725  0
C  C55  1  0.63889967  0.09517226  0.72597080  1  0  -0.035182  0  3.682143  0  0  -0.066955  0  3.933778  0  0  -0.063408  0  3.952913  0  -0.070582  0  -0.064367  -0.069112  0  3.921738  0
C  C56  1  0.22352750  0.42363844  0.19734138  1  0  -0.117585  0  3.718638  0  0  -0.128757  0  3.972339  0  0  -0.136481  0  3.993699  0  -0.030541  0  -0.08649  -0.12395  0  3.957826  0
C  C57  1  0.27647064  0.57636073  0.69734323  1  0  -0.117654  0  3.718765  0  0  -0.128812  0  3.972434  0  0  -0.136536  0  3.993793  0  -0.030475  0  -0.086486  -0.124003  0  3.957914  0
C  C58  1  0.77646599  0.92364541  0.30265677  1  0  -0.117554  0  3.718603  0  0  -0.128661  0  3.972264  0  0  -0.136385  0  3.993627  0  -0.030452  0  -0.086411  -0.123859  0  3.957753  0
C  C59  1  0.72353260  0.07635489  0.80265677  1  0  -0.117543  0  3.718637  0  0  -0.128661  0  3.972311  0  0  -0.136385  0  3.993673  0  -0.030461  0  -0.086396  -0.123861  0  3.957802  0
C  C60  1  0.85511553  0.49539810  0.21490391  1  0  0.089835  0  3.661894  0  0  0.049395  0  3.909684  0  0  0.056421  0  3.927781  0  0.43203  0  0.044548  0.044963  0  3.897868  0
C  C61  1  0.64488306  0.50460675  0.71490575  1  0  0.089897  0  3.661823  0  0  0.049444  0  3.909647  0  0  0.05647  0  3.92775  0  0.43198  0  0.044573  0.045011  0  3.897831  0
C  C62  1  0.14488492  0.99539939  0.28509425  1  0  0.089946  0  3.661833  0  0  0.049496  0  3.90963  0  0  0.056507  0  3.927735  0  0.431978  0  0.044607  0.045063  0  3.897813  0
C  C63  1  0.35511600  0.00459977  0.78509363  1  0  0.089957  0  3.661861  0  0  0.049488  0  3.909603  0  0  0.056504  0  3.927719  0  0.431992  0  0.044597  0.045056  0  3.897786  0
C  C64  1  0.65907705  0.33321371  0.34542873  1  0  -0.345696  0  3.66889  0  0  -0.386842  0  3.913312  0  0  -0.394675  0  3.922069  0  -0.022642  0  -0.166781  -0.38132  0  3.90708  0
C  C65  1  0.84092433  0.66678659  0.84542873  1  0  -0.345768  0  3.668907  0  0  -0.38686  0  3.913388  0  0  -0.394704  0  3.922161  0  -0.02269  0  -0.166805  -0.38134  0  3.907161  0
C  C66  1  0.34092340  0.83321500  0.15457065  1  0  -0.345649  0  3.669066  0  0  -0.386813  0  3.913509  0  0  -0.394648  0  3.922273  0  -0.022705  0  -0.166758  -0.381285  0  3.907276  0
C  C67  1  0.15907891  0.16678644  0.65457065  1  0  -0.345781  0  3.668969  0  0  -0.386985  0  3.913533  0  0  -0.394824  0  3.922303  0  -0.022571  0  -0.16682  -0.381462  0  3.907305  0
C  C68  1  0.55495386  0.25588817  0.41517494  1  0  0.73924  0  3.802228  0  0  0.68644  0  4.103522  0  0  0.721364  0  4.095379  0  1.573982  0  0.223067  0.662389  0  4.109219  0
C  C69  1  0.94506145  0.74412463  0.91516201  1  0  0.739317  0  3.802115  0  0  0.686346  0  4.103674  0  0  0.721275  0  4.09553  0  1.57423  0  0.223077  0.66229  0  4.109375  0
C  C70  1  0.44503962  0.75590083  0.08482321  1  0  0.739068  0  3.802082  0  0  0.686269  0  4.103427  0  0  0.72119  0  4.095283  0  1.573735  0  0.222971  0.662214  0  4.109128  0
C  C71  1  0.05495015  0.24410516  0.58482937  1  0  0.739139  0  3.802195  0  0  0.686288  0  4.10355  0  0  0.721211  0  4.09541  0  1.573962  0  0.223004  0.662234  0  4.109251  0
N  N72  1  0.93472119  0.50952704  0.13994579  1  0  -0.333837  0  3.300334  0  0  -0.250731  0  3.575371  0  0  -0.270947  0  3.592798  0  -1.239003  0  -0.324955  -0.23714  0  3.563001  0
N  N73  1  0.56527879  0.49047326  0.63994641  1  0  -0.333869  0  3.300196  0  0  -0.250773  0  3.575239  0  0  -0.27099  0  3.592663  0  -1.238919  0  -0.32496  -0.237182  0  3.56287  0
N  N74  1  0.06527926  0.00952916  0.36005174  1  0  -0.33396  0  3.300235  0  0  -0.250843  0  3.575302  0  0  -0.271061  0  3.592732  0  -1.238846  0  -0.324994  -0.237252  0  3.562932  0
N  N75  1  0.43472166  0.99047114  0.86005236  1  0  -0.333909  0  3.300244  0  0  -0.250792  0  3.575301  0  0  -0.27101  0  3.592728  0  -1.238886  0  -0.324969  -0.2372  0  3.56293  0
N  N76  1  0.67085845  0.21448566  0.07899655  1  0  0.694518  0  4.151767  0  0  0.724586  0  4.44568  0  0  0.752951  0  4.451221  0  0.826081  0  0.099632  0.705351  0  4.441388  0
N  N77  1  0.82914571  0.78551237  0.57899717  1  0  0.694429  0  4.151839  0  0  0.724659  0  4.445587  0  0  0.753026  0  4.451129  0  0.826137  0  0.099634  0.705426  0  4.44129  0
N  N78  1  0.32913085  0.71448353  0.42100653  1  0  0.694202  0  4.152202  0  0  0.72438  0  4.445999  0  0  0.752747  0  4.451542  0  0.826101  0  0.099588  0.705145  0  4.441702  0
N  N79  1  0.17086450  0.28551336  0.92100653  1  0  0.694347  0  4.152156  0  0  0.724505  0  4.445977  0  0  0.752872  0  4.451519  0  0.826126  0  0.099625  0.705271  0  4.441682  0
N  N80  1  0.83129906  0.52906272  0.42430085  1  0  -0.664344  0  3.072025  0  0  -0.605057  0  3.324323  0  0  -0.626462  0  3.319236  0  -1.165669  0  -0.611564  -0.590191  0  3.327361  0
N  N81  1  0.66869953  0.47093644  0.92430147  1  0  -0.664359  0  3.072029  0  0  -0.605061  0  3.324314  0  0  -0.626482  0  3.319273  0  -1.165616  0  -0.61155  -0.590187  0  3.327332  0
N  N82  1  0.16869721  0.02906598  0.07569977  1  0  -0.664377  0  3.071875  0  0  -0.60512  0  3.324286  0  0  -0.626535  0  3.31922  0  -1.165691  0  -0.611577  -0.59024  0  3.327301  0
N  N83  1  0.33130371  0.97093205  0.57569915  1  0  -0.664406  0  3.071928  0  0  -0.605098  0  3.32425  0  0  -0.626523  0  3.319219  0  -1.165551  0  -0.611626  -0.590225  0  3.327269  0
O  O84  1  0.82439022  0.21163055  0.04039239  1  0  -0.480312  0  1.768934  0  0  -0.470701  0  1.985061  0  0  -0.485344  0  1.979131  0  -0.553391  0  -0.195251  -0.460272  0  1.988919  0
O  O85  1  0.67561255  0.78837430  0.54039177  1  0  -0.480291  0  1.76871  0  0  -0.470769  0  1.98482  0  0  -0.48541  0  1.978883  0  -0.553365  0  -0.195288  -0.46034  0  1.988677  0
O  O86  1  0.17559629  0.71163297  0.45960946  1  0  -0.480266  0  1.769168  0  0  -0.470656  0  1.985217  0  0  -0.485297  0  1.979279  0  -0.553631  0  -0.195259  -0.460226  0  1.989074  0
O  O87  1  0.32440045  0.28836733  0.95961131  1  0  -0.480326  0  1.769116  0  0  -0.470713  0  1.985179  0  0  -0.485351  0  1.979238  0  -0.553633  0  -0.195282  -0.460284  0  1.989038  0
O  O88  1  0.59472881  0.34319296  0.09478995  1  0  -0.496956  0  1.855134  0  0  -0.468155  0  2.09556  0  0  -0.487554  0  2.087659  0  -0.575945  0  -0.190486  -0.454147  0  2.100662  0
O  O89  1  0.90526559  0.65680393  0.59478933  1  0  -0.496965  0  1.855282  0  0  -0.468194  0  2.095659  0  0  -0.487594  0  2.087749  0  -0.575939  0  -0.190478  -0.454199  0  2.100772  0
O  O90  1  0.40526606  0.84318743  0.40521313  1  0  -0.496793  0  1.855427  0  0  -0.468005  0  2.095774  0  0  -0.487405  0  2.087875  0  -0.575764  0  -0.190436  -0.454004  0  2.100879  0
O  O91  1  0.09473486  0.15681174  0.90521313  1  0  -0.496863  0  1.855462  0  0  -0.468059  0  2.095816  0  0  -0.487461  0  2.087916  0  -0.575835  0  -0.190443  -0.454065  0  2.100928  0
O  O92  1  0.42718285  0.16580670  0.39047247  1  0  -0.640466  0  2.069197  0  0  -0.564434  0  2.340362  0  0  -0.59335  0  2.325842  0  -1.186164  0  -0.319759  -0.544451  0  2.350515  0
O  O93  1  0.07281529  0.83419247  0.89047247  1  0  -0.640304  0  2.069748  0  0  -0.564221  0  2.340997  0  0  -0.593118  0  2.326459  0  -1.186449  0  -0.319678  -0.54424  0  2.351149  0
O  O94  1  0.57282457  0.66580685  0.10952569  1  0  -0.640433  0  2.068813  0  0  -0.564389  0  2.339959  0  0  -0.593311  0  2.325465  0  -1.186166  0  -0.319728  -0.544402  0  2.350112  0
O  O95  1  0.92717959  0.33418891  0.60952507  1  0  -0.64036  0  2.069321  0  0  -0.564307  0  2.340499  0  0  -0.593206  0  2.325965  0  -1.186287  0  -0.319712  -0.544324  0  2.350652  0
O  O96  1  0.59083885  0.27965765  0.49055747  1  0  -0.635723  0  2.02864  0  0  -0.566061  0  2.29273  0  0  -0.593221  0  2.278044  0  -1.180531  0  -0.312844  -0.547367  0  2.302475  0
O  O97  1  0.90916113  0.72033924  0.99056055  1  0  -0.635903  0  2.027815  0  0  -0.566187  0  2.291984  0  0  -0.593354  0  2.277299  0  -1.180601  0  -0.31292  -0.547487  0  2.301728  0
O  O98  1  0.40915185  0.77966576  0.00944314  1  0  -0.635635  0  2.028675  0  0  -0.565998  0  2.29279  0  0  -0.593149  0  2.2781  0  -1.180098  0  -0.31281  -0.547304  0  2.302536  0
O  O99  1  0.09084350  0.22032886  0.50944130  1  0  -0.635773  0  2.028305  0  0  -0.566094  0  2.292389  0  0  -0.59325  0  2.277701  0  -1.18036  0  -0.312875  -0.547396  0  2.302133  0
O  O100  1  0.59120540  0.09435050  0.10154429  1  0  -0.461675  0  1.760782  0  0  -0.45847  0  1.981937  0  0  -0.471666  0  1.97448  0  -0.542618  0  -0.191869  -0.448417  0  1.98701  0
O  O101  1  0.90880294  0.90564412  0.60154491  1  0  -0.461566  0  1.76089  0  0  -0.458429  0  1.982011  0  0  -0.471624  0  1.974549  0  -0.542691  0  -0.191819  -0.448375  0  1.987081  0
O  O102  1  0.40878250  0.59434724  0.39845879  1  0  -0.46152  0  1.760697  0  0  -0.458385  0  1.981834  0  0  -0.471583  0  1.974379  0  -0.542566  0  -0.191857  -0.448331  0  1.986904  0
O  O103  1  0.09121145  0.40565079  0.89846002  1  0  -0.461556  0  1.760693  0  0  -0.458409  0  1.981839  0  0  -0.471606  0  1.974382  0  -0.542558  0  -0.191859  -0.448354  0  1.986909  0
