# generated using pymatgen
data_ZnH14C20(NO)4
_symmetry_space_group_name_H-M   'P 1'
_cell_length_a   8.22373309
_cell_length_b   10.03044092
_cell_length_c   11.88403892
_cell_angle_alpha   112.52491634
_cell_angle_beta   93.99578476
_cell_angle_gamma   104.61082980
_symmetry_Int_Tables_number   1
_chemical_formula_structural   ZnH14C20(NO)4
_chemical_formula_sum   'Zn2 H28 C40 N8 O8'
_cell_volume   860.91903591
_cell_formula_units_Z   2
loop_
 _symmetry_equiv_pos_site_id
 _symmetry_equiv_pos_as_xyz
  1  'x, y, z'
loop_
 _atom_site_type_symbol
 _atom_site_label
 _atom_site_symmetry_multiplicity
 _atom_site_fract_x
 _atom_site_fract_y
 _atom_site_fract_z
 _atom_site_occupancy
 _atom_site_pbe_bader_spin_density
 _atom_site_pbe_cm5_charge
 _atom_site_pbe_ddec_charge
 _atom_site_pbe_ddec_spin_density
 _atom_site_pbe_ddec_sum_bond_order
 _atom_site_pbe_magmom
Zn  Zn0  1  0.75251942  0.00086292  0.74965610  1  0  0.706644  0.819345  0  2.409403  0
Zn  Zn1  1  0.24748299  0.99913721  0.25034407  1  0  0.70664  0.819339  0  2.409344  0
H  H2  1  0.41095185  0.57999363  0.88565490  1  0  0.097365  0.094092  0  1.050162  0
H  H3  1  0.58903919  0.42000199  0.11433827  1  0  0.097352  0.094044  0  1.050216  0
H  H4  1  0.20442172  0.32624196  0.83096812  1  0  0.094428  0.082557  0  1.070636  0
H  H5  1  0.79557225  0.67375476  0.16903311  1  0  0.094404  0.082544  0  1.070617  0
H  H6  1  0.08966890  0.47534451  0.19612667  1  0  0.101872  0.104458  0  1.010817  0
H  H7  1  0.91033629  0.52466014  0.80387594  1  0  0.101855  0.104415  0  1.010837  0
H  H8  1  0.29964308  0.72986984  0.25423503  1  0  0.094592  0.088156  0  1.064488  0
H  H9  1  0.70036288  0.27013370  0.74576220  1  0  0.094634  0.088197  0  1.064399  0
H  H10  1  0.67646985  0.79109703  0.97759365  1  0  0.126055  0.13068  0  1.013155  0
H  H11  1  0.32352846  0.20890199  0.02240178  1  0  0.126045  0.130673  0  1.013154  0
H  H12  1  0.60028872  0.19242961  0.22787807  1  0  0.138713  0.10345  0  1.00032  0
H  H13  1  0.39971450  0.80756940  0.77212008  1  0  0.138718  0.103465  0  1.000318  0
H  H14  1  0.72948641  0.64057859  0.32076091  1  0  0.099785  0.096376  0  1.029463  0
H  H15  1  0.27051317  0.35942040  0.67923877  1  0  0.099797  0.096397  0  1.029427  0
H  H16  1  0.52213957  0.38722874  0.26688461  1  0  0.09901  0.091208  0  1.04863  0
H  H17  1  0.47785836  0.61277252  0.73311659  1  0  0.099008  0.091183  0  1.04861  0
H  H18  1  0.20183232  0.59298437  0.50110108  1  0  0.104471  0.111257  0  1.004693  0
H  H19  1  0.79816890  0.40701574  0.49890157  1  0  0.104478  0.111244  0  1.004669  0
H  H20  1  0.40813607  0.84896484  0.55525455  1  0  0.09463  0.089735  0  1.061028  0
H  H21  1  0.59186638  0.15103527  0.44474983  1  0  0.094611  0.089753  0  1.061054  0
H  H22  1  0.76994323  0.91113402  0.28734033  1  0  0.122621  0.126952  0  1.026377  0
H  H23  1  0.23005629  0.08886837  0.71266046  1  0  0.122631  0.126966  0  1.026342  0
H  H24  1  0.95747086  0.24092730  0.65540839  1  0  0.140358  0.103725  0  0.993075  0
H  H25  1  0.04253033  0.75907283  0.34459174  1  0  0.14037  0.10376  0  0.993049  0
H  H26  1  0.97677772  0.17583023  0.42569115  1  0  0.304725  0.291282  0  1.004428  0
H  H27  1  0.02322225  0.82416990  0.57430892  1  0  0.304728  0.291283  0  1.004414  0
H  H28  1  0.78333943  0.08274281  0.07193624  1  0  0.308395  0.2983  0  1.001632  0
H  H29  1  0.21666051  0.91725733  0.92806131  1  0  0.308406  0.29831  0  1.00165  0
C  C30  1  0.33967913  0.55800825  0.95365588  1  0  -0.090384  -0.117129  0  3.965312  0
C  C31  1  0.66031476  0.44198850  0.04633947  1  0  -0.090317  -0.116991  0  3.965292  0
C  C32  1  0.22510497  0.41652176  0.92284996  1  0  -0.090916  -0.098704  0  4.017544  0
C  C33  1  0.77489102  0.58347383  0.07714931  1  0  -0.090936  -0.098741  0  4.017558  0
C  C34  1  0.13133765  0.38652691  0.00895570  1  0  -0.024545  -0.051488  0  3.98488  0
C  C35  1  0.86866274  0.61347434  0.99104729  1  0  -0.024545  -0.051504  0  3.984851  0
C  C36  1  0.16014230  0.50051029  0.12872373  1  0  -0.082446  -0.079453  0  3.967721  0
C  C37  1  0.83986289  0.49949436  0.87127888  1  0  -0.082411  -0.079376  0  3.967833  0
C  C38  1  0.27540255  0.64313764  0.16004173  1  0  -0.094988  -0.12965  0  3.96431  0
C  C39  1  0.72460143  0.35686363  0.83995636  1  0  -0.095069  -0.129761  0  3.964331  0
C  C40  1  0.36370773  0.67520478  0.07193203  1  0  -0.005328  0.064934  0  4.016405  0
C  C41  1  0.63629142  0.32479310  0.92806390  1  0  -0.005318  0.064968  0  4.016328  0
C  C42  1  0.47740270  0.82529980  0.09773673  1  0  0.076513  0.104954  0  4.040316  0
C  C43  1  0.52259605  0.17469696  0.90225714  1  0  0.076595  0.104987  0  4.040249  0
C  C44  1  0.61800666  0.86192912  0.04535548  1  0  0.011537  -0.084985  0  3.883583  0
C  C45  1  0.38199251  0.13806875  0.95464129  1  0  0.011501  -0.085012  0  3.883589  0
C  C46  1  0.58152055  0.07279250  0.17552823  1  0  0.146362  0.155982  0  3.937117  0
C  C47  1  0.41847984  0.92720537  0.82446944  1  0  0.1463  0.155933  0  3.937079  0
C  C48  1  0.99806138  0.23670447  0.97092943  1  0  0.2099  0.584375  0  4.21298  0
C  C49  1  0.00193819  0.76329791  0.02907557  1  0  0.209924  0.584407  0  4.212932  0
C  C50  1  0.61171009  0.63101012  0.35763310  1  0  -0.087297  -0.115697  0  3.963965  0
C  C51  1  0.38828827  0.36898888  0.64236569  1  0  -0.087311  -0.115739  0  3.963915  0
C  C52  1  0.49710405  0.48956011  0.32813289  1  0  -0.08435  -0.085353  0  3.997518  0
C  C53  1  0.50289347  0.51044002  0.67186624  1  0  -0.084329  -0.08527  0  3.997445  0
C  C54  1  0.34823529  0.47403980  0.37827988  1  0  -0.016904  -0.039012  0  3.961553  0
C  C55  1  0.65176387  0.52596146  0.62172221  1  0  -0.016923  -0.039083  0  3.961704  0
C  C56  1  0.31720183  0.60478028  0.46098970  1  0  -0.083105  -0.089784  0  3.958663  0
C  C57  1  0.68279979  0.39522097  0.53901417  1  0  -0.083124  -0.089738  0  3.958651  0
C  C58  1  0.43269509  0.74731825  0.49142556  1  0  -0.093257  -0.129549  0  3.96468  0
C  C59  1  0.56730613  0.25268187  0.50857709  1  0  -0.09322  -0.129589  0  3.96468  0
C  C60  1  0.58090442  0.76250815  0.43926788  1  0  -0.007735  0.057788  0  4.013847  0
C  C61  1  0.41909676  0.23749198  0.56073224  1  0  -0.007714  0.057862  0  4.013823  0
C  C62  1  0.70434466  0.91020991  0.46795563  1  0  0.07869  0.112105  0  4.031847  0
C  C63  1  0.29565653  0.08979022  0.53204449  1  0  0.078668  0.112054  0  4.031841  0
C  C64  1  0.78349551  0.96254448  0.38739085  1  0  0.006442  -0.092991  0  3.89228  0
C  C65  1  0.21650446  0.03745565  0.61260922  1  0  0.006424  -0.093013  0  3.892273  0
C  C66  1  0.88312896  0.13674376  0.57807533  1  0  0.147213  0.155415  0  3.949501  0
C  C67  1  0.11687346  0.86325637  0.42192568  1  0  0.147166  0.155326  0  3.949594  0
C  C68  1  0.23136556  0.31797377  0.34777296  1  0  0.215478  0.594806  0  4.190609  0
C  C69  1  0.76863404  0.68202523  0.65222756  1  0  0.215482  0.594821  0  4.190705  0
N  N70  1  0.76904030  0.02195445  0.58789124  1  0  -0.359198  -0.359198  0  3.55559  0
N  N71  1  0.23096295  0.97804454  0.41210944  1  0  -0.359162  -0.359147  0  3.555654  0
N  N72  1  0.89458196  0.10437420  0.45852267  1  0  -0.367414  -0.193137  0  3.675831  0
N  N73  1  0.10541801  0.89562593  0.54147740  1  0  -0.367408  -0.19309  0  3.675822  0
N  N74  1  0.45597065  0.96051573  0.17932094  1  0  -0.359991  -0.366784  0  3.562837  0
N  N75  1  0.54403049  0.03948441  0.82067582  1  0  -0.359957  -0.36674  0  3.562848  0
N  N76  1  0.68109075  0.01684278  0.09597807  1  0  -0.364942  -0.185823  0  3.662215  0
N  N77  1  0.31890842  0.98315510  0.90401870  1  0  -0.364963  -0.185886  0  3.662283  0
O  O78  1  0.92581814  0.20779860  0.05203686  1  0  -0.312282  -0.535402  0  2.202313  0
O  O79  1  0.07417567  0.79220832  0.94796855  1  0  -0.312231  -0.535345  0  2.202319  0
O  O80  1  0.96774612  0.14865652  0.85360519  1  0  -0.342896  -0.582531  0  2.383945  0
O  O81  1  0.03225522  0.85134017  0.14640139  1  0  -0.342945  -0.582605  0  2.383895  0
O  O82  1  0.10010941  0.30438011  0.39583298  1  0  -0.319259  -0.546874  0  2.183525  0
O  O83  1  0.89988649  0.69561890  0.60416487  1  0  -0.319284  -0.546885  0  2.183591  0
O  O84  1  0.28063846  0.20897931  0.27366563  1  0  -0.338572  -0.578389  0  2.390397  0
O  O85  1  0.71936030  0.79102082  0.72633523  1  0  -0.338562  -0.578414  0  2.390435  0
