# generated using pymatgen
data_CoH20C27Br4(NO)4
_symmetry_space_group_name_H-M   'P 1'
_cell_length_a   9.84375592
_cell_length_b   11.73648113
_cell_length_c   12.67950000
_cell_angle_alpha   93.54043931
_cell_angle_beta   90.00000000
_cell_angle_gamma   90.00000000
_symmetry_Int_Tables_number   1
_chemical_formula_structural   CoH20C27Br4(NO)4
_chemical_formula_sum   'Co2 H40 C54 Br8 N8 O8'
_cell_volume   1462.08024746
_cell_formula_units_Z   2
loop_
 _symmetry_equiv_pos_site_id
 _symmetry_equiv_pos_as_xyz
  1  'x, y, z'
loop_
 _atom_site_type_symbol
 _atom_site_label
 _atom_site_symmetry_multiplicity
 _atom_site_fract_x
 _atom_site_fract_y
 _atom_site_fract_z
 _atom_site_occupancy
 _atom_site_hle17_ddec_charge
 _atom_site_hle17_ddec_spin_density
 _atom_site_hle17_ddec_sum_bond_order
 _atom_site_hle17_magmom
 _atom_site_hse06_10hf_ddec_charge
 _atom_site_hse06_10hf_ddec_spin_density
 _atom_site_hse06_10hf_ddec_sum_bond_order
 _atom_site_hse06_10hf_magmom
 _atom_site_hse06_ddec_charge
 _atom_site_hse06_ddec_spin_density
 _atom_site_hse06_ddec_sum_bond_order
 _atom_site_hse06_magmom
 _atom_site_pbe_bader_charge
 _atom_site_pbe_bader_spin_density
 _atom_site_pbe_cm5_charge
 _atom_site_pbe_ddec_charge
 _atom_site_pbe_ddec_spin_density
 _atom_site_pbe_ddec_sum_bond_order
 _atom_site_pbe_magmom
Co  Co0  1  0.82734680  0.74999990  0.75000057  1  0.997665  2.807522  1.962308  2.517  0.951587  2.818291  2.405809  2.574  1.043011  2.86809  2.320481  2.67  1.194057  2.550435  0.684372  0.87661  2.769029  2.473158  2.483
Co  Co1  1  0.17265564  0.24999997  0.24999966  1  0.997536  2.807499  1.962527  2.517  0.951549  2.818268  2.405947  2.574  1.042975  2.868074  2.320622  2.67  1.194026  2.5504  0.684337  0.876567  2.768993  2.473283  2.483
H  H2  1  0.62559251  0.02322845  0.07482118  1  0.085866  -1.2e-05  0.949059  0.0  0.099822  -4e-06  1.004204  0.0  0.102449  -4e-06  1.003298  0.0  0.035842  2.7e-05  0.093155  0.097816  -6e-06  1.005098  0.0
H  H3  1  0.62559150  0.47677148  0.42518051  1  0.085775  -1.2e-05  0.949142  0.0  0.099774  -4e-06  1.004241  0.0  0.102381  -4e-06  1.003359  0.0  0.035845  2.7e-05  0.093152  0.097777  -6e-06  1.00512  0.0
H  H4  1  0.37440689  0.97677141  0.92517826  1  0.085851  -1.3e-05  0.949007  0.0  0.099806  -4e-06  1.004153  0.0  0.102432  -4e-06  1.003247  0.0  0.035853  2.7e-05  0.093141  0.097803  -6e-06  1.005045  0.0
H  H5  1  0.37440587  0.52322924  0.57481976  1  0.085824  -1.2e-05  0.949101  0.0  0.099824  -4e-06  1.004191  0.0  0.10243  -4e-06  1.00331  0.0  0.035875  2.7e-05  0.093146  0.097824  -6e-06  1.005074  0.0
H  H6  1  0.06315374  0.83651287  0.63507185  1  0.136729  0.00038  0.960392  0.0  0.15275  0.000967  1.029119  0.0  0.154793  0.000758  1.027774  0.0  0.088451  0.001762  0.104185  0.151178  0.001166  1.030326  0.0
H  H7  1  0.06315374  0.66348693  0.86492849  1  0.13673  0.000376  0.960407  0.0  0.152749  0.000967  1.029134  0.0  0.154793  0.000758  1.027789  0.0  0.088442  0.001762  0.10418  0.151175  0.001166  1.030342  0.0
H  H8  1  0.93684871  0.16348443  0.36492744  1  0.136724  0.000379  0.960424  0.0  0.15274  0.000967  1.029149  0.0  0.154784  0.000758  1.027805  0.0  0.088455  0.001762  0.104183  0.15117  0.001166  1.030354  0.0
H  H9  1  0.93684464  0.33651294  0.13507174  1  0.136743  0.000378  0.960369  0.0  0.152767  0.000967  1.029096  0.0  0.15481  0.000758  1.027752  0.0  0.088457  0.001762  0.104189  0.151194  0.001166  1.030303  0.0
H  H10  1  0.21013829  0.89882676  0.69881118  1  0.13165  -0.000362  0.91755  0.0  0.155436  1.8e-05  0.969737  0.0  0.157881  1.5e-05  0.968789  0.0  0.057411  0.000124  0.103698  0.153491  -1.5e-05  0.970687  0.0
H  H11  1  0.21013829  0.60117218  0.80118911  1  0.131665  -0.000366  0.917571  0.0  0.155451  1.8e-05  0.969754  0.0  0.157896  1.5e-05  0.968807  0.0  0.057406  0.000124  0.103711  0.153503  -1.5e-05  0.970705  0.0
H  H12  1  0.78986314  0.10117310  0.30119141  1  0.131671  -0.000363  0.917581  0.0  0.155435  1.7e-05  0.969783  0.0  0.157882  1.5e-05  0.968832  0.0  0.05744  0.000124  0.103685  0.15349  -1.5e-05  0.970733  0.0
H  H13  1  0.78986010  0.39882768  0.19881033  1  0.131657  -0.000363  0.917556  0.0  0.15545  1.8e-05  0.969736  0.0  0.157894  1.5e-05  0.968789  0.0  0.057391  0.000124  0.103706  0.153503  -1.6e-05  0.970686  0.0
H  H14  1  0.11097390  0.97885693  0.61214790  1  0.15398  -0.00023  0.924383  0.0  0.172936  -2.5e-05  0.982787  0.0  0.176766  -2.5e-05  0.980101  0.0  0.098706  0.000161  0.106515  0.169946  -2.3e-05  0.984998  0.0
H  H15  1  0.11097289  0.52114371  0.88785249  1  0.153987  -0.000233  0.924454  0.0  0.172951  -2.5e-05  0.982845  0.0  0.176781  -2.5e-05  0.98016  0.0  0.098723  0.000161  0.106518  0.169959  -2.4e-05  0.985057  0.0
H  H16  1  0.88902956  0.02114208  0.38785228  1  0.153946  -0.000231  0.924433  0.0  0.172901  -2.5e-05  0.982842  0.0  0.176731  -2.5e-05  0.980157  0.0  0.098721  0.000161  0.1065  0.169911  -2.3e-05  0.985054  0.0
H  H17  1  0.88902651  0.47885700  0.11214778  1  0.153974  -0.000231  0.924409  0.0  0.172937  -2.5e-05  0.982807  0.0  0.176767  -2.5e-05  0.980122  0.0  0.098727  0.000161  0.10651  0.169945  -2.4e-05  0.985021  0.0
H  H18  1  0.68864974  0.86781536  0.94053318  1  0.102114  -0.000254  1.006166  0.0  0.107213  -0.00012  1.077513  0.0  0.110771  -0.000176  1.075353  0.0  0.106547  0.000124  0.093229  0.104511  -4.1e-05  1.079223  0.0
H  H19  1  0.68864974  0.63218528  0.55946879  1  0.102111  -0.000254  1.006168  0.0  0.10722  -0.00012  1.077505  0.0  0.110779  -0.000175  1.075344  0.0  0.106534  0.000125  0.093217  0.104516  -4.1e-05  1.079215  0.0
H  H20  1  0.31134965  0.13218450  0.05946705  1  0.102095  -0.000251  1.006208  0.0  0.107205  -0.00012  1.077542  0.0  0.110763  -0.000177  1.075382  0.0  0.106541  0.000124  0.09322  0.104503  -4.1e-05  1.079251  0.0
H  H21  1  0.31134864  0.36781458  0.44053223  1  0.102057  -0.000254  1.006176  0.0  0.107155  -0.00012  1.077534  0.0  0.110712  -0.000176  1.075375  0.0  0.106548  0.000124  0.093209  0.104452  -4.1e-05  1.079243  0.0
H  H22  1  0.75928132  0.20125777  0.09457188  1  0.080249  -7.2e-05  0.956251  0.0  0.096085  -5e-05  1.010676  0.0  0.09787  -4.4e-05  1.010827  0.0  0.025596  -1.6e-05  0.096388  0.09475  -6.9e-05  1.010765  0.0
H  H23  1  0.75928132  0.29874301  0.40542986  1  0.080247  -7.1e-05  0.95629  0.0  0.096093  -4.9e-05  1.010704  0.0  0.097878  -4.4e-05  1.010856  0.0  0.025605  -1.6e-05  0.096382  0.094748  -6.9e-05  1.010799  0.0
H  H24  1  0.24071808  0.79874209  0.90542756  1  0.080247  -7.3e-05  0.956274  0.0  0.096082  -5e-05  1.010702  0.0  0.097867  -4.5e-05  1.010853  0.0  0.025599  -1.6e-05  0.096394  0.094749  -6.9e-05  1.010791  0.0
H  H25  1  0.24071706  0.70125771  0.59457042  1  0.080224  -7.1e-05  0.95631  0.0  0.096061  -4.9e-05  1.010736  0.0  0.097846  -4.4e-05  1.010887  0.0  0.025624  -1.6e-05  0.096378  0.094725  -6.9e-05  1.010822  0.0
H  H26  1  0.19407023  0.11958940  0.73015765  1  0.080541  -3.9e-05  0.920283  0.0  0.098359  -2.6e-05  0.978847  0.0  0.098795  -2.5e-05  0.97888  0.0  0.072417  5.2e-05  0.113176  0.097939  -1.6e-05  0.978878  0.0
H  H27  1  0.19407023  0.38041053  0.76984246  1  0.080596  -3.7e-05  0.920357  0.0  0.098429  -2.6e-05  0.978892  0.0  0.098865  -2.5e-05  0.978926  0.0  0.072404  5.2e-05  0.113212  0.098008  -1.6e-05  0.978923  0.0
H  H28  1  0.80592917  0.88041046  0.26984100  1  0.08055  -3.7e-05  0.920296  0.0  0.098387  -2.6e-05  0.978857  0.0  0.098821  -2.6e-05  0.978893  0.0  0.072402  5.2e-05  0.113201  0.097967  -1.6e-05  0.978887  0.0
H  H29  1  0.80592713  0.61958933  0.23015777  1  0.080604  -3.8e-05  0.920277  0.0  0.098426  -2.6e-05  0.978852  0.0  0.098862  -2.5e-05  0.978884  0.0  0.072371  5.2e-05  0.113213  0.098004  -1.6e-05  0.978882  0.0
H  H30  1  0.17833335  0.18063815  0.86161677  1  0.077243  4.5e-05  0.94892  0.0  0.086293  5.7e-05  1.023857  0.0  0.087008  3.1e-05  1.024155  0.0  0.094106  0.000275  0.102005  0.085602  9e-05  1.023882  0.0
H  H31  1  0.17833335  0.31936178  0.63838413  1  0.077256  4.6e-05  0.948921  0.0  0.086323  5.7e-05  1.023847  0.0  0.087038  3.1e-05  1.024145  0.0  0.094112  0.000275  0.102015  0.085629  9e-05  1.023874  0.0
H  H32  1  0.82166605  0.81936172  0.13838346  1  0.077245  4.6e-05  0.948917  0.0  0.086312  5.7e-05  1.023854  0.0  0.087028  3.1e-05  1.024152  0.0  0.094092  0.000275  0.102012  0.08562  9e-05  1.02388  0.0
H  H33  1  0.82166605  0.68063893  0.36161693  1  0.077248  4.6e-05  0.948892  0.0  0.086315  5.7e-05  1.023831  0.0  0.08703  3.1e-05  1.024128  0.0  0.09409  0.000276  0.102005  0.085623  9e-05  1.023854  0.0
H  H34  1  0.96136577  0.23189441  0.97994625  1  0.116603  0.000154  0.962913  0.0  0.126188  0.000117  1.02613  0.0  0.129458  6.6e-05  1.023953  0.0  0.112226  0.000473  0.10513  0.12393  0.000178  1.027629  0.0
H  H35  1  0.96136577  0.26810553  0.52005465  1  0.1166  0.000154  0.96286  0.0  0.126166  0.000117  1.026112  0.0  0.129434  6.6e-05  1.023939  0.0  0.112236  0.000472  0.105116  0.123904  0.000178  1.027613  0.0
H  H36  1  0.03863464  0.76810546  0.02005240  1  0.116615  0.000155  0.962948  0.0  0.126198  0.000117  1.02617  0.0  0.129466  6.6e-05  1.023996  0.0  0.112229  0.000472  0.105128  0.123939  0.000178  1.02767  0.0
H  H37  1  0.03863261  0.73189434  0.47994637  1  0.1166  0.000154  0.962886  0.0  0.126188  0.000117  1.026104  0.0  0.129456  6.6e-05  1.023929  0.0  0.112229  0.000473  0.105141  0.123927  0.000178  1.027604  0.0
H  H38  1  0.97091192  0.21533826  0.68604355  1  0.07496  -2e-06  0.966121  0.0  0.090411  1.2e-05  1.033576  0.0  0.091494  7e-06  1.033414  0.0  0.035344  5.8e-05  0.088039  0.089542  2.1e-05  1.033848  0.0
H  H39  1  0.97091294  0.28466252  0.81395661  1  0.074967  -2e-06  0.966118  0.0  0.090398  1.2e-05  1.033593  0.0  0.09148  7e-06  1.033432  0.0  0.035338  5.8e-05  0.088019  0.089528  2.1e-05  1.033866  0.0
H  H40  1  0.02908646  0.78466160  0.31395589  1  0.074925  1e-06  0.966132  0.0  0.090361  1.2e-05  1.033617  0.0  0.091443  7e-06  1.033456  0.0  0.035364  5.7e-05  0.087999  0.089492  2.1e-05  1.033892  0.0
H  H41  1  0.02908544  0.71533734  0.18604362  1  0.074914  -0.0  0.966142  0.0  0.090355  1.2e-05  1.033618  0.0  0.091437  7e-06  1.033457  0.0  0.035354  5.7e-05  0.087993  0.089485  2.1e-05  1.033893  0.0
C  C42  1  0.85979275  0.96339349  0.88465649  1  0.150479  -0.000902  3.841744  0.0  0.149535  0.001867  4.09368  0.003  0.154386  0.001372  4.117534  0.002  0.336578  0.003747  0.079341  0.145759  0.002347  4.07736  0.003
C  C43  1  0.85979174  0.53660630  0.61534464  1  0.150479  -0.00089  3.841747  0.0  0.149513  0.001867  4.093687  0.003  0.154365  0.001373  4.117542  0.002  0.336692  0.003747  0.079361  0.145737  0.002347  4.077364  0.003
C  C44  1  0.14020766  0.03660552  0.11534369  1  0.150557  -0.000879  3.841749  0.0  0.149563  0.001866  4.093711  0.003  0.154415  0.001373  4.117566  0.002  0.33658  0.003747  0.079356  0.145786  0.002346  4.077387  0.003
C  C45  1  0.14020665  0.46339271  0.38465554  1  0.150488  -0.00089  3.841754  0.0  0.149545  0.001864  4.093695  0.003  0.154398  0.001374  4.11755  0.002  0.336688  0.003747  0.079343  0.145767  0.002346  4.077372  0.003
C  C46  1  0.48555145  0.11176207  0.54244655  1  0.030933  0.000833  3.70767  0.001  0.031404  0.000957  3.982986  0.001  0.034566  0.000573  4.002275  0.001  -0.058113  0.002746  -0.026015  0.029092  0.001358  3.970413  0.001
C  C47  1  0.48555247  0.38823786  0.95755278  1  0.03093  0.000842  3.707634  0.001  0.031378  0.000957  3.982979  0.001  0.034539  0.000572  4.002268  0.001  -0.058112  0.002747  -0.026029  0.029066  0.001358  3.970405  0.001
C  C48  1  0.51445201  0.88823182  0.45755255  1  0.030919  0.000846  3.707792  0.001  0.031333  0.000958  3.983192  0.001  0.034496  0.000573  4.002479  0.001  -0.057903  0.002747  -0.026098  0.029021  0.001359  3.970621  0.001
C  C49  1  0.51444896  0.61176968  0.04244789  1  0.030923  0.000849  3.707726  0.001  0.031324  0.000956  3.983134  0.001  0.034486  0.000572  4.002423  0.001  -0.058065  0.002747  -0.026084  0.029013  0.001359  3.970562  0.001
C  C50  1  0.01855593  0.95441712  0.76251321  1  0.417197  -0.006569  3.682711  -0.004  0.390548  0.002155  3.966624  0.003  0.412121  0.001732  3.979166  0.002  0.984222  0.003709  0.234274  0.375252  0.002271  3.957809  0.003
C  C51  1  0.01855593  0.54558268  0.73748714  1  0.417267  -0.006564  3.682642  -0.004  0.390639  0.002154  3.966538  0.003  0.412213  0.001731  3.979078  0.002  0.984205  0.003709  0.234293  0.375341  0.002272  3.957722  0.003
C  C52  1  0.98144551  0.04558275  0.23748702  1  0.417186  -0.006566  3.682708  -0.004  0.390515  0.002153  3.966625  0.003  0.412088  0.00173  3.97917  0.002  0.984257  0.003709  0.234279  0.37522  0.002271  3.957804  0.003
C  C53  1  0.98144347  0.45441633  0.26251304  1  0.417264  -0.006537  3.682668  -0.004  0.390608  0.002152  3.96657  0.003  0.412182  0.00173  3.979112  0.002  0.98422  0.003709  0.23429  0.375312  0.002272  3.95775  0.003
C  C54  1  0.93281772  0.06699373  0.89445834  1  0.106429  0.002064  3.773699  0.003  0.099443  0.001126  4.011567  0.002  0.103096  0.000678  4.033473  0.001  0.317308  0.00326  0.088271  0.097229  0.00161  3.996564  0.003
C  C55  1  0.93281671  0.43300535  0.60554251  1  0.106434  0.002057  3.773693  0.003  0.099516  0.001127  4.01148  0.002  0.10317  0.000678  4.033385  0.001  0.31722  0.00326  0.08827  0.097299  0.00161  3.996477  0.003
C  C56  1  0.06718371  0.93300443  0.10554258  1  0.106317  0.002054  3.773848  0.003  0.099427  0.001128  4.011551  0.002  0.103081  0.000679  4.033452  0.001  0.317427  0.00326  0.088242  0.097212  0.00161  3.996549  0.003
C  C57  1  0.06718167  0.56699451  0.39445851  1  0.106382  0.002058  3.773732  0.003  0.099385  0.001127  4.011593  0.002  0.103039  0.000678  4.033493  0.001  0.317168  0.003261  0.088245  0.097168  0.00161  3.996593  0.003
C  C58  1  0.60973474  0.93203295  0.53124200  1  -0.096296  0.004841  3.73832  0.007  -0.094535  0.002865  3.989803  0.004  -0.096412  0.001645  4.005325  0.002  0.147115  0.008143  -0.024117  -0.093636  0.004273  3.979987  0.006
C  C59  1  0.60973373  0.56796770  0.96875760  1  -0.096275  0.004837  3.738199  0.007  -0.094524  0.002868  3.989697  0.004  -0.096401  0.001647  4.005219  0.002  0.146834  0.008142  -0.024127  -0.093623  0.004273  3.97988  0.006
C  C60  1  0.39026669  0.06796265  0.46875640  1  -0.096269  0.004852  3.738174  0.007  -0.094518  0.002867  3.989619  0.004  -0.096396  0.001646  4.00514  0.002  0.146834  0.008145  -0.024119  -0.093618  0.004274  3.979803  0.006
C  C61  1  0.39026669  0.43203814  0.03124376  1  -0.096178  0.004845  3.738084  0.007  -0.094423  0.002867  3.989497  0.004  -0.0963  0.001647  4.00502  0.002  0.147019  0.008146  -0.024076  -0.093523  0.004274  3.979678  0.006
C  C62  1  0.72648083  0.85947156  0.56770245  1  0.643981  -0.005706  3.972112  -0.006  0.594769  0.001995  4.289903  0.001  0.630844  0.001212  4.283512  0.001  1.622813  0.002703  0.195791  0.569122  0.00285  4.292863  0.001
C  C63  1  0.72647880  0.64052994  0.93229720  1  0.643957  -0.005699  3.972156  -0.006  0.594743  0.001995  4.289965  0.001  0.630818  0.001212  4.283576  0.001  1.622811  0.002703  0.195764  0.569096  0.002851  4.292924  0.001
C  C64  1  0.27351958  0.14052916  0.43229468  1  0.643954  -0.005699  3.971988  -0.006  0.594765  0.001995  4.289756  0.001  0.630841  0.001211  4.283368  0.001  1.623041  0.002701  0.195771  0.569113  0.00285  4.29272  0.001
C  C65  1  0.27351450  0.35946821  0.06770293  1  0.643966  -0.005688  3.972198  -0.006  0.59479  0.001996  4.289933  0.001  0.630863  0.001211  4.283548  0.001  1.623054  0.002702  0.195835  0.569143  0.002852  4.292888  0.001
C  C66  1  0.71370421  0.03339570  0.02408407  1  -0.085361  -0.00145  3.808201  -0.001  -0.103998  -0.000211  4.072069  0.0  -0.105908  -0.000149  4.09412  0.0  -0.01064  -0.000209  -0.108567  -0.103055  -0.000305  4.057409  0.0
C  C67  1  0.71370319  0.46660423  0.47591762  1  -0.08522  -0.001446  3.808183  -0.001  -0.103886  -0.000212  4.072061  0.0  -0.105779  -0.000149  4.094117  0.0  -0.010634  -0.000209  -0.108545  -0.102954  -0.000306  4.05739  0.0
C  C68  1  0.28629519  0.96660331  0.97591611  1  -0.08529  -0.001424  3.808212  -0.001  -0.103923  -0.00021  4.072071  0.0  -0.105833  -0.000148  4.094123  0.0  -0.010646  -0.000209  -0.10853  -0.10298  -0.000306  4.057407  0.0
C  C69  1  0.28629418  0.53339564  0.52408340  1  -0.085359  -0.001452  3.808227  -0.001  -0.104034  -0.000211  4.072122  0.0  -0.105927  -0.000149  4.094176  0.0  -0.010627  -0.000209  -0.10856  -0.103099  -0.000305  4.057455  0.0
C  C70  1  0.59399888  0.04433382  0.57363630  1  0.029479  0.000829  3.705079  0.001  0.032043  0.000886  3.977194  0.001  0.035035  0.000541  3.996863  0.001  -0.099811  0.002786  -0.025906  0.029875  0.001374  3.964241  0.001
C  C71  1  0.59399888  0.45566782  0.92636312  1  0.029461  0.000828  3.705038  0.001  0.032034  0.000885  3.977165  0.001  0.035025  0.000542  3.996834  0.001  -0.099836  0.002786  -0.0259  0.029866  0.001374  3.964211  0.001
C  C72  1  0.40600560  0.95566177  0.42636368  1  0.029468  0.000817  3.705118  0.001  0.032039  0.000885  3.977266  0.001  0.03503  0.000541  3.996935  0.001  -0.099942  0.002785  -0.02593  0.029871  0.001374  3.964312  0.001
C  C73  1  0.40600153  0.54433973  0.07363676  1  0.029429  0.000821  3.705117  0.001  0.032041  0.000886  3.977207  0.001  0.035032  0.000541  3.996877  0.001  -0.099766  0.002785  -0.025895  0.029873  0.001374  3.964254  0.001
C  C74  1  0.10578990  0.91520534  0.67223132  1  -0.398806  0.000227  3.689701  0.001  -0.47875  0.000983  3.926803  0.001  -0.483616  0.000789  3.930155  0.001  -0.062668  0.00223  -0.228142  -0.475031  0.001171  3.924915  0.002
C  C75  1  0.10579092  0.58479531  0.82776987  1  -0.398864  0.000235  3.689779  0.001  -0.478821  0.000983  3.92688  0.001  -0.483687  0.000789  3.930231  0.001  -0.062689  0.002229  -0.228177  -0.475101  0.001171  3.924994  0.002
C  C76  1  0.89421051  0.08479453  0.32777049  1  -0.39878  0.000228  3.689803  0.001  -0.478706  0.000983  3.926907  0.001  -0.483575  0.000789  3.930256  0.001  -0.062729  0.002229  -0.228129  -0.474987  0.001171  3.925018  0.002
C  C77  1  0.89420848  0.41520541  0.17223120  1  -0.398845  0.00023  3.689708  0.001  -0.478814  0.000984  3.926816  0.001  -0.48368  0.000788  3.930167  0.001  -0.062705  0.002229  -0.228172  -0.475095  0.001171  3.924926  0.002
C  C78  1  0.74768311  0.94610148  0.94942146  1  -0.143382  0.001122  3.746343  0.002  -0.164786  0.000371  4.001257  0.001  -0.167793  0.00014  4.020783  0.0  -0.034984  0.001453  -0.100238  -0.162504  0.000711  3.988154  0.001
C  C79  1  0.74768209  0.55389916  0.55057894  1  -0.143433  0.00112  3.746352  0.002  -0.164852  0.000372  4.001293  0.001  -0.167858  0.00014  4.020808  0.0  -0.035003  0.001454  -0.100271  -0.162573  0.000711  3.988192  0.001
C  C80  1  0.25231934  0.05389923  0.05057882  1  -0.143445  0.001102  3.746402  0.002  -0.164859  0.000371  4.001331  0.001  -0.167867  0.000141  4.020853  0.0  -0.034888  0.001454  -0.100269  -0.162586  0.000711  3.988252  0.001
C  C81  1  0.25231629  0.44610070  0.44942129  1  -0.143274  0.001121  3.746253  0.002  -0.164678  0.000372  4.001177  0.001  -0.167685  0.000139  4.020697  0.0  -0.035001  0.001454  -0.100211  -0.162397  0.000711  3.988074  0.001
C  C82  1  0.78946492  0.13518345  0.03501762  1  -0.071645  0.000626  3.800488  0.001  -0.09299  -8.2e-05  4.066317  0.0  -0.095208  -0.0002  4.089647  0.0  -0.001866  0.000354  -0.103945  -0.091225  6.8e-05  4.050427  0.0
C  C83  1  0.78946391  0.36481562  0.46498323  1  -0.071638  0.000618  3.800479  0.001  -0.092997  -8.2e-05  4.066325  0.0  -0.095214  -0.0002  4.089648  0.0  -0.001883  0.000354  -0.103938  -0.091229  6.9e-05  4.050437  0.0
C  C84  1  0.21053651  0.86481641  0.96498182  1  -0.071629  0.000621  3.800418  0.001  -0.092977  -8e-05  4.066253  0.0  -0.095195  -0.0002  4.089581  0.0  -0.001894  0.000354  -0.103935  -0.091209  6.9e-05  4.050362  0.0
C  C85  1  0.21053448  0.63518338  0.53501695  1  -0.07166  0.000621  3.800518  0.001  -0.093012  -8e-05  4.066367  0.0  -0.095229  -0.000199  4.089688  0.0  -0.001912  0.000354  -0.103972  -0.091249  6.8e-05  4.050476  0.0
C  C86  1  0.12137745  0.15225692  0.79020389  1  0.021302  0.000507  3.60481  0.001  -0.037073  0.000428  3.856919  0.001  -0.032677  0.00031  3.868269  0.0  0.29305  0.000897  -0.051459  -0.039957  0.000554  3.849439  0.001
C  C87  1  0.12137847  0.34774386  0.70979628  1  0.021213  0.0005  3.604934  0.001  -0.037172  0.000427  3.857026  0.001  -0.032777  0.00031  3.868377  0.0  0.293053  0.000897  -0.051504  -0.040056  0.000554  3.849544  0.001
C  C88  1  0.87862093  0.84774209  0.20979550  1  0.021343  0.000502  3.604787  0.001  -0.037107  0.000428  3.856935  0.001  -0.032712  0.00031  3.868286  0.0  0.29301  0.000897  -0.051488  -0.039989  0.000553  3.849458  0.001
C  C89  1  0.87861992  0.65225685  0.29020400  1  0.021264  0.000506  3.604745  0.001  -0.03717  0.000428  3.856896  0.001  -0.032774  0.00031  3.868243  0.0  0.29307  0.000897  -0.051485  -0.040052  0.000554  3.849418  0.001
C  C90  1  0.90086346  0.15407354  0.97058218  1  -0.148101  -0.000372  3.742902  0.0  -0.170572  0.000149  4.004751  0.0  -0.173193  5.9e-05  4.024779  0.0  -0.000742  0.000634  -0.098958  -0.168548  0.000267  3.990846  0.0
C  C91  1  0.90086244  0.34592725  0.52941798  1  -0.148072  -0.000358  3.742861  0.0  -0.170553  0.000149  4.004719  0.0  -0.173174  6e-05  4.024748  0.0  -0.000731  0.000634  -0.098924  -0.168532  0.000268  3.990815  0.0
C  C92  1  0.09913594  0.84592547  0.02941721  1  -0.148057  -0.000359  3.742835  0.0  -0.170558  0.000148  4.004644  0.0  -0.173179  5.8e-05  4.024672  0.0  -0.000753  0.000634  -0.098915  -0.168535  0.000267  3.990741  0.0
C  C93  1  0.09913594  0.65407262  0.47058146  1  -0.14796  -0.000366  3.742858  0.0  -0.170429  0.000148  4.004695  0.0  -0.173048  5.9e-05  4.024723  0.0  -0.000736  0.000634  -0.098882  -0.168409  0.000267  3.990793  0.0
C  C94  1  0.03705496  0.24999997  0.75000045  1  -0.147942  0.000191  3.647592  0.0  -0.191008  0.000285  3.903733  0.0  -0.192716  0.000201  3.915375  0.0  0.007796  0.00068  -0.166453  -0.189809  0.00037  3.896018  0.0
C  C95  1  0.96294342  0.74999990  0.24999978  1  -0.147882  0.000186  3.647618  0.0  -0.190926  0.000285  3.90379  0.0  -0.192635  0.000202  3.915432  0.0  0.007786  0.00068  -0.166404  -0.189719  0.00037  3.896055  0.0
Br  Br96  1  0.46797788  0.26474717  0.59832162  1  -0.025092  0.000101  1.419806  0.0  -0.019528  0.000243  1.696221  0.0  -0.021955  0.0001  1.688578  0.0  -0.031296  0.001176  0.076118  -0.017455  0.000478  1.701554  0.001
Br  Br97  1  0.46798194  0.23525276  0.90167929  1  -0.025107  0.0001  1.419824  0.0  -0.019535  0.000244  1.696242  0.0  -0.021961  0.0001  1.688599  0.0  -0.030935  0.001176  0.076115  -0.017459  0.000478  1.701575  0.001
Br  Br98  1  0.53202152  0.73524927  0.40167842  1  -0.025059  0.000101  1.419865  0.0  -0.019472  0.000243  1.696301  0.0  -0.021899  0.0001  1.688656  0.0  -0.030985  0.001177  0.076163  -0.017401  0.000479  1.701636  0.001
Br  Br99  1  0.53201949  0.76475137  0.09832277  1  -0.025057  0.0001  1.419911  0.0  -0.019462  0.000243  1.696336  0.0  -0.021889  0.0001  1.688694  0.0  -0.031211  0.001177  0.076168  -0.017387  0.000479  1.70167  0.001
Br  Br100  1  0.71971817  0.10278399  0.67622493  1  -0.010069  -0.000292  1.451601  0.0  -0.010479  -0.000192  1.732625  0.0  -0.013294  -0.000299  1.727409  0.0  -0.023682  0.00081  0.072735  -0.008393  -1.7e-05  1.736394  0.001
Br  Br101  1  0.71972122  0.39721680  0.82377523  1  -0.010087  -0.000292  1.45159  0.0  -0.010494  -0.000192  1.732604  0.0  -0.013309  -0.000299  1.727388  0.0  -0.023428  0.00081  0.072717  -0.008404  -1.7e-05  1.736372  0.001
Br  Br102  1  0.28028224  0.89721246  0.32377510  1  -0.010101  -0.000293  1.451594  0.0  -0.010507  -0.000192  1.732622  0.0  -0.013322  -0.000299  1.727405  0.0  -0.023709  0.000809  0.072728  -0.00842  -1.8e-05  1.736391  0.001
Br  Br103  1  0.28027818  0.60278733  0.17622445  1  -0.010109  -0.000293  1.451589  0.0  -0.010531  -0.000192  1.732606  0.0  -0.013347  -0.000298  1.72739  0.0  -0.023388  0.000809  0.072695  -0.00844  -1.8e-05  1.736373  0.001
N  N104  1  0.91720072  0.89408887  0.80274636  1  -0.514707  0.039125  3.257311  0.057  -0.483542  0.028408  3.584649  0.031  -0.51712  0.021924  3.594161  0.022  -1.188999  0.064793  -0.368883  -0.458229  0.034237  3.578307  0.038
N  N105  1  0.91720072  0.60591092  0.69725398  1  -0.51473  0.03912  3.257294  0.057  -0.483568  0.028408  3.584634  0.031  -0.517147  0.021924  3.594145  0.022  -1.189002  0.064794  -0.368896  -0.458256  0.034238  3.578291  0.038
N  N106  1  0.08280274  0.10591099  0.19725308  1  -0.514731  0.039122  3.25736  0.057  -0.483583  0.02841  3.584729  0.031  -0.517162  0.021925  3.594238  0.022  -1.189009  0.064798  -0.368896  -0.458264  0.034241  3.578375  0.038
N  N107  1  0.08279970  0.39408894  0.30274625  1  -0.514759  0.039113  3.257373  0.057  -0.483623  0.028411  3.584738  0.031  -0.517199  0.021925  3.594239  0.022  -1.189015  0.064799  -0.368902  -0.458305  0.034241  3.578379  0.038
N  N108  1  0.03195630  0.05860212  0.81614122  1  -0.173847  0.002081  3.46541  0.004  -0.086832  0.00218  3.679521  0.004  -0.104876  0.001594  3.703438  0.003  -1.223294  0.006173  -0.238748  -0.074716  0.002781  3.663358  0.005
N  N109  1  0.03195630  0.44139867  0.68385973  1  -0.173871  0.002083  3.4654  0.004  -0.086916  0.002179  3.679539  0.004  -0.104962  0.001593  3.703456  0.003  -1.223298  0.006174  -0.238763  -0.074798  0.002781  3.663371  0.005
N  N110  1  0.96804412  0.94139860  0.18385827  1  -0.173881  0.002084  3.465433  0.004  -0.08682  0.002181  3.67946  0.004  -0.104862  0.001595  3.703374  0.003  -1.223419  0.006173  -0.23875  -0.074707  0.00278  3.663299  0.005
N  N111  1  0.96804208  0.55860120  0.31614050  1  -0.173923  0.002079  3.465389  0.004  -0.08686  0.00218  3.679468  0.004  -0.104903  0.001593  3.703381  0.003  -1.223235  0.006173  -0.238771  -0.074748  0.002781  3.663309  0.005
O  O112  1  0.69652682  0.80931313  0.65257464  1  -0.610811  0.055723  2.077653  0.096  -0.57389  0.0406  2.355419  0.064  -0.61773  0.029676  2.342374  0.047  -1.13094  0.102042  -0.324916  -0.538558  0.051331  2.362484  0.079
O  O113  1  0.69652580  0.69068838  0.84742501  1  -0.610787  0.055721  2.077689  0.096  -0.573863  0.040599  2.35546  0.064  -0.617704  0.029674  2.342415  0.047  -1.130978  0.102041  -0.324901  -0.538532  0.05133  2.362525  0.079
O  O114  1  0.30347766  0.19068588  0.34741923  1  -0.610741  0.055723  2.077584  0.096  -0.573862  0.0406  2.355351  0.064  -0.617705  0.029676  2.342305  0.047  -1.131042  0.102052  -0.324923  -0.538528  0.051334  2.362415  0.079
O  O115  1  0.30347867  0.30931490  0.15258173  1  -0.61073  0.05573  2.07755  0.096  -0.57386  0.040606  2.355299  0.064  -0.617705  0.029679  2.342254  0.047  -1.131032  0.102065  -0.324922  -0.538522  0.051341  2.362359  0.079
O  O116  1  0.83474540  0.85423342  0.51711399  1  -0.586501  0.003725  1.884816  0.007  -0.54656  0.005041  2.104818  0.008  -0.572706  0.003559  2.098852  0.006  -1.161891  0.014069  -0.311094  -0.527129  0.006778  2.108004  0.011
O  O117  1  0.83474439  0.64576808  0.98288803  1  -0.5865  0.003726  1.884787  0.007  -0.546545  0.005042  2.10478  0.008  -0.572689  0.003559  2.09881  0.006  -1.161847  0.01407  -0.311071  -0.527114  0.006779  2.107966  0.011
O  O118  1  0.16525400  0.14575791  0.48288576  1  -0.586454  0.003722  1.884839  0.007  -0.546482  0.005041  2.104761  0.008  -0.572627  0.003559  2.098796  0.006  -1.161812  0.014069  -0.311005  -0.527049  0.006778  2.107948  0.011
O  O119  1  0.16526009  0.35424032  0.01711268  1  -0.586465  0.003719  1.885186  0.006  -0.546522  0.00504  2.105137  0.008  -0.572663  0.003558  2.09917  0.006  -1.161863  0.014064  -0.311062  -0.527095  0.006776  2.108325  0.011
