# generated using pymatgen
data_PrH6C7O9
_symmetry_space_group_name_H-M   'P 1'
_cell_length_a   7.63875708
_cell_length_b   9.49582903
_cell_length_c   14.79942955
_cell_angle_alpha   90.00016469
_cell_angle_beta   103.57507909
_cell_angle_gamma   89.99949746
_symmetry_Int_Tables_number   1
_chemical_formula_structural   PrH6C7O9
_chemical_formula_sum   'Pr4 H24 C28 O36'
_cell_volume   1043.50625509
_cell_formula_units_Z   4
loop_
 _symmetry_equiv_pos_site_id
 _symmetry_equiv_pos_as_xyz
  1  'x, y, z'
loop_
 _atom_site_type_symbol
 _atom_site_label
 _atom_site_symmetry_multiplicity
 _atom_site_fract_x
 _atom_site_fract_y
 _atom_site_fract_z
 _atom_site_occupancy
 _atom_site_hle17_bader_spin_density
 _atom_site_hle17_ddec_charge
 _atom_site_hle17_ddec_spin_density
 _atom_site_hle17_ddec_sum_bond_order
 _atom_site_hle17_magmom
 _atom_site_hse06_10hf_bader_spin_density
 _atom_site_hse06_10hf_ddec_charge
 _atom_site_hse06_10hf_ddec_spin_density
 _atom_site_hse06_10hf_ddec_sum_bond_order
 _atom_site_hse06_10hf_magmom
 _atom_site_hse06_bader_spin_density
 _atom_site_hse06_ddec_charge
 _atom_site_hse06_ddec_spin_density
 _atom_site_hse06_ddec_sum_bond_order
 _atom_site_hse06_magmom
 _atom_site_pbe_bader_spin_density
 _atom_site_pbe_cm5_charge
 _atom_site_pbe_ddec_charge
 _atom_site_pbe_ddec_spin_density
 _atom_site_pbe_ddec_sum_bond_order
 _atom_site_pbe_magmom
Pr  Pr0  1  0.61707891  0.44734660  0.35275535  1  0  2.336359  0  1.65614  0  0  2.220683  0  2.046855  0  0  2.25827  0  2.001002  0  0  1.497812  2.150316  0  2.159373  0
Pr  Pr1  1  0.88292050  0.94735632  0.14724213  1  0  2.336323  0  1.656136  0  0  2.220639  0  2.04685  0  0  2.258227  0  2.000997  0  0  1.497847  2.150244  0  2.159454  0
Pr  Pr2  1  0.38293048  0.55264379  0.64724385  1  0  2.336335  0  1.65609  0  0  2.220641  0  2.046799  0  0  2.258232  0  2.000946  0  0  1.497843  2.150294  0  2.159325  0
Pr  Pr3  1  0.11706748  0.05264988  0.85275687  1  0  2.336304  0  1.656156  0  0  2.220619  0  2.046861  0  0  2.25821  0  2.001009  0  0  1.497811  2.15026  0  2.159395  0
H  H4  1  0.71729782  0.96426963  0.63376727  1  0  0.133949  0  0.949519  0  0  0.144366  0  1.007798  0  0  0.148091  0  1.005183  0  0  0.117867  0.141565  0  1.009938  0
H  H5  1  0.78270816  0.46429040  0.86623469  1  0  0.133892  0  0.949647  0  0  0.144373  0  1.007871  0  0  0.148101  0  1.005248  0  0  0.117843  0.141566  0  1.010013  0
H  H6  1  0.28271161  0.03571129  0.36623261  1  0  0.13396  0  0.949514  0  0  0.144321  0  1.007891  0  0  0.148047  0  1.005271  0  0  0.117829  0.141521  0  1.01002  0
H  H7  1  0.21729602  0.53573264  0.13376668  1  0  0.134029  0  0.949395  0  0  0.144392  0  1.007747  0  0  0.148118  0  1.005131  0  0  0.117868  0.141589  0  1.009882  0
H  H8  1  0.83476031  0.19259128  0.55221559  1  0  0.139522  0  0.962096  0  0  0.146645  0  1.02317  0  0  0.150381  0  1.021012  0  0  0.116716  0.143706  0  1.025245  0
H  H9  1  0.66522860  0.69260913  0.94778752  1  0  0.13944  0  0.962235  0  0  0.146611  0  1.023261  0  0  0.150345  0  1.021107  0  0  0.116671  0.143669  0  1.025326  0
H  H10  1  0.16523319  0.80739596  0.44778602  1  0  0.13943  0  0.962265  0  0  0.146632  0  1.023255  0  0  0.15037  0  1.021097  0  0  0.116676  0.143689  0  1.025321  0
H  H11  1  0.33477181  0.30741180  0.05221751  1  0  0.13955  0  0.962064  0  0  0.146623  0  1.0232  0  0  0.150359  0  1.021044  0  0  0.116684  0.143684  0  1.025268  0
H  H12  1  0.19323538  0.43957401  0.28760045  1  0  0.443571  0  0.790798  0  0  0.429581  0  0.836734  0  0  0.437272  0  0.828592  0  0  0.341735  0.423856  0  0.842423  0
H  H13  1  0.30676521  0.93957191  0.21239810  1  0  0.443599  0  0.790736  0  0  0.429609  0  0.836668  0  0  0.437299  0  0.828527  0  0  0.341747  0.423891  0  0.842353  0
H  H14  1  0.80676616  0.56042270  0.71240131  1  0  0.44354  0  0.790761  0  0  0.429571  0  0.836648  0  0  0.437262  0  0.828508  0  0  0.341753  0.423851  0  0.842331  0
H  H15  1  0.69321977  0.06043533  0.78759585  1  0  0.443473  0  0.790933  0  0  0.429443  0  0.836949  0  0  0.437132  0  0.828814  0  0  0.341644  0.423723  0  0.842629  0
H  H16  1  0.25753596  0.54828906  0.36714777  1  0  0.432386  0  0.866775  0  0  0.398637  0  0.938346  0  0  0.410043  0  0.921575  0  0  0.305155  0.390665  0  0.949915  0
H  H17  1  0.24246369  0.04829223  0.13285409  1  0  0.432373  0  0.866821  0  0  0.398621  0  0.938379  0  0  0.410026  0  0.921611  0  0  0.305156  0.390651  0  0.949949  0
H  H18  1  0.74247774  0.45170449  0.63285594  1  0  0.432405  0  0.866861  0  0  0.398666  0  0.93836  0  0  0.410076  0  0.921583  0  0  0.30516  0.390698  0  0.949924  0
H  H19  1  0.75752016  0.95172029  0.86714313  1  0  0.432479  0  0.866686  0  0  0.398735  0  0.938232  0  0  0.410142  0  0.921461  0  0  0.305168  0.39077  0  0.949792  0
H  H20  1  0.52810507  0.20867650  0.19156540  1  0  0.449825  0  0.833898  0  0  0.422267  0  0.890896  0  0  0.432969  0  0.875069  0  0  0.312358  0.414346  0  0.902514  0
H  H21  1  0.97188589  0.70868315  0.30842743  1  0  0.449901  0  0.833801  0  0  0.422324  0  0.890831  0  0  0.433024  0  0.875005  0  0  0.312369  0.414404  0  0.902446  0
H  H22  1  0.47188937  0.79131810  0.80843022  1  0  0.449791  0  0.833945  0  0  0.422236  0  0.890938  0  0  0.432935  0  0.875117  0  0  0.312336  0.414318  0  0.902551  0
H  H23  1  0.02810707  0.29131146  0.69156601  1  0  0.449833  0  0.833867  0  0  0.422287  0  0.890845  0  0  0.432986  0  0.875023  0  0  0.312358  0.41437  0  0.902458  0
H  H24  1  0.37895189  0.19212673  0.24520532  1  0  0.438006  0  0.840911  0  0  0.414774  0  0.893826  0  0  0.4247  0  0.878993  0  0  0.311677  0.40733  0  0.904888  0
H  H25  1  0.12104878  0.69212192  0.25479486  1  0  0.437961  0  0.841  0  0  0.414733  0  0.893886  0  0  0.424659  0  0.879055  0  0  0.311662  0.407294  0  0.90494  0
H  H26  1  0.62104686  0.80787525  0.75479480  1  0  0.438017  0  0.840923  0  0  0.414789  0  0.893806  0  0  0.424716  0  0.878973  0  0  0.311689  0.407352  0  0.904858  0
H  H27  1  0.87894153  0.30787480  0.74519898  1  0  0.438001  0  0.840989  0  0  0.414769  0  0.893847  0  0  0.424696  0  0.879012  0  0  0.311657  0.40733  0  0.9049  0
C  C28  1  0.59760572  0.73471737  0.49598177  1  0  0.699862  0  3.932365  0  0  0.649213  0  4.234268  0  0  0.68475  0  4.221131  0  0  0.231937  0.625741  0  4.238352  0
C  C29  1  0.90240035  0.23473252  0.00402146  1  0  0.699556  0  3.932734  0  0  0.648898  0  4.234646  0  0  0.684428  0  4.221528  0  0  0.231869  0.625447  0  4.23869  0
C  C30  1  0.40240783  0.26526776  0.50401989  1  0  0.699691  0  3.932522  0  0  0.648864  0  4.234698  0  0  0.684408  0  4.221552  0  0  0.231891  0.625386  0  4.23879  0
C  C31  1  0.09759023  0.76527999  0.99597646  1  0  0.699692  0  3.93239  0  0  0.649037  0  4.234314  0  0  0.684567  0  4.221196  0  0  0.231954  0.625583  0  4.238384  0
C  C32  1  0.68556918  0.87207737  0.49492330  1  0  0.071786  0  3.656779  0  0  0.066764  0  3.9197  0  0  0.066684  0  3.935294  0  0  0.070026  0.065925  0  3.910356  0
C  C33  1  0.81444360  0.37210051  0.00508222  1  0  0.072156  0  3.656791  0  0  0.066999  0  3.91974  0  0  0.066922  0  3.93534  0  0  0.070051  0.066161  0  3.910378  0
C  C34  1  0.31444855  0.12790039  0.50508083  1  0  0.071918  0  3.656578  0  0  0.066926  0  3.919465  0  0  0.066845  0  3.935056  0  0  0.07002  0.066086  0  3.910126  0
C  C35  1  0.18555246  0.62791516  0.99491763  1  0  0.071991  0  3.656392  0  0  0.066917  0  3.919372  0  0  0.066839  0  3.934967  0  0  0.070053  0.06604  0  3.910073  0
C  C36  1  0.72961066  0.97431489  0.56262619  1  0  -0.117732  0  3.706681  0  0  -0.151667  0  3.971731  0  0  -0.152724  0  3.990155  0  0  -0.093076  -0.151001  0  3.960465  0
C  C37  1  0.77038996  0.47433922  0.93737725  1  0  -0.117521  0  3.706829  0  0  -0.151495  0  3.971848  0  0  -0.152553  0  3.990287  0  0  -0.092877  -0.150827  0  3.960572  0
C  C38  1  0.27039352  0.02566393  0.43737517  1  0  -0.117558  0  3.706789  0  0  -0.151452  0  3.971796  0  0  -0.152511  0  3.990234  0  0  -0.092882  -0.150779  0  3.960518  0
C  C39  1  0.22960619  0.52567961  0.06262395  1  0  -0.117775  0  3.706562  0  0  -0.151644  0  3.971604  0  0  -0.152693  0  3.990013  0  0  -0.093038  -0.150965  0  3.960337  0
C  C40  1  0.79128744  0.09201036  0.52049241  1  0  -0.130662  0  3.712236  0  0  -0.165253  0  3.982497  0  0  -0.167121  0  4.000998  0  0  -0.095195  -0.164284  0  3.970946  0
C  C41  1  0.70871058  0.59203121  0.97951080  1  0  -0.130753  0  3.71229  0  0  -0.165434  0  3.982673  0  0  -0.167287  0  4.001154  0  0  -0.095382  -0.164468  0  3.971112  0
C  C42  1  0.20871683  0.90797267  0.47951032  1  0  -0.130638  0  3.712272  0  0  -0.165339  0  3.982568  0  0  -0.167191  0  4.00104  0  0  -0.095264  -0.164377  0  3.970997  0
C  C43  1  0.29128831  0.40798762  0.02049136  1  0  -0.130704  0  3.71235  0  0  -0.165276  0  3.982607  0  0  -0.167138  0  4.001114  0  0  -0.09518  -0.164305  0  3.971038  0
C  C44  1  0.78445898  0.05447791  0.42971384  1  0  0.064665  0  3.666817  0  0  0.057502  0  3.936264  0  0  0.0585  0  3.950655  0  0  0.074389  0.056177  0  3.927141  0
C  C45  1  0.71554247  0.55449899  0.07029131  1  0  0.065157  0  3.666474  0  0  0.057823  0  3.935907  0  0  0.058816  0  3.950329  0  0  0.074491  0.056503  0  3.926766  0
C  C46  1  0.21555342  0.94550512  0.57029040  1  0  0.064874  0  3.666475  0  0  0.057675  0  3.935928  0  0  0.058667  0  3.950345  0  0  0.074424  0.056381  0  3.926759  0
C  C47  1  0.28444843  0.44551458  0.92971137  1  0  0.064758  0  3.666786  0  0  0.057619  0  3.936196  0  0  0.058594  0  3.950602  0  0  0.074395  0.056297  0  3.927066  0
C  C48  1  0.83561746  0.13136816  0.35326173  1  0  0.700334  0  3.943308  0  0  0.649951  0  4.245654  0  0  0.685686  0  4.231711  0  0  0.233192  0.626286  0  4.250646  0
C  C49  1  0.66438164  0.63138783  0.14674061  1  0  0.700015  0  3.943575  0  0  0.649794  0  4.245704  0  0  0.685514  0  4.231797  0  0  0.233224  0.626126  0  4.250689  0
C  C50  1  0.16439080  0.86862013  0.64674074  1  0  0.700179  0  3.943286  0  0  0.649797  0  4.24566  0  0  0.685514  0  4.231758  0  0  0.233101  0.626126  0  4.250642  0
C  C51  1  0.33561724  0.36862679  0.85326156  1  0  0.700418  0  3.943256  0  0  0.650017  0  4.245622  0  0  0.685772  0  4.231647  0  0  0.233212  0.626346  0  4.250625  0
C  C52  1  0.96547471  0.46231868  0.53905350  1  0  0.572614  0  3.892395  0  0  0.525962  0  4.192744  0  0  0.555967  0  4.18335  0  0  0.228793  0.506124  0  4.194425  0
C  C53  1  0.53453793  0.96233120  0.96094779  1  0  0.572835  0  3.891975  0  0  0.526193  0  4.192329  0  0  0.5562  0  4.182939  0  0  0.228764  0.506342  0  4.194019  0
C  C54  1  0.03454984  0.53767277  0.46095269  1  0  0.572562  0  3.892357  0  0  0.525931  0  4.192706  0  0  0.555935  0  4.183313  0  0  0.228696  0.506072  0  4.194402  0
C  C55  1  0.46545669  0.03768131  0.03905055  1  0  0.57233  0  3.892507  0  0  0.52568  0  4.192879  0  0  0.555681  0  4.183496  0  0  0.228651  0.505838  0  4.194556  0
O  O56  1  0.79769629  0.43892687  0.52402388  1  0  -0.664512  0  2.115474  0  0  -0.614835  0  2.358274  0  0  -0.638396  0  2.349015  0  0  -0.332216  -0.594107  0  2.364084  0
O  O57  1  0.70230583  0.93894354  0.97597628  1  0  -0.664518  0  2.115499  0  0  -0.61487  0  2.358409  0  0  -0.638399  0  2.349078  0  0  -0.332169  -0.594137  0  2.364216  0
O  O58  1  0.20230655  0.56106353  0.47597735  1  0  -0.664435  0  2.115847  0  0  -0.614757  0  2.358655  0  0  -0.638308  0  2.349395  0  0  -0.332152  -0.594028  0  2.36446  0
O  O59  1  0.29768744  0.06107214  0.02402192  1  0  -0.664352  0  2.115776  0  0  -0.614633  0  2.358515  0  0  -0.638195  0  2.349274  0  0  -0.332099  -0.593901  0  2.364306  0
O  O60  1  0.55499658  0.66377779  0.42127993  1  0  -0.732809  0  2.03753  0  0  -0.691047  0  2.300131  0  0  -0.711646  0  2.282205  0  0  -0.413168  -0.670674  0  2.312269  0
O  O61  1  0.94499670  0.16379192  0.07872050  1  0  -0.73267  0  2.037703  0  0  -0.69094  0  2.300382  0  0  -0.711536  0  2.28246  0  0  -0.413168  -0.670569  0  2.312514  0
O  O62  1  0.44500445  0.33620839  0.57871435  1  0  -0.732621  0  2.037645  0  0  -0.690844  0  2.300429  0  0  -0.711442  0  2.282501  0  0  -0.41316  -0.670475  0  2.312579  0
O  O63  1  0.05498859  0.83622375  0.92127822  1  0  -0.732691  0  2.037582  0  0  -0.690917  0  2.300203  0  0  -0.711513  0  2.282279  0  0  -0.413162  -0.670546  0  2.312338  0
O  O64  1  0.27030989  0.52228904  0.30329763  1  0  -0.862358  0  1.838937  0  0  -0.815859  0  2.016744  0  0  -0.833647  0  1.987857  0  0  -0.58534  -0.799013  0  2.038646  0
O  O65  1  0.22969259  0.02228942  0.19670245  1  0  -0.862389  0  1.83892  0  0  -0.815886  0  2.016714  0  0  -0.833674  0  1.987825  0  0  -0.585341  -0.799037  0  2.038622  0
O  O66  1  0.72969963  0.47770346  0.69670361  1  0  -0.862355  0  1.838966  0  0  -0.815911  0  2.016576  0  0  -0.833703  0  1.987681  0  0  -0.58536  -0.799062  0  2.038473  0
O  O67  1  0.77029651  0.97771993  0.80329328  1  0  -0.862342  0  1.838966  0  0  -0.815841  0  2.016761  0  0  -0.833634  0  1.987873  0  0  -0.585253  -0.798997  0  2.038663  0
O  O68  1  0.56743132  0.69815739  0.57380831  1  0  -0.759104  0  2.038954  0  0  -0.7139  0  2.302476  0  0  -0.738511  0  2.289892  0  0  -0.414467  -0.690094  0  2.310946  0
O  O69  1  0.93257332  0.19817633  0.92619104  1  0  -0.758978  0  2.038798  0  0  -0.713776  0  2.302331  0  0  -0.738387  0  2.289754  0  0  -0.414429  -0.689975  0  2.310788  0
O  O70  1  0.43258322  0.30182037  0.42618805  1  0  -0.758966  0  2.038811  0  0  -0.713751  0  2.302502  0  0  -0.738366  0  2.289919  0  0  -0.414401  -0.689929  0  2.310955  0
O  O71  1  0.06742134  0.80183829  0.07380799  1  0  -0.759025  0  2.038921  0  0  -0.713823  0  2.302457  0  0  -0.738436  0  2.289883  0  0  -0.414445  -0.690005  0  2.310913  0
O  O72  1  0.46895878  0.26003515  0.23449837  1  0  -0.900598  0  1.818127  0  0  -0.858738  0  1.993592  0  0  -0.874851  0  1.960488  0  0  -0.626693  -0.841979  0  2.02023  0
O  O73  1  0.03103667  0.76003313  0.26549462  1  0  -0.900634  0  1.818168  0  0  -0.858782  0  1.993635  0  0  -0.874893  0  1.960532  0  0  -0.626704  -0.842023  0  2.020272  0
O  O74  1  0.53104109  0.73996367  0.76549849  1  0  -0.900583  0  1.818213  0  0  -0.85871  0  1.993625  0  0  -0.87482  0  1.960521  0  0  -0.626699  -0.841957  0  2.020256  0
O  O75  1  0.96894538  0.23996043  0.73449565  1  0  -0.900583  0  1.818139  0  0  -0.858729  0  1.99353  0  0  -0.874839  0  1.960426  0  0  -0.626671  -0.841969  0  2.020165  0
O  O76  1  0.72127050  0.91932096  0.41345065  1  0  -0.169205  0  2.384839  0  0  -0.104514  0  2.602109  0  0  -0.118168  0  2.608588  0  0  -0.100652  -0.09535  0  2.597786  0
O  O77  1  0.77873504  0.41934472  0.08655419  1  0  -0.169693  0  2.38503  0  0  -0.104726  0  2.602146  0  0  -0.118388  0  2.608638  0  0  -0.100606  -0.095571  0  2.597821  0
O  O78  1  0.27874310  0.08066312  0.58655170  1  0  -0.169549  0  2.384705  0  0  -0.104726  0  2.601862  0  0  -0.118384  0  2.608351  0  0  -0.10066  -0.095576  0  2.597537  0
O  O79  1  0.22125420  0.58066884  0.91344359  1  0  -0.169491  0  2.384746  0  0  -0.104779  0  2.602012  0  0  -0.118431  0  2.608497  0  0  -0.100719  -0.095609  0  2.597704  0
O  O80  1  0.84511844  0.26518163  0.35971011  1  0  -0.745119  0  1.990687  0  0  -0.700448  0  2.238117  0  0  -0.723862  0  2.224499  0  0  -0.406824  -0.678849  0  2.248023  0
O  O81  1  0.65487152  0.76519607  0.14029690  1  0  -0.745049  0  1.991009  0  0  -0.700422  0  2.238361  0  0  -0.723841  0  2.224766  0  0  -0.406882  -0.678821  0  2.248265  0
O  O82  1  0.15489036  0.73481088  0.64030053  1  0  -0.745071  0  1.990812  0  0  -0.700401  0  2.238254  0  0  -0.723823  0  2.224676  0  0  -0.406787  -0.678799  0  2.248148  0
O  O83  1  0.34511404  0.23481328  0.85970590  1  0  -0.745132  0  1.990645  0  0  -0.700452  0  2.238055  0  0  -0.723877  0  2.224439  0  0  -0.406802  -0.678847  0  2.247959  0
O  O84  1  0.86784862  0.06046203  0.28640397  1  0  -0.737679  0  2.038123  0  0  -0.695164  0  2.304106  0  0  -0.716364  0  2.285316  0  0  -0.423675  -0.672483  0  2.317761  0
O  O85  1  0.63215003  0.56047591  0.21360023  1  0  -0.737628  0  2.038026  0  0  -0.695176  0  2.303942  0  0  -0.716368  0  2.285158  0  0  -0.423735  -0.672495  0  2.31758  0
O  O86  1  0.13215017  0.93953364  0.71359684  1  0  -0.737638  0  2.037862  0  0  -0.695148  0  2.303879  0  0  -0.716342  0  2.285102  0  0  -0.423693  -0.672474  0  2.317527  0
O  O87  1  0.36785981  0.43952713  0.78640578  1  0  -0.737772  0  2.038106  0  0  -0.695244  0  2.304067  0  0  -0.716447  0  2.285263  0  0  -0.42374  -0.672572  0  2.317723  0
O  O88  1  0.08095911  0.42987193  0.61247455  1  0  -0.663131  0  2.071988  0  0  -0.61489  0  2.309886  0  0  -0.637994  0  2.299366  0  0  -0.350342  -0.59419  0  2.316934  0
O  O89  1  0.41904388  0.92988352  0.88752191  1  0  -0.663333  0  2.07168  0  0  -0.615116  0  2.309594  0  0  -0.638226  0  2.299076  0  0  -0.35041  -0.594412  0  2.316642  0
O  O90  1  0.91905018  0.57011742  0.38752329  1  0  -0.663223  0  2.071612  0  0  -0.614996  0  2.309503  0  0  -0.638109  0  2.299001  0  0  -0.350357  -0.594283  0  2.316545  0
O  O91  1  0.58094944  0.07012689  0.11247697  1  0  -0.663064  0  2.071857  0  0  -0.614835  0  2.309781  0  0  -0.637941  0  2.299261  0  0  -0.35035  -0.594127  0  2.316825  0
