# generated using pymatgen
data_ZnCu2H12(C3N2)4
_symmetry_space_group_name_H-M   'P 1'
_cell_length_a   6.06136815
_cell_length_b   10.98644104
_cell_length_c   10.98659343
_cell_angle_alpha   90.00010985
_cell_angle_beta   89.99997876
_cell_angle_gamma   90.00014901
_symmetry_Int_Tables_number   1
_chemical_formula_structural   ZnCu2H12(C3N2)4
_chemical_formula_sum   'Zn2 Cu4 H24 C24 N16'
_cell_volume   731.62871967
_cell_formula_units_Z   2
loop_
 _symmetry_equiv_pos_site_id
 _symmetry_equiv_pos_as_xyz
  1  'x, y, z'
loop_
 _atom_site_type_symbol
 _atom_site_label
 _atom_site_symmetry_multiplicity
 _atom_site_fract_x
 _atom_site_fract_y
 _atom_site_fract_z
 _atom_site_occupancy
 _atom_site_pbe_bader_spin_density
 _atom_site_pbe_cm5_charge
 _atom_site_pbe_ddec_charge
 _atom_site_pbe_ddec_spin_density
 _atom_site_pbe_ddec_sum_bond_order
 _atom_site_pbe_magmom
Zn  Zn0  1  0.50000552  0.00000223  0.99999874  1  0  0.724073  0.643954  0  2.539016  0
Zn  Zn1  1  0.99999468  0.50000024  0.50000070  1  0  0.724125  0.643966  0  2.539191  0
Cu  Cu2  1  0.14988153  0.50000188  0.00000138  1  0  0.470726  0.246361  0  2.218098  0
Cu  Cu3  1  0.85010490  0.00000018  0.49999932  1  0  0.470741  0.246335  0  2.218118  0
Cu  Cu4  1  0.35013362  0.00000073  0.49999845  1  0  0.470712  0.246343  0  2.218134  0
Cu  Cu5  1  0.64987921  0.49999769  0.00000225  1  0  0.470748  0.246384  0  2.218014  0
H  H6  1  0.42039520  0.72251827  0.09978955  1  0  0.119147  0.081668  0  1.032206  0
H  H7  1  0.42038557  0.27748684  0.90020557  1  0  0.119181  0.081617  0  1.032261  0
H  H8  1  0.57960524  0.09979096  0.27748643  1  0  0.119162  0.081653  0  1.032208  0
H  H9  1  0.57960364  0.90020892  0.72251322  1  0  0.119153  0.081662  0  1.032202  0
H  H10  1  0.07961562  0.77749536  0.59979357  1  0  0.119166  0.081608  0  1.032309  0
H  H11  1  0.07961770  0.22250835  0.40020524  1  0  0.11921  0.081692  0  1.032233  0
H  H12  1  0.92038359  0.40019379  0.77748881  1  0  0.119119  0.081533  0  1.032271  0
H  H13  1  0.92037934  0.59980294  0.22251442  1  0  0.119179  0.081679  0  1.032163  0
H  H14  1  0.11937093  0.92296491  0.81806246  1  0  0.108312  0.105084  0  1.053037  0
H  H15  1  0.11936920  0.07703704  0.18193453  1  0  0.108278  0.105032  0  1.053013  0
H  H16  1  0.88063971  0.81806453  0.07703824  1  0  0.108293  0.105116  0  1.052977  0
H  H17  1  0.88063621  0.18193942  0.92295862  1  0  0.108328  0.105114  0  1.052997  0
H  H18  1  0.38061002  0.57702821  0.31807182  1  0  0.10827  0.105003  0  1.053093  0
H  H19  1  0.38060786  0.42297047  0.68192968  1  0  0.108284  0.105012  0  1.053062  0
H  H20  1  0.61938298  0.68192702  0.57703752  1  0  0.10832  0.105097  0  1.053049  0
H  H21  1  0.61938219  0.31806928  0.42296758  1  0  0.108279  0.105014  0  1.053041  0
H  H22  1  0.93536602  0.69245045  0.82497150  1  0  0.104626  0.099389  0  1.091096  0
H  H23  1  0.93536539  0.30754902  0.17502900  1  0  0.104634  0.099394  0  1.091075  0
H  H24  1  0.06463739  0.82497359  0.30754835  1  0  0.104622  0.099372  0  1.091124  0
H  H25  1  0.06463735  0.17502736  0.69244683  1  0  0.104622  0.099395  0  1.091067  0
H  H26  1  0.56463172  0.80753611  0.32496952  1  0  0.10468  0.099392  0  1.09115  0
H  H27  1  0.56463013  0.19246283  0.67503012  1  0  0.104683  0.099394  0  1.091164  0
H  H28  1  0.43537326  0.67502405  0.80754665  1  0  0.10467  0.099381  0  1.091097  0
H  H29  1  0.43536939  0.32497016  0.19245757  1  0  0.10469  0.099449  0  1.091115  0
C  C30  1  0.31379064  0.74511871  0.02373052  1  0  0.108091  0.118102  0  3.996895  0
C  C31  1  0.31378579  0.25488443  0.97626735  1  0  0.108046  0.11825  0  3.996838  0
C  C32  1  0.68621301  0.02373181  0.25488243  1  0  0.108064  0.118143  0  3.996868  0
C  C33  1  0.68621175  0.97626822  0.74511720  1  0  0.108035  0.118088  0  3.996826  0
C  C34  1  0.18621695  0.75488659  0.52373630  1  0  0.108025  0.118242  0  3.996864  0
C  C35  1  0.18621907  0.24511454  0.47626250  1  0  0.107946  0.118094  0  3.996841  0
C  C36  1  0.81378573  0.47625654  0.75488771  1  0  0.108167  0.118433  0  3.996605  0
C  C37  1  0.81378275  0.52373912  0.24511463  1  0  0.108035  0.118224  0  3.996624  0
C  C38  1  0.15611985  0.84633690  0.87689863  1  0  -0.019116  -0.051166  0  3.993385  0
C  C39  1  0.15611853  0.15366510  0.12309835  1  0  -0.019073  -0.051068  0  3.99336  0
C  C40  1  0.84388739  0.87690074  0.15366624  1  0  -0.01911  -0.051234  0  3.993529  0
C  C41  1  0.84388863  0.12309952  0.84633154  1  0  -0.019063  -0.051094  0  3.993511  0
C  C42  1  0.34386764  0.65366179  0.37690360  1  0  -0.019144  -0.051154  0  3.993532  0
C  C43  1  0.34386847  0.34633866  0.62309699  1  0  -0.019103  -0.051091  0  3.993371  0
C  C44  1  0.65612699  0.62309096  0.65366813  1  0  -0.019273  -0.051476  0  3.993702  0
C  C45  1  0.65612489  0.37690448  0.34633605  1  0  -0.019096  -0.05104  0  3.993375  0
C  C46  1  0.06402156  0.73183297  0.88076506  1  0  -0.027251  -0.069207  0  4.000212  0
C  C47  1  0.06402243  0.26816799  0.11923375  1  0  -0.027241  -0.069182  0  4.000193  0
C  C48  1  0.93597877  0.88076659  0.26817034  1  0  -0.027222  -0.069113  0  4.000147  0
C  C49  1  0.93598009  0.11923289  0.73182743  1  0  -0.027267  -0.06922  0  4.000178  0
C  C50  1  0.43597418  0.76816208  0.38076750  1  0  -0.027251  -0.069196  0  4.000373  0
C  C51  1  0.43597282  0.23183850  0.61923308  1  0  -0.027252  -0.069219  0  4.000374  0
C  C52  1  0.56402397  0.61922442  0.76816768  1  0  -0.027189  -0.06896  0  4.000012  0
C  C53  1  0.56402198  0.38076998  0.23183651  1  0  -0.027202  -0.069213  0  4.000369  0
N  N54  1  0.31363872  0.85390916  0.96739165  1  0  -0.378599  -0.287811  0  3.614508  0
N  N55  1  0.31363579  0.14609397  0.03260531  1  0  -0.378569  -0.287832  0  3.614486  0
N  N56  1  0.68636706  0.96739398  0.14609256  1  0  -0.378539  -0.287741  0  3.614541  0
N  N57  1  0.68636622  0.03260878  0.85390615  1  0  -0.378557  -0.28777  0  3.614544  0
N  N58  1  0.18636190  0.64609425  0.46740208  1  0  -0.378583  -0.287769  0  3.614457  0
N  N59  1  0.18636283  0.35390688  0.53259762  1  0  -0.378602  -0.287852  0  3.6145  0
N  N60  1  0.81363413  0.53259315  0.64609790  1  0  -0.378601  -0.287769  0  3.614398  0
N  N61  1  0.81363245  0.46740342  0.35390535  1  0  -0.378629  -0.287884  0  3.614496  0
N  N62  1  0.16488474  0.66747016  0.97415882  1  0  -0.431626  -0.280261  0  3.798364  0
N  N63  1  0.16488104  0.33253276  0.02584089  1  0  -0.431642  -0.280394  0  3.798454  0
N  N64  1  0.83511725  0.97415988  0.33253160  1  0  -0.431644  -0.280338  0  3.798388  0
N  N65  1  0.83511487  0.02584036  0.66746618  1  0  -0.431665  -0.280353  0  3.798344  0
N  N66  1  0.33512248  0.83253236  0.47416049  1  0  -0.431559  -0.280294  0  3.798406  0
N  N67  1  0.33512254  0.16746899  0.52583829  1  0  -0.431553  -0.280179  0  3.798325  0
N  N68  1  0.66488049  0.52583125  0.83253422  1  0  -0.4316  -0.280411  0  3.798159  0
N  N69  1  0.66487899  0.47416238  0.16746996  1  0  -0.431622  -0.280374  0  3.798368  0
