# generated using pymatgen
data_CuH8C14IN
_symmetry_space_group_name_H-M   'P 1'
_cell_length_a   4.06110093
_cell_length_b   16.37891492
_cell_length_c   18.81395416
_cell_angle_alpha   113.24654896
_cell_angle_beta   89.92434947
_cell_angle_gamma   97.15385236
_symmetry_Int_Tables_number   1
_chemical_formula_structural   CuH8C14IN
_chemical_formula_sum   'Cu4 H32 C56 I4 N4'
_cell_volume   1139.31657695
_cell_formula_units_Z   4
loop_
 _symmetry_equiv_pos_site_id
 _symmetry_equiv_pos_as_xyz
  1  'x, y, z'
loop_
 _atom_site_type_symbol
 _atom_site_label
 _atom_site_symmetry_multiplicity
 _atom_site_fract_x
 _atom_site_fract_y
 _atom_site_fract_z
 _atom_site_occupancy
 _atom_site_hle17_bader_spin_density
 _atom_site_hle17_ddec_charge
 _atom_site_hle17_ddec_spin_density
 _atom_site_hle17_ddec_sum_bond_order
 _atom_site_hle17_magmom
 _atom_site_hse06_10hf_bader_spin_density
 _atom_site_hse06_10hf_ddec_charge
 _atom_site_hse06_10hf_ddec_spin_density
 _atom_site_hse06_10hf_ddec_sum_bond_order
 _atom_site_hse06_10hf_magmom
 _atom_site_hse06_bader_spin_density
 _atom_site_hse06_ddec_charge
 _atom_site_hse06_ddec_spin_density
 _atom_site_hse06_ddec_sum_bond_order
 _atom_site_hse06_magmom
 _atom_site_pbe_bader_spin_density
 _atom_site_pbe_cm5_charge
 _atom_site_pbe_ddec_charge
 _atom_site_pbe_ddec_spin_density
 _atom_site_pbe_ddec_sum_bond_order
 _atom_site_pbe_magmom
Cu  Cu0  1  0.47074202  0.50424048  0.20612433  1  0  0.218085  0  2.238896  0  0  0.140617  0  2.723493  0  0  0.153082  0  2.666615  0  0  0.240571  0.134803  0  2.760893  0
Cu  Cu1  1  0.96615800  0.49615940  0.29430488  1  0  0.218249  0  2.237315  0  0  0.140732  0  2.722273  0  0  0.153068  0  2.665263  0  0  0.241383  0.135079  0  2.759522  0
Cu  Cu2  1  0.52924222  0.49576654  0.79387753  1  0  0.218088  0  2.238994  0  0  0.140657  0  2.72358  0  0  0.153132  0  2.666699  0  0  0.240585  0.134848  0  2.760973  0
Cu  Cu3  1  0.03382300  0.50383624  0.70569788  1  0  0.218222  0  2.237366  0  0  0.140683  0  2.722338  0  0  0.153016  0  2.665301  0  0  0.24134  0.13502  0  2.759584  0
H  H4  1  0.73727160  0.52169988  0.06293619  1  0  0.073265  0  0.953801  0  0  0.08021  0  1.022433  0  0  0.08299  0  1.020539  0  0  0.103318  0.078093  0  1.023921  0
H  H5  1  0.21594554  0.47838056  0.43703216  1  0  0.073079  0  0.953266  0  0  0.080097  0  1.021723  0  0  0.082815  0  1.019834  0  0  0.103291  0.077967  0  1.02327  0
H  H6  1  0.26275057  0.47830918  0.93707167  1  0  0.073297  0  0.953799  0  0  0.080187  0  1.022485  0  0  0.082965  0  1.020593  0  0  0.103335  0.078072  0  1.023975  0
H  H7  1  0.78401767  0.52160903  0.56296535  1  0  0.072917  0  0.953284  0  0  0.079961  0  1.021751  0  0  0.082678  0  1.019862  0  0  0.103188  0.077829  0  1.023299  0
H  H8  1  0.23063145  0.67755761  0.24801213  1  0  0.074313  0  0.963194  0  0  0.078289  0  1.039366  0  0  0.081795  0  1.03564  0  0  0.101512  0.075356  0  1.042467  0
H  H9  1  0.55403983  0.32252802  0.25213371  1  0  0.074398  0  0.962969  0  0  0.078491  0  1.038846  0  0  0.082061  0  1.035068  0  0  0.101628  0.075535  0  1.041979  0
H  H10  1  0.76934540  0.32244940  0.75198707  1  0  0.074338  0  0.963169  0  0  0.078338  0  1.039302  0  0  0.081839  0  1.035582  0  0  0.101537  0.075405  0  1.042406  0
H  H11  1  0.44593457  0.67746425  0.74786365  1  0  0.074445  0  0.962911  0  0  0.078563  0  1.038766  0  0  0.082116  0  1.035008  0  0  0.101688  0.075606  0  1.041892  0
H  H12  1  0.74716378  0.63145785  0.00066460  1  0  0.10835  0  0.980108  0  0  0.115183  0  1.04851  0  0  0.11927  0  1.046727  0  0  0.091772  0.112048  0  1.050066  0
H  H13  1  0.11563562  0.36862459  0.49926350  1  0  0.107807  0  0.979177  0  0  0.11436  0  1.048286  0  0  0.118366  0  1.046668  0  0  0.091469  0.111283  0  1.049677  0
H  H14  1  0.25290226  0.36855523  0.99934516  1  0  0.108392  0  0.980179  0  0  0.115254  0  1.048525  0  0  0.119338  0  1.046748  0  0  0.091808  0.112115  0  1.050082  0
H  H15  1  0.88432153  0.63136768  0.50073546  1  0  0.107937  0  0.979131  0  0  0.114431  0  1.048264  0  0  0.118432  0  1.046662  0  0  0.091518  0.111355  0  1.049662  0
H  H16  1  0.23385363  0.79627617  0.19678736  1  0  0.103639  0  0.974556  0  0  0.114342  0  1.036062  0  0  0.117193  0  1.036044  0  0  0.104095  0.112546  0  1.035942  0
H  H17  1  0.43713172  0.20400722  0.30355580  1  0  0.103733  0  0.973762  0  0  0.114394  0  1.035331  0  0  0.117378  0  1.035163  0  0  0.103868  0.11251  0  1.035324  0
H  H18  1  0.76619206  0.20373554  0.80321449  1  0  0.103515  0  0.974407  0  0  0.114235  0  1.035949  0  0  0.11709  0  1.035918  0  0  0.104039  0.112437  0  1.035824  0
H  H19  1  0.56283003  0.79598438  0.69644027  1  0  0.10363  0  0.973959  0  0  0.114365  0  1.035413  0  0  0.117313  0  1.035283  0  0  0.103878  0.112481  0  1.035404  0
H  H20  1  0.77816439  0.78884742  0.91936409  1  0  0.093084  0  0.978637  0  0  0.098928  0  1.049378  0  0  0.102253  0  1.048239  0  0  0.088533  0.096045  0  1.05085  0
H  H21  1  0.98758665  0.21138073  0.58064844  1  0  0.093246  0  0.979461  0  0  0.099182  0  1.05009  0  0  0.10254  0  1.04895  0  0  0.088404  0.09632  0  1.05147  0
H  H22  1  0.22185052  0.21115689  0.08062940  1  0  0.093004  0  0.978764  0  0  0.098885  0  1.049471  0  0  0.102205  0  1.048339  0  0  0.088522  0.096003  0  1.050954  0
H  H23  1  0.01241718  0.78861626  0.41935584  1  0  0.093343  0  0.979315  0  0  0.099183  0  1.050053  0  0  0.102526  0  1.04895  0  0  0.088399  0.096324  0  1.051427  0
H  H24  1  0.78691420  0.04729901  0.84208287  1  0  0.086265  0  0.970835  0  0  0.095331  0  1.036667  0  0  0.097964  0  1.036313  0  0  0.096326  0.093449  0  1.036938  0
H  H25  1  0.74032383  0.95264019  0.65769668  1  0  0.085952  0  0.9707  0  0  0.094831  0  1.036634  0  0  0.097487  0  1.03627  0  0  0.09585  0.092938  0  1.036915  0
H  H26  1  0.21311258  0.95270934  0.15791624  1  0  0.086245  0  0.97091  0  0  0.09531  0  1.036742  0  0  0.097943  0  1.036386  0  0  0.096273  0.093431  0  1.037019  0
H  H27  1  0.25967385  0.04734941  0.34230243  1  0  0.085997  0  0.970648  0  0  0.094871  0  1.036594  0  0  0.097526  0  1.036231  0  0  0.095884  0.092981  0  1.036874  0
H  H28  1  0.04014823  0.91296817  0.75979770  1  0  0.083675  0  0.948689  0  0  0.097263  0  1.005664  0  0  0.099767  0  1.004792  0  0  0.098325  0.095421  0  1.006417  0
H  H29  1  0.12710974  0.08710565  0.73989011  1  0  0.083774  0  0.947756  0  0  0.097398  0  1.004736  0  0  0.09996  0  1.003814  0  0  0.098095  0.095491  0  1.005597  0
H  H30  1  0.95984027  0.08703747  0.24019411  1  0  0.083836  0  0.948657  0  0  0.097435  0  1.005595  0  0  0.099937  0  1.00473  0  0  0.098407  0.095597  0  1.006353  0
H  H31  1  0.87288088  0.91288463  0.26011136  1  0  0.083744  0  0.947956  0  0  0.097428  0  1.004843  0  0  0.09999  0  1.003922  0  0  0.098132  0.095525  0  1.005707  0
H  H32  1  0.03080627  0.78332777  0.79908641  1  0  0.079501  0  0.986719  0  0  0.0887  0  1.053489  0  0  0.090611  0  1.054231  0  0  0.091317  0.086974  0  1.053439  0
H  H33  1  0.24631062  0.21686360  0.70069973  1  0  0.080165  0  0.986368  0  0  0.088898  0  1.05372  0  0  0.090842  0  1.054416  0  0  0.091322  0.08719  0  1.05363  0
H  H34  1  0.96917529  0.21667384  0.20090137  1  0  0.07954  0  0.986746  0  0  0.088716  0  1.053525  0  0  0.090625  0  1.054265  0  0  0.091376  0.086993  0  1.053476  0
H  H35  1  0.75369332  0.78312870  0.29930455  1  0  0.080205  0  0.986342  0  0  0.088879  0  1.053746  0  0  0.090824  0  1.054439  0  0  0.091321  0.087169  0  1.053656  0
C  C36  1  0.62364565  0.58304766  0.08977130  1  0  0.115406  0  3.709705  0  0  0.087199  0  3.958245  0  0  0.093577  0  3.975791  0  0  0.033402  0.082628  0  3.947905  0
C  C37  1  0.04081958  0.41705759  0.41026601  1  0  0.114493  0  3.708394  0  0  0.08679  0  3.956645  0  0  0.093174  0  3.974103  0  0  0.033578  0.082348  0  3.946069  0
C  C38  1  0.37637373  0.41696072  0.91023367  1  0  0.115374  0  3.710003  0  0  0.087223  0  3.958532  0  0  0.093603  0  3.976074  0  0  0.033392  0.082644  0  3.948181  0
C  C39  1  0.95913970  0.58293404  0.58973591  1  0  0.114836  0  3.708562  0  0  0.087081  0  3.956761  0  0  0.093465  0  3.974223  0  0  0.033774  0.082672  0  3.946106  0
C  C40  1  0.34431898  0.67039919  0.19362059  1  0  0.116613  0  3.713913  0  0  0.088369  0  3.962969  0  0  0.095474  0  3.978893  0  0  0.032605  0.083739  0  3.952838  0
C  C41  1  0.67436174  0.32975807  0.30652749  1  0  0.115246  0  3.713167  0  0  0.087234  0  3.962559  0  0  0.094194  0  3.978389  0  0  0.032379  0.082632  0  3.952569  0
C  C42  1  0.65569201  0.32960716  0.80637944  1  0  0.116664  0  3.713528  0  0  0.088411  0  3.96267  0  0  0.095518  0  3.978597  0  0  0.032716  0.083774  0  3.95254  0
C  C43  1  0.32559575  0.67023487  0.69347063  1  0  0.115256  0  3.713322  0  0  0.087155  0  3.962731  0  0  0.094125  0  3.978562  0  0  0.032367  0.082552  0  3.952737  0
C  C44  1  0.63062658  0.64435275  0.05562592  1  0  -0.157852  0  3.687662  0  0  -0.173327  0  3.928581  0  0  -0.180807  0  3.947213  0  0  -0.083459  -0.168984  0  3.916891  0
C  C45  1  0.98601069  0.35577989  0.44440303  1  0  -0.157416  0  3.688121  0  0  -0.17272  0  3.928921  0  0  -0.180185  0  3.947592  0  0  -0.083372  -0.168382  0  3.917212  0
C  C46  1  0.36941484  0.35566032  0.94438012  1  0  -0.158053  0  3.687827  0  0  -0.173552  0  3.928835  0  0  -0.181025  0  3.947465  0  0  -0.083658  -0.169203  0  3.91714  0
C  C47  1  0.01394087  0.64421105  0.55559654  1  0  -0.157785  0  3.687973  0  0  -0.17298  0  3.928823  0  0  -0.180448  0  3.947494  0  0  -0.083495  -0.168655  0  3.917129  0
C  C48  1  0.64077547  0.99621534  0.92903980  1  0  0.029551  0  3.74372  0  0  0.039115  0  3.973016  0  0  0.038702  0  3.996427  0  0  0.002948  0.039502  0  3.957359  0
C  C49  1  0.64473994  0.00378878  0.57088883  1  0  0.030452  0  3.743158  0  0  0.039399  0  3.973435  0  0  0.038965  0  3.996882  0  0  0.003383  0.039797  0  3.957748  0
C  C50  1  0.35926149  0.00379368  0.07096007  1  0  0.029388  0  3.744008  0  0  0.03925  0  3.973003  0  0  0.038836  0  3.996413  0  0  0.002928  0.03964  0  3.957356  0
C  C51  1  0.35526187  0.99620417  0.42911036  1  0  0.030283  0  3.743303  0  0  0.039242  0  3.973424  0  0  0.038786  0  3.996902  0  0  0.00337  0.039646  0  3.95774  0
C  C52  1  0.63894741  0.92195520  0.95149267  1  0  0.031798  0  3.738808  0  0  0.040172  0  3.969484  0  0  0.039784  0  3.992402  0  0  0.003946  0.040554  0  3.954311  0
C  C53  1  0.71613556  0.07814815  0.54853024  1  0  0.032092  0  3.74073  0  0  0.04012  0  3.972057  0  0  0.039738  0  3.994961  0  0  0.00308  0.040528  0  3.956829  0
C  C54  1  0.36108396  0.07805247  0.04850515  1  0  0.031948  0  3.73905  0  0  0.040141  0  3.969804  0  0  0.039759  0  3.992707  0  0  0.003987  0.040516  0  3.954632  0
C  C55  1  0.28386133  0.92184481  0.45147160  1  0  0.031964  0  3.741043  0  0  0.040171  0  3.97214  0  0  0.039797  0  3.995048  0  0  0.003092  0.040569  0  3.956918  0
C  C56  1  0.49283737  0.72453004  0.09398288  1  0  0.161494  0  3.892031  0  0  0.172447  0  4.117828  0  0  0.181466  0  4.134923  0  0  0.011207  0.166914  0  4.106203  0
C  C57  1  0.76702742  0.27574235  0.40630453  1  0  0.162553  0  3.892051  0  0  0.172935  0  4.118473  0  0  0.181944  0  4.135457  0  0  0.010795  0.167394  0  4.106968  0
C  C58  1  0.50722420  0.27547900  0.90602018  1  0  0.161463  0  3.892191  0  0  0.17236  0  4.118107  0  0  0.18137  0  4.135205  0  0  0.011283  0.166823  0  4.106471  0
C  C59  1  0.23292874  0.72424792  0.59369322  1  0  0.162754  0  3.891782  0  0  0.172995  0  4.11836  0  0  0.182004  0  4.135337  0  0  0.010773  0.16745  0  4.106859  0
C  C60  1  0.49976045  0.85400005  0.04443333  1  0  -0.052884  0  3.868512  0  0  -0.053034  0  4.125112  0  0  -0.052687  0  4.152261  0  0  -0.022698  -0.052642  0  4.107189  0
C  C61  1  0.64358147  0.14629662  0.45589224  1  0  -0.050919  0  3.868779  0  0  -0.051249  0  4.125129  0  0  -0.050918  0  4.152171  0  0  -0.02196  -0.050834  0  4.107281  0
C  C62  1  0.50030392  0.14600966  0.95557102  1  0  -0.052836  0  3.86787  0  0  -0.053032  0  4.124498  0  0  -0.052678  0  4.151644  0  0  -0.022713  -0.052647  0  4.106566  0
C  C63  1  0.35639998  0.85369499  0.54410596  1  0  -0.05085  0  3.86855  0  0  -0.05113  0  4.124895  0  0  -0.050797  0  4.151937  0  0  -0.021849  -0.050714  0  4.107049  0
C  C64  1  0.34541558  0.73605621  0.16473998  1  0  -0.162411  0  3.695068  0  0  -0.176349  0  3.931335  0  0  -0.184175  0  3.951166  0  0  -0.082475  -0.171144  0  3.91747  0
C  C65  1  0.60903514  0.26420773  0.33554001  1  0  -0.162266  0  3.695382  0  0  -0.175906  0  3.931496  0  0  -0.183749  0  3.95125  0  0  -0.081956  -0.170738  0  3.917767  0
C  C66  1  0.65461880  0.26395753  0.83526682  1  0  -0.162148  0  3.694935  0  0  -0.176114  0  3.931295  0  0  -0.183933  0  3.951126  0  0  -0.082453  -0.170905  0  3.917426  0
C  C67  1  0.39092661  0.73578387  0.66445712  1  0  -0.16225  0  3.695604  0  0  -0.175847  0  3.931679  0  0  -0.183657  0  3.951449  0  0  -0.082009  -0.170686  0  3.917946  0
C  C68  1  0.49900582  0.92629179  0.02220827  1  0  0.041385  0  3.817509  0  0  0.044822  0  4.051267  0  0  0.046348  0  4.070572  0  0  0.008881  0.043068  0  4.038663  0
C  C69  1  0.57146340  0.07387453  0.47795336  1  0  0.040156  0  3.818459  0  0  0.044329  0  4.051693  0  0  0.045978  0  4.07086  0  0  0.008745  0.042453  0  4.039234  0
C  C70  1  0.50103673  0.07371857  0.97779153  1  0  0.041072  0  3.817928  0  0  0.044678  0  4.051657  0  0  0.046194  0  4.070978  0  0  0.008889  0.042925  0  4.039073  0
C  C71  1  0.42853450  0.92612044  0.52204811  1  0  0.040254  0  3.8185  0  0  0.044283  0  4.051874  0  0  0.045917  0  4.071061  0  0  0.008741  0.042413  0  4.039414  0
C  C72  1  0.77914054  0.84526812  0.90234484  1  0  -0.09946  0  3.723162  0  0  -0.119393  0  3.973993  0  0  -0.121632  0  3.994109  0  0  -0.089589  -0.118368  0  3.961565  0
C  C73  1  0.93245061  0.15492619  0.59765455  1  0  -0.100553  0  3.724763  0  0  -0.120392  0  3.975327  0  0  -0.122691  0  3.995411  0  0  -0.089442  -0.119334  0  3.962941  0
C  C74  1  0.22087392  0.15474021  0.09764949  1  0  -0.099334  0  3.723027  0  0  -0.119279  0  3.973949  0  0  -0.121515  0  3.994059  0  0  -0.089543  -0.11825  0  3.961528  0
C  C75  1  0.06755400  0.84506745  0.40234912  1  0  -0.100582  0  3.724541  0  0  -0.120401  0  3.975103  0  0  -0.122701  0  3.995173  0  0  -0.089436  -0.119337  0  3.96272  0
C  C76  1  0.78420663  0.99035752  0.85843132  1  0  -0.11064  0  3.75317  0  0  -0.130621  0  4.004047  0  0  -0.13383  0  4.025723  0  0  -0.091105  -0.128448  0  3.989419  0
C  C77  1  0.79399954  0.00963435  0.64138314  1  0  -0.111382  0  3.752484  0  0  -0.130895  0  4.003595  0  0  -0.13408  0  4.025176  0  0  -0.091603  -0.128747  0  3.98904  0
C  C78  1  0.21581768  0.00965082  0.14156406  1  0  -0.110612  0  3.753537  0  0  -0.13067  0  4.004376  0  0  -0.133878  0  4.026051  0  0  -0.091098  -0.128496  0  3.989767  0
C  C79  1  0.20600194  0.99035793  0.35861741  1  0  -0.111252  0  3.752532  0  0  -0.130813  0  4.003707  0  0  -0.13399  0  4.025289  0  0  -0.091573  -0.128668  0  3.989165  0
C  C80  1  0.50019276  0.79185618  0.06503396  1  0  -0.106538  0  3.809436  0  0  -0.105769  0  4.061  0  0  -0.110365  0  4.086697  0  0  -0.037167  -0.104155  0  4.044555  0
C  C81  1  0.70559895  0.20862578  0.43547420  1  0  -0.108432  0  3.808466  0  0  -0.107539  0  4.060716  0  0  -0.111977  0  4.086167  0  0  -0.037959  -0.106051  0  4.04447  0
C  C82  1  0.49988716  0.20816494  0.93497534  1  0  -0.106436  0  3.808741  0  0  -0.105618  0  4.06036  0  0  -0.110215  0  4.086055  0  0  -0.037151  -0.103999  0  4.043899  0
C  C83  1  0.29436425  0.79136379  0.56451959  1  0  -0.108525  0  3.808357  0  0  -0.107601  0  4.060626  0  0  -0.112032  0  4.086068  0  0  -0.037997  -0.106106  0  4.044381  0
C  C84  1  0.92262515  0.91557450  0.81275612  1  0  -0.071809  0  3.785767  0  0  -0.085524  0  4.037952  0  0  -0.086544  0  4.058553  0  0  -0.093741  -0.084911  0  4.024266  0
C  C85  1  0.00668791  0.08452551  0.68704546  1  0  -0.072173  0  3.785788  0  0  -0.085981  0  4.037771  0  0  -0.08694  0  4.058147  0  0  -0.093373  -0.085442  0  4.024282  0
C  C86  1  0.07738204  0.08442913  0.18723447  1  0  -0.072246  0  3.786159  0  0  -0.085963  0  4.038372  0  0  -0.086987  0  4.058976  0  0  -0.09395  -0.08535  0  4.024697  0
C  C87  1  0.99329846  0.91546611  0.31295540  1  0  -0.072205  0  3.785836  0  0  -0.086052  0  4.037812  0  0  -0.087009  0  4.058182  0  0  -0.093424  -0.085517  0  4.024338  0
C  C88  1  0.91905159  0.84222265  0.83496549  1  0  -0.060143  0  3.765101  0  0  -0.073671  0  4.014874  0  0  -0.075827  0  4.036597  0  0  -0.09272  -0.0725  0  4.001172  0
C  C89  1  0.07580796  0.15794706  0.66491985  1  0  -0.059717  0  3.766832  0  0  -0.072915  0  4.016516  0  0  -0.074956  0  4.038037  0  0  -0.092837  -0.071863  0  4.002948  0
C  C90  1  0.08093870  0.15778166  0.16502800  1  0  -0.060031  0  3.765152  0  0  -0.07353  0  4.014912  0  0  -0.075684  0  4.036636  0  0  -0.092702  -0.072365  0  4.00123  0
C  C91  1  0.92418926  0.84204658  0.33508382  1  0  -0.059705  0  3.766445  0  0  -0.07285  0  4.016143  0  0  -0.074889  0  4.037654  0  0  -0.09286  -0.071801  0  4.002581  0
I  I92  1  0.90778323  0.39411452  0.14368849  1  0  -0.326171  0  1.735445  0  0  -0.269798  0  2.187965  0  0  -0.287984  0  2.147795  0  0  -0.152026  -0.253541  0  2.21475  0
I  I93  1  0.51360788  0.60653846  0.35660124  1  0  -0.326047  0  1.736683  0  0  -0.269185  0  2.189093  0  0  -0.287569  0  2.148963  0  0  -0.150936  -0.252883  0  2.215843  0
I  I94  1  0.09220258  0.60588582  0.85631534  1  0  -0.326173  0  1.735461  0  0  -0.269806  0  2.187985  0  0  -0.287999  0  2.147815  0  0  -0.152023  -0.253552  0  2.214767  0
I  I95  1  0.48636965  0.39345518  0.64340243  1  0  -0.325974  0  1.736584  0  0  -0.26913  0  2.189043  0  0  -0.287522  0  2.148904  0  0  -0.150905  -0.252833  0  2.215789  0
N  N96  1  0.48505890  0.59492654  0.15784883  1  0  -0.268452  0  3.36016  0  0  -0.193472  0  3.640014  0  0  -0.206649  0  3.650492  0  0  -0.363542  -0.1862  0  3.633978  0
N  N97  1  0.89028000  0.40528683  0.34227073  1  0  -0.266432  0  3.35898  0  0  -0.192407  0  3.639943  0  0  -0.205167  0  3.649939  0  0  -0.364062  -0.185413  0  3.634196  0
N  N98  1  0.51492567  0.40508116  0.84215432  1  0  -0.268562  0  3.360189  0  0  -0.193584  0  3.640059  0  0  -0.206764  0  3.650534  0  0  -0.36363  -0.186295  0  3.634009  0
N  N99  1  0.10967783  0.59470679  0.65772868  1  0  -0.266514  0  3.359351  0  0  -0.192449  0  3.64032  0  0  -0.205201  0  3.650304  0  0  -0.364082  -0.18546  0  3.63457  0
