# generated using pymatgen
data_CdH11C16N3O7
_symmetry_space_group_name_H-M   'P 1'
_cell_length_a   8.49185225
_cell_length_b   10.27325155
_cell_length_c   10.53243581
_cell_angle_alpha   108.47848400
_cell_angle_beta   93.74383755
_cell_angle_gamma   102.35330757
_symmetry_Int_Tables_number   1
_chemical_formula_structural   CdH11C16N3O7
_chemical_formula_sum   'Cd2 H22 C32 N6 O14'
_cell_volume   842.45760794
_cell_formula_units_Z   2
loop_
 _symmetry_equiv_pos_site_id
 _symmetry_equiv_pos_as_xyz
  1  'x, y, z'
loop_
 _atom_site_type_symbol
 _atom_site_label
 _atom_site_symmetry_multiplicity
 _atom_site_fract_x
 _atom_site_fract_y
 _atom_site_fract_z
 _atom_site_occupancy
 _atom_site_hle17_bader_spin_density
 _atom_site_hle17_ddec_charge
 _atom_site_hle17_ddec_spin_density
 _atom_site_hle17_ddec_sum_bond_order
 _atom_site_hle17_magmom
 _atom_site_hse06_10hf_bader_spin_density
 _atom_site_hse06_10hf_ddec_charge
 _atom_site_hse06_10hf_ddec_spin_density
 _atom_site_hse06_10hf_ddec_sum_bond_order
 _atom_site_hse06_10hf_magmom
 _atom_site_hse06_bader_spin_density
 _atom_site_hse06_ddec_charge
 _atom_site_hse06_ddec_spin_density
 _atom_site_hse06_ddec_sum_bond_order
 _atom_site_hse06_magmom
 _atom_site_pbe_bader_spin_density
 _atom_site_pbe_cm5_charge
 _atom_site_pbe_ddec_charge
 _atom_site_pbe_ddec_spin_density
 _atom_site_pbe_ddec_sum_bond_order
 _atom_site_pbe_magmom
Cd  Cd0  1  0.46452242  0.40295912  0.62685246  1  0  1.196796  0  1.673453  0  0  1.016785  0  2.132267  0  0  1.074507  0  2.074796  0  0  0.794713  0.971585  0  2.174467  0
Cd  Cd1  1  0.53548019  0.59703924  0.37314678  1  0  1.196793  0  1.673427  0  0  1.016793  0  2.132241  0  0  1.074516  0  2.074766  0  0  0.794711  0.971585  0  2.17444  0
H  H2  1  0.26228533  0.17521491  0.94149080  1  0  0.128207  0  0.940373  0  0  0.131488  0  1.009873  0  0  0.136606  0  1.004116  0  0  0.11703  0.127845  0  1.013901  0
H  H3  1  0.73770929  0.82478020  0.05850421  1  0  0.128389  0  0.940158  0  0  0.131576  0  1.009729  0  0  0.136686  0  1.003989  0  0  0.1171  0.127934  0  1.013756  0
H  H4  1  0.48314577  0.92265860  0.62977823  1  0  0.131772  0  0.933315  0  0  0.137933  0  1.001035  0  0  0.142699  0  0.996295  0  0  0.115943  0.134557  0  1.004368  0
H  H5  1  0.51685209  0.07733971  0.37021790  1  0  0.131756  0  0.933256  0  0  0.137909  0  1.00097  0  0  0.142675  0  0.99623  0  0  0.11592  0.134531  0  1.00431  0
H  H6  1  0.31034109  0.76502217  0.94239144  1  0  0.128863  0  0.940496  0  0  0.134285  0  1.004964  0  0  0.138679  0  1.000926  0  0  0.119426  0.131015  0  1.00792  0
H  H7  1  0.68965530  0.23497507  0.05760525  1  0  0.128912  0  0.940422  0  0  0.134284  0  1.004942  0  0  0.138674  0  1.000912  0  0  0.119441  0.131011  0  1.007898  0
H  H8  1  0.75756554  0.29550526  0.52330570  1  0  0.087915  0  0.946849  0  0  0.095062  0  1.014943  0  0  0.097442  0  1.012927  0  0  0.11943  0.093161  0  1.016451  0
H  H9  1  0.24243796  0.70449630  0.47669645  1  0  0.087912  0  0.946724  0  0  0.095059  0  1.014851  0  0  0.097431  0  1.012835  0  0  0.119453  0.093157  0  1.016356  0
H  H10  1  0.74114727  0.61574184  0.87394079  1  0  0.091084  0  0.935277  0  0  0.099091  0  0.998206  0  0  0.102013  0  0.994814  0  0  0.120871  0.096704  0  1.001068  0
H  H11  1  0.25885534  0.38426077  0.12606164  1  0  0.091057  0  0.935266  0  0  0.09904  0  0.998232  0  0  0.10196  0  0.994841  0  0  0.120841  0.096652  0  1.001091  0
H  H12  1  0.03207182  0.64143015  0.96278426  1  0  0.108005  0  0.961673  0  0  0.115814  0  1.023059  0  0  0.11885  0  1.022812  0  0  0.10656  0.113559  0  1.023565  0
H  H13  1  0.96792612  0.35856822  0.03722140  1  0  0.108043  0  0.961561  0  0  0.115851  0  1.022939  0  0  0.118888  0  1.02269  0  0  0.106574  0.113594  0  1.023445  0
H  H14  1  0.19039704  0.48201659  0.82031479  1  0  0.124009  0  0.941437  0  0  0.134897  0  0.999285  0  0  0.138276  0  0.996401  0  0  0.116164  0.132257  0  1.001682  0
H  H15  1  0.80960298  0.51798075  0.17969160  1  0  0.123983  0  0.941375  0  0  0.134888  0  0.999205  0  0  0.138267  0  0.996319  0  0  0.116153  0.132246  0  1.0016  0
H  H16  1  0.17867481  0.12213327  0.37947647  1  0  0.103036  0  0.929208  0  0  0.11581  0  0.990654  0  0  0.117666  0  0.98879  0  0  0.118937  0.114324  0  0.992273  0
H  H17  1  0.82132276  0.87786822  0.62052347  1  0  0.103043  0  0.929106  0  0  0.115817  0  0.990595  0  0  0.117675  0  0.988729  0  0  0.118945  0.114332  0  0.992215  0
H  H18  1  0.97912001  0.01253163  0.31361652  1  0  0.073119  0  0.931393  0  0  0.083424  0  1.003896  0  0  0.083567  0  1.003745  0  0  0.104034  0.083176  0  1.004195  0
H  H19  1  0.02088022  0.98747095  0.68638483  1  0  0.07309  0  0.93138  0  0  0.083407  0  1.003917  0  0  0.083556  0  1.003752  0  0  0.104016  0.083159  0  1.004216  0
H  H20  1  0.76715343  0.02505035  0.48870120  1  0  0.080384  0  0.952376  0  0  0.093803  0  1.019925  0  0  0.093781  0  1.020863  0  0  0.106426  0.093417  0  1.019717  0
H  H21  1  0.23284857  0.97495011  0.51129675  1  0  0.080374  0  0.952416  0  0  0.093793  0  1.019958  0  0  0.093772  0  1.020896  0  0  0.10642  0.093407  0  1.019752  0
H  H22  1  0.84748915  0.13679102  0.65704576  1  0  0.089886  0  0.949015  0  0  0.104907  0  1.010085  0  0  0.105464  0  1.010376  0  0  0.114538  0.104379  0  1.01004  0
H  H23  1  0.15250842  0.86321048  0.34295419  1  0  0.089881  0  0.949018  0  0  0.104877  0  1.010106  0  0  0.105433  0  1.0104  0  0  0.114536  0.104352  0  1.010059  0
C  C24  1  0.44660515  0.69142411  0.71644204  1  0  0.655574  0  3.923568  0  0  0.602969  0  4.215802  0  0  0.638632  0  4.209126  0  0  0.20351  0.578589  0  4.219274  0
C  C25  1  0.55339628  0.30857425  0.28355714  1  0  0.655475  0  3.923475  0  0  0.602859  0  4.215721  0  0  0.638522  0  4.209047  0  0  0.203474  0.578477  0  4.219189  0
C  C26  1  0.40682190  0.17892874  0.72242785  1  0  0.612146  0  3.976632  0  0  0.565751  0  4.26522  0  0  0.599747  0  4.2612  0  0  0.184448  0.542855  0  4.266641  0
C  C27  1  0.59317479  0.82106958  0.27757108  1  0  0.612157  0  3.976579  0  0  0.565795  0  4.265181  0  0  0.599791  0  4.261159  0  0  0.184463  0.542895  0  4.266606  0
C  C28  1  0.37931059  0.06204325  0.78191665  1  0  -0.04846  0  3.726887  0  0  -0.021473  0  3.964209  0  0  -0.031713  0  3.986348  0  0  -0.011753  -0.015293  0  3.94993  0
C  C29  1  0.62068521  0.93795187  0.21807842  1  0  -0.048259  0  3.726618  0  0  -0.021401  0  3.96407  0  0  -0.03164  0  3.98621  0  0  -0.011766  -0.01522  0  3.949789  0
C  C30  1  0.30161155  0.07878877  0.89677673  1  0  -0.069887  0  3.665941  0  0  -0.110934  0  3.925245  0  0  -0.10545  0  3.939119  0  0  -0.059763  -0.113948  0  3.915698  0
C  C31  1  0.69838247  0.92120845  0.10321889  1  0  -0.070256  0  3.665794  0  0  -0.1112  0  3.925216  0  0  -0.105715  0  3.939087  0  0  -0.059877  -0.114214  0  3.91567  0
C  C32  1  0.42703843  0.93642848  0.72198717  1  0  -0.037948  0  3.612761  0  0  -0.082997  0  3.867781  0  0  -0.077294  0  3.883305  0  0  -0.060347  -0.086301  0  3.858022  0
C  C33  1  0.57296118  0.06357194  0.27800780  1  0  -0.038032  0  3.612682  0  0  -0.082989  0  3.867689  0  0  -0.077282  0  3.883205  0  0  -0.06032  -0.086293  0  3.857929  0
C  C34  1  0.40195137  0.82937268  0.77966489  1  0  -0.057987  0  3.731187  0  0  -0.03102  0  3.969468  0  0  -0.042683  0  3.993602  0  0  -0.01346  -0.023868  0  3.953667  0
C  C35  1  0.59804828  0.17062354  0.22033260  1  0  -0.058002  0  3.731329  0  0  -0.031044  0  3.969586  0  0  -0.042705  0  3.993718  0  0  -0.013439  -0.023896  0  3.95379  0
C  C36  1  0.32757731  0.84707078  0.89651674  1  0  -0.084706  0  3.685444  0  0  -0.123949  0  3.941201  0  0  -0.119832  0  3.95939  0  0  -0.066336  -0.125561  0  3.92838  0
C  C37  1  0.67241761  0.15292539  0.10347860  1  0  -0.084739  0  3.685413  0  0  -0.123939  0  3.941178  0  0  -0.119822  0  3.959365  0  0  -0.066372  -0.12555  0  3.928358  0
C  C38  1  0.27588213  0.97026227  0.95132772  1  0  0.05515  0  3.729491  0  0  0.049262  0  3.992592  0  0  0.043465  0  4.016259  0  0  0.075004  0.052708  0  3.976433  0
C  C39  1  0.72410923  0.02973387  0.04866744  1  0  0.055297  0  3.729417  0  0  0.049423  0  3.992468  0  0  0.04363  0  4.01613  0  0  0.075064  0.052869  0  3.976309  0
C  C40  1  0.82375498  0.36975566  0.62026558  1  0  0.1178  0  3.684982  0  0  0.076489  0  3.933326  0  0  0.085775  0  3.950201  0  0  0.054342  0.070695  0  3.921091  0
C  C41  1  0.17624585  0.63024481  0.37973516  1  0  0.117895  0  3.684998  0  0  0.076583  0  3.933372  0  0  0.085878  0  3.950242  0  0  0.0544  0.070785  0  3.921141  0
C  C42  1  0.81500323  0.54984876  0.81655758  1  0  0.148763  0  3.671987  0  0  0.115641  0  3.919517  0  0  0.124641  0  3.936651  0  0  0.057768  0.109652  0  3.908282  0
C  C43  1  0.18499614  0.45015065  0.18344372  1  0  0.148815  0  3.671881  0  0  0.115701  0  3.919406  0  0  0.1247  0  3.936542  0  0  0.057769  0.10971  0  3.908167  0
C  C44  1  0.97641311  0.56267869  0.86477485  1  0  -0.118552  0  3.725807  0  0  -0.127962  0  3.979115  0  0  -0.136964  0  4.002077  0  0  -0.079749  -0.122322  0  3.963874  0
C  C45  1  0.02358806  0.43732288  0.13523194  1  0  -0.118591  0  3.725823  0  0  -0.127992  0  3.979124  0  0  -0.136995  0  4.002086  0  0  -0.079755  -0.122351  0  3.963882  0
C  C46  1  0.98527686  0.37513176  0.66129288  1  0  -0.085615  0  3.755359  0  0  -0.058085  0  3.991753  0  0  -0.068704  0  4.013396  0  0  -0.002011  -0.051455  0  3.977012  0
C  C47  1  0.01472695  0.62487088  0.33871246  1  0  -0.085601  0  3.755342  0  0  -0.058109  0  3.991813  0  0  -0.068728  0  4.013451  0  0  -0.002015  -0.051477  0  3.977079  0
C  C48  1  0.06370954  0.47460707  0.78628523  1  0  -0.011339  0  3.651652  0  0  -0.042282  0  3.896559  0  0  -0.037114  0  3.913694  0  0  -0.055512  -0.045298  0  3.884871  0
C  C49  1  0.93629430  0.52539134  0.21371883  1  0  -0.011372  0  3.651614  0  0  -0.042304  0  3.896516  0  0  -0.037137  0  3.913653  0  0  -0.05552  -0.045318  0  3.884823  0
C  C50  1  0.07307842  0.28558151  0.56474840  1  0  0.509709  0  3.814867  0  0  0.454079  0  4.102984  0  0  0.485754  0  4.102679  0  0  0.248922  0.432641  0  4.102735  0
C  C51  1  0.92692626  0.71442006  0.43525286  1  0  0.509695  0  3.814535  0  0  0.454077  0  4.102708  0  0  0.485751  0  4.102406  0  0  0.248894  0.432628  0  4.102477  0
C  C52  1  0.07388939  0.05531460  0.40274882  1  0  -0.012134  0  3.621887  0  0  -0.074949  0  3.885791  0  0  -0.069724  0  3.894892  0  0  -0.06011  -0.07843  0  3.879958  0
C  C53  1  0.92611378  0.94469011  0.59725143  1  0  -0.012088  0  3.621805  0  0  -0.074986  0  3.885905  0  0  -0.069758  0  3.895006  0  0  -0.060111  -0.078463  0  3.880063  0
C  C54  1  0.87688339  0.06626378  0.56472346  1  0  -0.023061  0  3.630351  0  0  -0.088864  0  3.894663  0  0  -0.084891  0  3.906711  0  0  -0.059501  -0.09113  0  3.886539  0
C  C55  1  0.12311892  0.93373776  0.43527768  1  0  -0.023019  0  3.630285  0  0  -0.088828  0  3.894612  0  0  -0.084838  0  3.906628  0  0  -0.059503  -0.091091  0  3.886484  0
N  N56  1  0.74091873  0.45497182  0.69613403  1  0  -0.323663  0  3.277617  0  0  -0.245119  0  3.5445  0  0  -0.266065  0  3.562112  0  0  -0.325382  -0.230686  0  3.532024  0
N  N57  1  0.25908417  0.54503186  0.30386969  1  0  -0.323771  0  3.2777  0  0  -0.245195  0  3.544567  0  0  -0.266142  0  3.562176  0  0  -0.325411  -0.230757  0  3.532085  0
N  N58  1  0.00997145  0.14420721  0.51513607  1  0  -0.189992  0  3.382241  0  0  -0.101451  0  3.618948  0  0  -0.123092  0  3.641026  0  0  -0.263959  -0.087357  0  3.603993  0
N  N59  1  0.99003084  0.85579856  0.48486730  1  0  -0.190023  0  3.381999  0  0  -0.101486  0  3.618761  0  0  -0.12313  0  3.640844  0  0  -0.263906  -0.087386  0  3.60381  0
N  N60  1  0.19017924  0.98594106  0.06946246  1  0  0.502149  0  3.909073  0  0  0.527848  0  4.212197  0  0  0.548661  0  4.222011  0  0  0.055782  0.513877  0  4.205618  0
N  N61  1  0.80981687  0.01405514  0.93053485  1  0  0.502097  0  3.908958  0  0  0.527793  0  4.212085  0  0  0.548606  0  4.221897  0  0  0.05578  0.513824  0  4.205507  0
O  O62  1  0.47732318  0.16242379  0.61740339  1  0  -0.634525  0  1.935421  0  0  -0.579878  0  2.17252  0  0  -0.607648  0  2.163995  0  0  -0.32899  -0.559501  0  2.177066  0
O  O63  1  0.52267824  0.83757456  0.38259484  1  0  -0.634506  0  1.935472  0  0  -0.579865  0  2.172582  0  0  -0.607621  0  2.164029  0  0  -0.328946  -0.559485  0  2.177127  0
O  O64  1  0.35620834  0.28836975  0.77979234  1  0  -0.636322  0  1.930071  0  0  -0.579512  0  2.157397  0  0  -0.608229  0  2.148706  0  0  -0.337345  -0.557938  0  2.163081  0
O  O65  1  0.64379191  0.71162860  0.22020677  1  0  -0.636388  0  1.93005  0  0  -0.579569  0  2.157355  0  0  -0.608287  0  2.148661  0  0  -0.337392  -0.557992  0  2.163038  0
O  O66  1  0.44636609  0.61208186  0.78790595  1  0  -0.627194  0  1.978069  0  0  -0.567223  0  2.219312  0  0  -0.596111  0  2.208704  0  0  -0.319691  -0.545804  0  2.226784  0
O  O67  1  0.55363445  0.38791754  0.21209350  1  0  -0.627097  0  1.978031  0  0  -0.567111  0  2.219258  0  0  -0.595998  0  2.208653  0  0  -0.319646  -0.54569  0  2.226723  0
O  O68  1  0.47594400  0.65805470  0.59515124  1  0  -0.675183  0  2.065055  0  0  -0.60915  0  2.335092  0  0  -0.638628  0  2.320439  0  0  -0.331515  -0.586976  0  2.343559  0
O  O69  1  0.52405834  0.34194262  0.40484956  1  0  -0.675162  0  2.064946  0  0  -0.609146  0  2.335032  0  0  -0.638625  0  2.320384  0  0  -0.331536  -0.586972  0  2.343497  0
O  O70  1  0.16253983  0.88568178  0.11381815  1  0  -0.366892  0  1.743838  0  0  -0.3416  0  1.944495  0  0  -0.354262  0  1.942087  0  0  -0.123138  -0.333294  0  1.946546  0
O  O71  1  0.83745715  0.11431758  0.88617922  1  0  -0.366871  0  1.743671  0  0  -0.341608  0  1.944321  0  0  -0.35427  0  1.941911  0  0  -0.123167  -0.3333  0  1.946372  0
O  O72  1  0.14864592  0.09815801  0.11889696  1  0  -0.358905  0  1.745355  0  0  -0.341904  0  1.952614  0  0  -0.35479  0  1.951328  0  0  -0.122972  -0.333334  0  1.953805  0
O  O73  1  0.85135225  0.90184138  0.88110237  1  0  -0.358917  0  1.745404  0  0  -0.341872  0  1.952654  0  0  -0.354758  0  1.951366  0  0  -0.122953  -0.333305  0  1.953854  0
O  O74  1  0.19626261  0.34582965  0.52567537  1  0  -0.582023  0  2.028146  0  0  -0.526942  0  2.280863  0  0  -0.553005  0  2.271188  0  0  -0.312306  -0.508456  0  2.287053  0
O  O75  1  0.80373822  0.65417507  0.47432856  1  0  -0.581949  0  2.027948  0  0  -0.526925  0  2.280751  0  0  -0.552988  0  2.271078  0  0  -0.31233  -0.508436  0  2.286947  0
