# generated using pymatgen
data_AgH6C10SN2O3
_symmetry_space_group_name_H-M   'P 1'
_cell_length_a   8.26879615
_cell_length_b   11.13861707
_cell_length_c   11.41684741
_cell_angle_alpha   89.44201041
_cell_angle_beta   77.97257536
_cell_angle_gamma   79.22390786
_symmetry_Int_Tables_number   1
_chemical_formula_structural   AgH6C10SN2O3
_chemical_formula_sum   'Ag4 H24 C40 S4 N8 O12'
_cell_volume   1009.83863842
_cell_formula_units_Z   4
loop_
 _symmetry_equiv_pos_site_id
 _symmetry_equiv_pos_as_xyz
  1  'x, y, z'
loop_
 _atom_site_type_symbol
 _atom_site_label
 _atom_site_symmetry_multiplicity
 _atom_site_fract_x
 _atom_site_fract_y
 _atom_site_fract_z
 _atom_site_occupancy
 _atom_site_hle17_bader_spin_density
 _atom_site_hle17_ddec_charge
 _atom_site_hle17_ddec_spin_density
 _atom_site_hle17_ddec_sum_bond_order
 _atom_site_hle17_magmom
 _atom_site_hse06_10hf_bader_spin_density
 _atom_site_hse06_10hf_ddec_charge
 _atom_site_hse06_10hf_ddec_spin_density
 _atom_site_hse06_10hf_ddec_sum_bond_order
 _atom_site_hse06_10hf_magmom
 _atom_site_hse06_bader_spin_density
 _atom_site_hse06_ddec_charge
 _atom_site_hse06_ddec_spin_density
 _atom_site_hse06_ddec_sum_bond_order
 _atom_site_hse06_magmom
 _atom_site_pbe_bader_spin_density
 _atom_site_pbe_cm5_charge
 _atom_site_pbe_ddec_charge
 _atom_site_pbe_ddec_spin_density
 _atom_site_pbe_ddec_sum_bond_order
 _atom_site_pbe_magmom
Ag  Ag0  1  0.44838477  0.34031521  0.46427863  1  0  0.473753  0  1.579832  0  0  0.327822  0  2.041906  0  0  0.352898  0  1.993016  0  0  0.50469  0.312169  0  2.075022  0
Ag  Ag1  1  0.55161943  0.65968371  0.53571968  1  0  0.473726  0  1.57989  0  0  0.327793  0  2.041954  0  0  0.352869  0  1.993066  0  0  0.50468  0.312139  0  2.075075  0
Ag  Ag2  1  0.24006605  0.58108568  0.45093507  1  0  0.643791  0  1.330237  0  0  0.530774  0  1.780542  0  0  0.56359  0  1.720196  0  0  0.447014  0.507598  0  1.822595  0
Ag  Ag3  1  0.75993297  0.41891420  0.54906400  1  0  0.643761  0  1.330329  0  0  0.530733  0  1.780627  0  0  0.563548  0  1.720278  0  0  0.446984  0.507556  0  1.822679  0
H  H4  1  0.56583417  0.88655014  0.66710337  1  0  0.091449  0  0.934678  0  0  0.102333  0  0.995666  0  0  0.103934  0  0.994445  0  0  0.119627  0.101034  0  0.996835  0
H  H5  1  0.43416959  0.11345061  0.33289586  1  0  0.091473  0  0.934678  0  0  0.102356  0  0.995662  0  0  0.103956  0  0.99444  0  0  0.119642  0.101056  0  0.99683  0
H  H6  1  0.50170779  0.98016190  0.86934946  1  0  0.114238  0  0.958049  0  0  0.124272  0  1.017519  0  0  0.127139  0  1.016881  0  0  0.110274  0.122198  0  1.018227  0
H  H7  1  0.49828662  0.01984167  0.13065027  1  0  0.114276  0  0.958081  0  0  0.124299  0  1.017558  0  0  0.127155  0  1.016954  0  0  0.11029  0.122225  0  1.018266  0
H  H8  1  0.38136627  0.85783471  0.04670129  1  0  0.102954  0  0.965831  0  0  0.109831  0  1.031871  0  0  0.11318  0  1.028991  0  0  0.108249  0.107426  0  1.033853  0
H  H9  1  0.61862949  0.14216337  0.95329653  1  0  0.102959  0  0.965789  0  0  0.109816  0  1.031855  0  0  0.113164  0  1.028974  0  0  0.108244  0.10741  0  1.033836  0
H  H10  1  0.33889265  0.64933452  0.00566935  1  0  0.128688  0  0.941241  0  0  0.136511  0  1.002238  0  0  0.140254  0  0.999876  0  0  0.114545  0.133833  0  1.00401  0
H  H11  1  0.66111201  0.35066257  0.99432540  1  0  0.128777  0  0.941184  0  0  0.136609  0  1.002164  0  0  0.140354  0  0.999801  0  0  0.114555  0.133928  0  1.00394  0
H  H12  1  0.21499077  0.13203783  0.87148591  1  0  0.09184  0  0.989788  0  0  0.103411  0  1.048889  0  0  0.104812  0  1.050096  0  0  0.10156  0.102019  0  1.048902  0
H  H13  1  0.78500532  0.86796390  0.12851621  1  0  0.091859  0  0.989759  0  0  0.103422  0  1.048854  0  0  0.104822  0  1.050061  0  0  0.101569  0.102031  0  1.048865  0
H  H14  1  0.11642357  0.02602445  0.05509753  1  0  0.094122  0  0.946603  0  0  0.105146  0  1.004808  0  0  0.107772  0  1.004518  0  0  0.10426  0.103168  0  1.005252  0
H  H15  1  0.88357297  0.97397545  0.94490190  1  0  0.094079  0  0.946636  0  0  0.105102  0  1.004841  0  0  0.107727  0  1.004553  0  0  0.104249  0.103133  0  1.005273  0
H  H16  1  0.05471770  0.13281102  0.25412225  1  0  0.108502  0  0.954053  0  0  0.117849  0  1.016362  0  0  0.120639  0  1.014328  0  0  0.110392  0.11578  0  1.018018  0
H  H17  1  0.94528110  0.86718977  0.74587596  1  0  0.108498  0  0.954014  0  0  0.117845  0  1.016327  0  0  0.12064  0  1.014289  0  0  0.110384  0.115776  0  1.017985  0
H  H18  1  0.18481687  0.45786755  0.08303206  1  0  0.118914  0  0.948782  0  0  0.124129  0  1.016308  0  0  0.128179  0  1.012688  0  0  0.111161  0.121078  0  1.019176  0
H  H19  1  0.81518440  0.54213322  0.91696842  1  0  0.118954  0  0.948789  0  0  0.12417  0  1.016308  0  0  0.128219  0  1.012689  0  0  0.111174  0.121118  0  1.019177  0
H  H20  1  0.96191832  0.32699121  0.76488567  1  0  0.122453  0  0.956752  0  0  0.129082  0  1.021539  0  0  0.133001  0  1.018895  0  0  0.107975  0.126171  0  1.023794  0
H  H21  1  0.03808811  0.67300859  0.23511930  1  0  0.122447  0  0.956813  0  0  0.129137  0  1.021529  0  0  0.133057  0  1.018886  0  0  0.107955  0.126224  0  1.023789  0
H  H22  1  0.02221538  0.97646177  0.58882063  1  0  0.107077  0  0.950094  0  0  0.117935  0  1.010492  0  0  0.121016  0  1.008395  0  0  0.111335  0.115506  0  1.012536  0
H  H23  1  0.97778386  0.02353719  0.41117929  1  0  0.107099  0  0.950134  0  0  0.117865  0  1.010659  0  0  0.120968  0  1.008532  0  0  0.111276  0.115436  0  1.012702  0
H  H24  1  0.32981157  0.95978896  0.54111625  1  0  0.098547  0  0.964982  0  0  0.108257  0  1.02758  0  0  0.111257  0  1.026199  0  0  0.100838  0.106122  0  1.028627  0
H  H25  1  0.67018891  0.04020999  0.45888524  1  0  0.098505  0  0.96501  0  0  0.108233  0  1.027597  0  0  0.111233  0  1.026219  0  0  0.100834  0.106099  0  1.02864  0
H  H26  1  0.45990621  0.12620571  0.61053131  1  0  0.099691  0  0.990405  0  0  0.104004  0  1.064797  0  0  0.107957  0  1.061076  0  0  0.098756  0.100994  0  1.067743  0
H  H27  1  0.54009695  0.87379230  0.38947329  1  0  0.099639  0  0.990417  0  0  0.103962  0  1.064803  0  0  0.107918  0  1.061076  0  0  0.098773  0.100974  0  1.06773  0
C  C28  1  0.50994297  0.83776674  0.74338270  1  0  0.138574  0  3.670863  0  0  0.107644  0  3.916225  0  0  0.114055  0  3.936131  0  0  0.05469  0.103142  0  3.903325  0
C  C29  1  0.49005582  0.16223405  0.25661902  1  0  0.138561  0  3.670819  0  0  0.107635  0  3.916171  0  0  0.114048  0  3.936077  0  0  0.054706  0.103133  0  3.90327  0
C  C30  1  0.47403123  0.88974298  0.85862894  1  0  -0.099338  0  3.705276  0  0  -0.111707  0  3.950898  0  0  -0.118409  0  3.974101  0  0  -0.074362  -0.107128  0  3.935636  0
C  C31  1  0.52596531  0.11025692  0.14137137  1  0  -0.099391  0  3.705412  0  0  -0.111767  0  3.951022  0  0  -0.118473  0  3.974219  0  0  -0.074382  -0.107187  0  3.93576  0
C  C32  1  0.40957306  0.82253842  0.95456301  1  0  -0.011062  0  3.712887  0  0  -0.026676  0  3.960447  0  0  -0.025049  0  3.980353  0  0  -0.065327  -0.027461  0  3.946498  0
C  C33  1  0.59042268  0.17745967  0.04543744  1  0  -0.010891  0  3.713022  0  0  -0.026489  0  3.960537  0  0  -0.024859  0  3.980438  0  0  -0.065261  -0.027275  0  3.946588  0
C  C34  1  0.38467118  0.70526721  0.93216373  1  0  -0.102853  0  3.658685  0  0  -0.126456  0  3.905786  0  0  -0.131943  0  3.926934  0  0  -0.066917  -0.122576  0  3.891117  0
C  C35  1  0.61532998  0.29472900  0.06783243  1  0  -0.103082  0  3.658896  0  0  -0.12667  0  3.905946  0  0  -0.132159  0  3.927094  0  0  -0.066911  -0.122787  0  3.891277  0
C  C36  1  0.42142889  0.65945969  0.81406944  1  0  0.151698  0  3.710686  0  0  0.148846  0  3.946001  0  0  0.152064  0  3.968392  0  0  0.125335  0.146597  0  3.931132  0
C  C37  1  0.57857138  0.34054018  0.18592594  1  0  0.151655  0  3.710655  0  0  0.14876  0  3.94598  0  0  0.151979  0  3.968371  0  0  0.125254  0.146511  0  3.93111  0
C  C38  1  0.39236235  0.53585819  0.78912115  1  0  0.346239  0  3.718443  0  0  0.319898  0  3.985522  0  0  0.335124  0  3.995455  0  0  0.263002  0.309136  0  3.979674  0
C  C39  1  0.60763747  0.46414350  0.21087603  1  0  0.34625  0  3.718432  0  0  0.319977  0  3.985434  0  0  0.335199  0  3.995366  0  0  0.263045  0.309215  0  3.979588  0
C  C40  1  0.29256092  0.33381913  0.73508998  1  0  0.143309  0  3.632488  0  0  0.129519  0  3.876955  0  0  0.13256  0  3.893792  0  0  0.149602  0.127182  0  3.865934  0
C  C41  1  0.70744227  0.66617889  0.26490761  1  0  0.143352  0  3.632504  0  0  0.129545  0  3.877014  0  0  0.132582  0  3.893861  0  0  0.149561  0.127208  0  3.865991  0
C  C42  1  0.26711662  0.37318476  0.85763016  1  0  0.217133  0  3.648976  0  0  0.204293  0  3.901919  0  0  0.217349  0  3.913564  0  0  0.163895  0.195173  0  3.894671  0
C  C43  1  0.73288657  0.62681325  0.14236830  1  0  0.217112  0  3.648974  0  0  0.204262  0  3.90197  0  0  0.217318  0  3.913612  0  0  0.163927  0.19514  0  3.894725  0
C  C44  1  0.20227721  0.30480805  0.96291958  1  0  0.009696  0  3.744691  0  0  0.028068  0  3.980776  0  0  0.021445  0  4.005339  0  0  -0.005142  0.032258  0  3.964413  0
C  C45  1  0.79771765  0.69519369  0.03707921  1  0  0.009787  0  3.744524  0  0  0.028164  0  3.98062  0  0  0.021541  0  4.00518  0  0  -0.005169  0.032355  0  3.964256  0
C  C46  1  0.18350409  0.18195925  0.95692221  1  0  -0.079645  0  3.709835  0  0  -0.103838  0  3.954089  0  0  -0.102678  0  3.975369  0  0  -0.077721  -0.104468  0  3.939936  0
C  C47  1  0.81648997  0.81804067  0.04307935  1  0  -0.079621  0  3.709969  0  0  -0.103793  0  3.95419  0  0  -0.102631  0  3.975465  0  0  -0.077682  -0.104425  0  3.940038  0
C  C48  1  0.12810273  0.12159185  0.06083475  1  0  -0.067486  0  3.749533  0  0  -0.078015  0  4.002335  0  0  -0.082701  0  4.023465  0  0  -0.084823  -0.074641  0  3.987824  0
C  C49  1  0.87189278  0.87840715  0.93916836  1  0  -0.067529  0  3.749685  0  0  -0.078055  0  4.002481  0  0  -0.082739  0  4.02361  0  0  -0.084843  -0.074688  0  3.987968  0
C  C50  1  0.09259254  0.18097433  0.17270586  1  0  -0.018913  0  3.687058  0  0  -0.04746  0  3.932622  0  0  -0.0441  0  3.950783  0  0  -0.066552  -0.049767  0  3.920362  0
C  C51  1  0.90740524  0.81902555  0.82729427  1  0  -0.018876  0  3.686974  0  0  -0.047422  0  3.932526  0  0  -0.044067  0  3.950689  0  0  -0.066566  -0.049732  0  3.920271  0
C  C52  1  0.11429592  0.30200921  0.17901670  1  0  -0.106326  0  3.727581  0  0  -0.07608  0  3.971549  0  0  -0.085214  0  3.994548  0  0  -0.015396  -0.070215  0  3.956204  0
C  C53  1  0.88569916  0.69799162  0.82098207  1  0  -0.106355  0  3.727628  0  0  -0.076099  0  3.971589  0  0  -0.08523  0  3.994587  0  0  -0.015374  -0.070232  0  3.956245  0
C  C54  1  0.16691940  0.36414071  0.07620898  1  0  -0.065989  0  3.677271  0  0  -0.104942  0  3.929498  0  0  -0.102355  0  3.948722  0  0  -0.073127  -0.106394  0  3.916627  0
C  C55  1  0.83307816  0.63586009  0.92379118  1  0  -0.06606  0  3.677308  0  0  -0.105032  0  3.929577  0  0  -0.102444  0  3.948801  0  0  -0.073132  -0.106486  0  3.916705  0
C  C56  1  0.21945921  0.23652510  0.69188237  1  0  0.019081  0  3.799871  0  0  0.039472  0  4.032024  0  0  0.037283  0  4.054483  0  0  -0.012096  0.041166  0  4.016774  0
C  C57  1  0.78054419  0.76347200  0.30811957  1  0  0.019046  0  3.799927  0  0  0.039427  0  4.032164  0  0  0.037242  0  4.054619  0  0  -0.012093  0.041119  0  4.016918  0
C  C58  1  0.04410149  0.24661001  0.71739228  1  0  -0.094211  0  3.704058  0  0  -0.12846  0  3.952324  0  0  -0.128017  0  3.970516  0  0  -0.080297  -0.129282  0  3.940533  0
C  C59  1  0.95590246  0.75338982  0.28261393  1  0  -0.094355  0  3.704198  0  0  -0.128691  0  3.952515  0  0  -0.128252  0  3.970706  0  0  -0.080351  -0.129512  0  3.940726  0
C  C60  1  0.97485298  0.15376248  0.67822473  1  0  -0.105051  0  3.736125  0  0  -0.075833  0  3.979332  0  0  -0.08242  0  4.000632  0  0  -0.018486  -0.071219  0  3.965149  0
C  C61  1  0.02514784  0.84624012  0.32177930  1  0  -0.104891  0  3.736155  0  0  -0.075598  0  3.979261  0  0  -0.082185  0  4.000568  0  0  -0.018409  -0.070987  0  3.965078  0
C  C62  1  0.07777787  0.04969659  0.61682739  1  0  -0.046438  0  3.699049  0  0  -0.073651  0  3.945629  0  0  -0.072116  0  3.963904  0  0  -0.076346  -0.075087  0  3.93376  0
C  C63  1  0.92222194  0.95030510  0.38317330  1  0  -0.046468  0  3.699239  0  0  -0.073645  0  3.945815  0  0  -0.072124  0  3.964077  0  0  -0.076318  -0.075079  0  3.933943  0
C  C64  1  0.25186015  0.04087338  0.59024418  1  0  -0.042781  0  3.719272  0  0  -0.053588  0  3.967686  0  0  -0.056433  0  3.988255  0  0  -0.083863  -0.051882  0  3.954176  0
C  C65  1  0.74814134  0.95912648  0.40975539  1  0  -0.042772  0  3.719364  0  0  -0.053583  0  3.967747  0  0  -0.05643  0  3.988321  0  0  -0.083867  -0.051877  0  3.954239  0
C  C66  1  0.32356169  0.13451137  0.62639695  1  0  -0.109359  0  3.715543  0  0  -0.132225  0  3.967598  0  0  -0.131892  0  3.984058  0  0  -0.08991  -0.132108  0  3.957024  0
C  C67  1  0.67644046  0.86548574  0.37360518  1  0  -0.109269  0  3.715612  0  0  -0.132131  0  3.967668  0  0  -0.131794  0  3.984124  0  0  -0.089903  -0.132037  0  3.957091  0
S  S68  1  0.07396267  0.37794131  0.32172806  1  0  1.276435  0  5.651231  0  0  1.183098  0  6.155373  0  0  1.232821  0  6.134188  0  0  0.494905  1.148825  0  6.168366  0
S  S69  1  0.92603883  0.62205854  0.67826976  1  0  1.27645  0  5.651193  0  0  1.183132  0  6.155313  0  0  1.232852  0  6.134126  0  0  0.494948  1.148858  0  6.168309  0
S  S70  1  0.75170141  0.17449640  0.69566553  1  0  1.266348  0  5.697428  0  0  1.17351  0  6.211053  0  0  1.221418  0  6.190032  0  0  0.486722  1.140514  0  6.224073  0
S  S71  1  0.24830087  0.82550527  0.30433742  1  0  1.266334  0  5.697422  0  0  1.173489  0  6.211058  0  0  1.221395  0  6.190039  0  0  0.486694  1.140492  0  6.224079  0
N  N72  1  0.48194743  0.72612853  0.72080591  1  0  -0.301108  0  3.300574  0  0  -0.216613  0  3.561957  0  0  -0.235714  0  3.580338  0  0  -0.337092  -0.203738  0  3.549442  0
N  N73  1  0.51805677  0.27387038  0.27919152  1  0  -0.301107  0  3.300582  0  0  -0.216609  0  3.56197  0  0  -0.235712  0  3.580354  0  0  -0.337146  -0.203733  0  3.549453  0
N  N74  1  0.45297691  0.48503303  0.67846975  1  0  -0.259377  0  3.147777  0  0  -0.21086  0  3.422486  0  0  -0.223247  0  3.433085  0  0  -0.203767  -0.20259  0  3.415811  0
N  N75  1  0.54702255  0.51496501  0.32153015  1  0  -0.259411  0  3.147868  0  0  -0.210924  0  3.422569  0  0  -0.223307  0  3.433165  0  0  -0.203816  -0.202657  0  3.415894  0
N  N76  1  0.39137630  0.38870560  0.65220811  1  0  -0.121515  0  3.334885  0  0  -0.046578  0  3.599441  0  0  -0.055261  0  3.614616  0  0  -0.206614  -0.04092  0  3.589428  0
N  N77  1  0.60862710  0.61129150  0.34779120  1  0  -0.121512  0  3.334873  0  0  -0.046542  0  3.599404  0  0  -0.055225  0  3.614579  0  0  -0.206544  -0.040876  0  3.589379  0
N  N78  1  0.30875647  0.47966755  0.87914054  1  0  -0.32961  0  3.007373  0  0  -0.295035  0  3.267771  0  0  -0.308405  0  3.278068  0  0  -0.270825  -0.286478  0  3.26161  0
N  N79  1  0.69124358  0.52033323  0.12085662  1  0  -0.329601  0  3.007444  0  0  -0.295047  0  3.267817  0  0  -0.308415  0  3.278112  0  0  -0.270843  -0.286488  0  3.261654  0
O  O80  1  0.13346405  0.29074998  0.40669636  1  0  -0.644521  0  1.964965  0  0  -0.598373  0  2.227218  0  0  -0.621352  0  2.215373  0  0  -0.332366  -0.58208  0  2.234912  0
O  O81  1  0.86654365  0.70924982  0.59329966  1  0  -0.644511  0  1.964957  0  0  -0.598377  0  2.22723  0  0  -0.621374  0  2.215426  0  0  -0.332369  -0.582083  0  2.234924  0
O  O82  1  0.16451119  0.48129934  0.29893123  1  0  -0.672242  0  2.087222  0  0  -0.606921  0  2.370396  0  0  -0.632759  0  2.354378  0  0  -0.34668  -0.588401  0  2.380806  0
O  O83  1  0.83548784  0.51870054  0.70106434  1  0  -0.672257  0  2.087219  0  0  -0.606952  0  2.370415  0  0  -0.632786  0  2.35439  0  0  -0.346715  -0.588432  0  2.380824  0
O  O84  1  0.88827223  0.41973937  0.35023944  1  0  -0.6774  0  2.084026  0  0  -0.61401  0  2.369265  0  0  -0.641861  0  2.355764  0  0  -0.35448  -0.593945  0  2.37756  0
O  O85  1  0.11172971  0.58025865  0.64976096  1  0  -0.677396  0  2.083911  0  0  -0.614025  0  2.369166  0  0  -0.641874  0  2.355665  0  0  -0.35451  -0.593959  0  2.377462  0
O  O86  1  0.67848217  0.27328457  0.78538070  1  0  -0.652978  0  1.951474  0  0  -0.606346  0  2.197973  0  0  -0.627537  0  2.187473  0  0  -0.347901  -0.59121  0  2.204688  0
O  O87  1  0.32151720  0.72671895  0.21461828  1  0  -0.652936  0  1.951395  0  0  -0.606325  0  2.197925  0  0  -0.627515  0  2.187425  0  0  -0.34787  -0.591185  0  2.204631  0
O  O88  1  0.70442954  0.05656299  0.72831713  1  0  -0.658145  0  1.949797  0  0  -0.610238  0  2.202479  0  0  -0.632103  0  2.191257  0  0  -0.341124  -0.594383  0  2.209364  0
O  O89  1  0.29556339  0.94344150  0.27168982  1  0  -0.65818  0  1.949916  0  0  -0.610253  0  2.202596  0  0  -0.632115  0  2.191379  0  0  -0.34112  -0.594398  0  2.209483  0
O  O90  1  0.72480769  0.20944242  0.57342797  1  0  -0.698161  0  2.019754  0  0  -0.631737  0  2.298963  0  0  -0.658112  0  2.282733  0  0  -0.357574  -0.613055  0  2.309303  0
O  O91  1  0.27519999  0.79055737  0.42657418  1  0  -0.698148  0  2.019606  0  0  -0.631767  0  2.298836  0  0  -0.658141  0  2.282603  0  0  -0.357591  -0.613085  0  2.309184  0
