# generated using pymatgen
data_NaSmH14C14(NO6)2
_symmetry_space_group_name_H-M   'P 1'
_cell_length_a   10.71714137
_cell_length_b   11.19973931
_cell_length_c   17.66575533
_cell_angle_alpha   90.00007233
_cell_angle_beta   89.99993133
_cell_angle_gamma   97.37630961
_symmetry_Int_Tables_number   1
_chemical_formula_structural   NaSmH14C14(NO6)2
_chemical_formula_sum   'Na4 Sm4 H56 C56 N8 O48'
_cell_volume   2102.85851454
_cell_formula_units_Z   4
loop_
 _symmetry_equiv_pos_site_id
 _symmetry_equiv_pos_as_xyz
  1  'x, y, z'
loop_
 _atom_site_type_symbol
 _atom_site_label
 _atom_site_symmetry_multiplicity
 _atom_site_fract_x
 _atom_site_fract_y
 _atom_site_fract_z
 _atom_site_occupancy
 _atom_site_pbe_bader_charge
 _atom_site_pbe_bader_spin_density
 _atom_site_pbe_cm5_charge
 _atom_site_pbe_ddec_charge
 _atom_site_pbe_ddec_spin_density
 _atom_site_pbe_ddec_sum_bond_order
 _atom_site_pbe_magmom
Na  Na0  1  0.93273624  0.89001421  0.86604111  1  0.877899  0  0.702854  0.849791  0  0.56698  0
Na  Na1  1  0.06726406  0.60998438  0.36604458  1  0.877911  0  0.702833  0.849744  0  0.56702  0
Na  Na2  1  0.06726715  0.10998515  0.13395863  1  0.877878  0  0.702845  0.849745  0  0.567039  0
Na  Na3  1  0.93273586  0.39001680  0.63396026  1  0.877885  0  0.702858  0.849758  0  0.567076  0
Sm  Sm4  1  0.90335424  0.21783869  0.81656151  1  2.185854  0  1.482687  1.990748  0  2.183106  0
Sm  Sm5  1  0.09664658  0.28216359  0.31655999  1  2.185902  0  1.482646  1.990697  0  2.183106  0
Sm  Sm6  1  0.09664474  0.78216250  0.18344220  1  2.185661  0  1.482671  1.990765  0  2.183072  0
Sm  Sm7  1  0.90335507  0.71783668  0.68344201  1  2.185727  0  1.482649  1.990808  0  2.183005  0
H  H8  1  0.44513278  0.39343702  0.84274291  1  0.102391  0  0.110643  0.115169  0  1.024802  0
H  H9  1  0.55486494  0.10656352  0.34274601  1  0.102431  0  0.110651  0.115144  0  1.024851  0
H  H10  1  0.55485867  0.60655700  0.15725401  1  0.102431  0  0.110644  0.115153  0  1.024862  0
H  H11  1  0.44513167  0.89343407  0.65725826  1  0.102406  0  0.110649  0.115148  0  1.024868  0
H  H12  1  0.30631940  0.19268198  0.83996292  1  0.101175  0  0.112785  0.112745  0  1.000962  0
H  H13  1  0.69368063  0.30731494  0.33996156  1  0.101155  0  0.112774  0.112704  0  1.000987  0
H  H14  1  0.69368020  0.80731020  0.16003739  1  0.101188  0  0.112763  0.11272  0  1.001014  0
H  H15  1  0.30632239  0.69268172  0.66004044  1  0.101285  0  0.11278  0.112754  0  1.00102  0
H  H16  1  0.40882785  0.00341257  0.83829970  1  0.153235  0  0.116367  0.133099  0  0.999885  0
H  H17  1  0.59117243  0.49658615  0.33829914  1  0.153237  0  0.116378  0.133096  0  0.99989  0
H  H18  1  0.59117174  0.99657961  0.16170117  1  0.153344  0  0.116345  0.13308  0  0.999931  0
H  H19  1  0.40883469  0.50341320  0.66169891  1  0.153291  0  0.116352  0.133058  0  0.999883  0
H  H20  1  0.31443497  0.56486381  0.86256442  1  0.136424  0  0.123688  0.136724  0  0.967573  0
H  H21  1  0.68556442  0.93514829  0.36256374  1  0.136404  0  0.123711  0.136785  0  0.967512  0
H  H22  1  0.68556625  0.43514006  0.13743192  1  0.136586  0  0.123728  0.136746  0  0.967529  0
H  H23  1  0.31444190  0.06485196  0.63742751  1  0.136558  0  0.123685  0.136678  0  0.96749  0
H  H24  1  0.32117620  0.55356982  0.00563587  1  0.093568  0  0.113762  0.112006  0  0.982359  0
H  H25  1  0.67881940  0.94644348  0.50563377  1  0.093704  0  0.113774  0.112045  0  0.982384  0
H  H26  1  0.67882441  0.44644307  0.99436048  1  0.093841  0  0.113761  0.112055  0  0.982337  0
H  H27  1  0.32117752  0.05354961  0.49435635  1  0.093861  0  0.113771  0.112043  0  0.982378  0
H  H28  1  0.15628720  0.41315225  0.07234743  1  0.117842  0  0.115505  0.115236  0  1.054328  0
H  H29  1  0.84371561  0.08685410  0.57234605  1  0.117931  0  0.115533  0.115256  0  1.05428  0
H  H30  1  0.84372478  0.58685518  0.92765118  1  0.117831  0  0.115509  0.115283  0  1.054313  0
H  H31  1  0.15627479  0.91313902  0.42764860  1  0.117744  0  0.115474  0.115289  0  1.054338  0
H  H32  1  0.12612936  0.05597543  0.82842139  1  0.650487  0  0.293596  0.387155  0  0.962381  0
H  H33  1  0.87387001  0.44402327  0.32842341  1  0.650403  0  0.293584  0.387179  0  0.96236  0
H  H34  1  0.87387099  0.94402214  0.17157665  1  0.650409  0  0.2936  0.387189  0  0.962346  0
H  H35  1  0.12612965  0.55597611  0.67157746  1  0.650341  0  0.293571  0.387185  0  0.962357  0
H  H36  1  0.09699879  0.08113779  0.91567044  1  0.645684  0  0.295853  0.396325  0  0.93502  0
H  H37  1  0.90300309  0.41886015  0.41567242  1  0.64567  0  0.295839  0.396316  0  0.935036  0
H  H38  1  0.90300740  0.91886156  0.08432874  1  0.645628  0  0.295815  0.39625  0  0.935132  0
H  H39  1  0.09699806  0.58113652  0.58432789  1  0.645672  0  0.295878  0.396425  0  0.934909  0
H  H40  1  0.74154694  0.16006490  0.67779023  1  0.661867  0  0.291603  0.389908  0  0.951461  0
H  H41  1  0.25845226  0.33993714  0.17778808  1  0.661733  0  0.291614  0.389978  0  0.951379  0
H  H42  1  0.25845260  0.83993358  0.32221404  1  0.661741  0  0.291654  0.390019  0  0.951317  0
H  H43  1  0.74154206  0.66006407  0.82221109  1  0.661844  0  0.291665  0.390046  0  0.951292  0
H  H44  1  0.71016203  0.29473991  0.68569373  1  0.639659  0  0.28724  0.387027  0  0.953839  0
H  H45  1  0.28984008  0.20526303  0.18569484  1  0.639639  0  0.287204  0.386968  0  0.953926  0
H  H46  1  0.28984056  0.70526036  0.31430262  1  0.639611  0  0.287205  0.386995  0  0.953899  0
H  H47  1  0.71016021  0.79474085  0.81430547  1  0.639625  0  0.28726  0.387097  0  0.953765  0
H  H48  1  0.00326527  0.15482823  0.66169212  1  0.640393  0  0.306265  0.402509  0  0.923172  0
H  H49  1  0.99673719  0.34517016  0.16169171  1  0.640388  0  0.306238  0.402506  0  0.923178  0
H  H50  1  0.99673054  0.84517026  0.33831385  1  0.640429  0  0.306244  0.402464  0  0.92324  0
H  H51  1  0.00327168  0.65482827  0.83831087  1  0.640365  0  0.306181  0.402421  0  0.923311  0
H  H52  1  0.91823491  0.03534468  0.69030246  1  0.650479  0  0.300523  0.389259  0  0.954949  0
H  H53  1  0.08176346  0.46465829  0.19030224  1  0.650484  0  0.300506  0.389233  0  0.954998  0
H  H54  1  0.08175941  0.96465653  0.30970181  1  0.651046  0  0.300529  0.389321  0  0.954886  0
H  H55  1  0.91823552  0.53534289  0.80970430  1  0.650804  0  0.300528  0.38933  0  0.954867  0
H  H56  1  0.85397299  0.04503977  0.98470824  1  0.636317  0  0.301226  0.390751  0  0.943544  0
H  H57  1  0.14603691  0.45495646  0.48470966  1  0.636245  0  0.301199  0.390762  0  0.943539  0
H  H58  1  0.14603370  0.95496318  0.01529263  1  0.636326  0  0.301194  0.390729  0  0.943568  0
H  H59  1  0.85396523  0.54503390  0.51529970  1  0.636356  0  0.301199  0.390764  0  0.943532  0
H  H60  1  0.75553491  0.92873607  0.98933906  1  0.623203  0  0.328273  0.399924  0  0.879883  0
H  H61  1  0.24447332  0.57126090  0.48933840  1  0.622993  0  0.328218  0.399825  0  0.880023  0
H  H62  1  0.24446911  0.07126779  0.01066634  1  0.623128  0  0.328224  0.399836  0  0.880068  0
H  H63  1  0.75553230  0.42872764  0.51067323  1  0.623109  0  0.328308  0.400023  0  0.879804  0
C  C64  1  0.70469933  0.42475103  0.84014118  1  1.576868  0  0.223055  0.556924  0  4.211181  0
C  C65  1  0.29529883  0.07524589  0.34013992  1  1.576933  0  0.223112  0.556832  0  4.211186  0
C  C66  1  0.29529703  0.57524476  0.15986196  1  1.576878  0  0.223113  0.556967  0  4.211205  0
C  C67  1  0.70469885  0.92475260  0.65986095  1  1.576902  0  0.223038  0.556732  0  4.211269  0
C  C68  1  0.61451186  0.30977609  0.84379400  1  0.490151  0  0.118084  0.112792  0  3.98931  0
C  C69  1  0.38548587  0.19022445  0.34379730  1  0.490326  0  0.118002  0.112735  0  3.989314  0
C  C70  1  0.38548358  0.69021971  0.15620178  1  0.490276  0  0.117984  0.112666  0  3.989298  0
C  C71  1  0.61451256  0.80977944  0.65620188  1  0.490291  0  0.118063  0.112875  0  3.989121  0
C  C72  1  0.48406201  0.30837373  0.84377367  1  0.009659  0  -0.06706  -0.112932  0  3.908909  0
C  C73  1  0.51593521  0.19162320  0.34377461  1  0.009652  0  -0.067034  -0.112839  0  3.908817  0
C  C74  1  0.51593304  0.69161936  0.15622495  1  0.00952  0  -0.067089  -0.112942  0  3.909046  0
C  C75  1  0.48406116  0.80837259  0.65622683  1  0.009638  0  -0.067045  -0.112928  0  3.908973  0
C  C76  1  0.40840823  0.19737788  0.84247905  1  -0.023354  0  -0.060689  -0.0183  0  3.916994  0
C  C77  1  0.59159416  0.30262263  0.34247776  1  -0.023293  0  -0.060642  -0.018251  0  3.916818  0
C  C78  1  0.59158962  0.80261520  0.15752069  1  -0.023175  0  -0.060627  -0.01818  0  3.916893  0
C  C79  1  0.40840750  0.69737764  0.65752311  1  -0.023513  0  -0.060704  -0.018309  0  3.917045  0
C  C80  1  0.46460205  0.09155709  0.84157838  1  -0.043661  0  -0.062083  -0.107998  0  3.883172  0
C  C81  1  0.53539767  0.40844433  0.34157722  1  -0.043616  0  -0.062138  -0.107993  0  3.883102  0
C  C82  1  0.53539487  0.90843599  0.15842250  1  -0.04371  0  -0.062037  -0.107994  0  3.883262  0
C  C83  1  0.46460449  0.59155954  0.65842196  1  -0.043625  0  -0.062062  -0.107924  0  3.883147  0
C  C84  1  0.59576890  0.10115795  0.84150474  1  0.488876  0  0.119208  0.119705  0  3.968093  0
C  C85  1  0.40423026  0.39884618  0.34150027  1  0.488764  0  0.119225  0.119683  0  3.96803  0
C  C86  1  0.40423076  0.89884143  0.15849670  1  0.488593  0  0.119176  0.119664  0  3.968136  0
C  C87  1  0.59577053  0.60116130  0.65849720  1  0.488875  0  0.11918  0.119565  0  3.968191  0
C  C88  1  0.66757513  0.99409562  0.83554043  1  1.589309  0  0.214318  0.560177  0  4.238693  0
C  C89  1  0.33243145  0.50590740  0.33554249  1  1.589277  0  0.214232  0.560082  0  4.238671  0
C  C90  1  0.33242479  0.00590556  0.16445761  1  1.589552  0  0.214231  0.560013  0  4.23868  0
C  C91  1  0.66757686  0.49409375  0.66445499  1  1.589323  0  0.214275  0.560131  0  4.238421  0
C  C92  1  0.13984685  0.42953434  0.77108462  1  1.626611  0  0.224583  0.582382  0  4.21827  0
C  C93  1  0.86014759  0.07047509  0.27108182  1  1.626348  0  0.224589  0.582278  0  4.218233  0
C  C94  1  0.86015014  0.57046595  0.22891513  1  1.626355  0  0.224546  0.582261  0  4.21822  0
C  C95  1  0.13985108  0.92953060  0.72891396  1  1.626533  0  0.224533  0.582263  0  4.21841  0
C  C96  1  0.15346764  0.42890787  0.85614353  1  0.476998  0  0.124011  0.119413  0  3.973907  0
C  C97  1  0.84652970  0.07110351  0.35614187  1  0.477426  0  0.12409  0.119537  0  3.973515  0
C  C98  1  0.84653464  0.57109691  0.14385452  1  0.477115  0  0.124063  0.119524  0  3.973787  0
C  C99  1  0.15346605  0.92890130  0.64385335  1  0.477381  0  0.123954  0.119372  0  3.973705  0
C  C100  1  0.24666436  0.50397000  0.89471363  1  -0.001054  0  -0.059548  -0.110569  0  3.893569  0
C  C101  1  0.75332807  0.99603949  0.39471351  1  -0.001079  0  -0.059623  -0.110711  0  3.893433  0
C  C102  1  0.75333618  0.49603568  0.10528272  1  -0.001069  0  -0.059537  -0.110513  0  3.893354  0
C  C103  1  0.24666761  0.00395811  0.60527887  1  -0.001019  0  -0.059452  -0.110358  0  3.89325  0
C  C104  1  0.24864517  0.49811920  0.97352260  1  0.016189  0  -0.056198  -0.011832  0  3.915766  0
C  C105  1  0.75135079  0.00189058  0.47351868  1  0.016046  0  -0.056191  -0.011827  0  3.915962  0
C  C106  1  0.75135681  0.50189007  0.02647488  1  0.015992  0  -0.056277  -0.011977  0  3.915959  0
C  C107  1  0.24864240  0.99810253  0.52647200  1  0.015975  0  -0.056318  -0.012018  0  3.916283  0
C  C108  1  0.15688282  0.42018369  0.01108201  1  -0.046335  0  -0.066833  -0.113735  0  3.89793  0
C  C109  1  0.84311382  0.07982438  0.51108289  1  -0.046463  0  -0.06681  -0.113717  0  3.89777  0
C  C110  1  0.84312145  0.57982198  0.98891434  1  -0.046505  0  -0.066856  -0.113902  0  3.897892  0
C  C111  1  0.15687881  0.92017143  0.48891290  1  -0.046861  0  -0.066759  -0.113879  0  3.898036  0
C  C112  1  0.06568305  0.34974006  0.96844894  1  0.4755  0  0.118455  0.110341  0  3.979036  0
C  C113  1  0.93431856  0.15026338  0.46844502  1  0.475767  0  0.118461  0.110382  0  3.979053  0
C  C114  1  0.93432564  0.65026378  0.03155193  1  0.475608  0  0.118455  0.110526  0  3.978847  0
C  C115  1  0.06567271  0.84973604  0.53155019  1  0.475918  0  0.118424  0.110625  0  3.978685  0
C  C116  1  0.96426942  0.26020456  0.00388977  1  1.605341  0  0.219414  0.573725  0  4.222463  0
C  C117  1  0.03573051  0.23979357  0.50388683  1  1.604922  0  0.219441  0.573641  0  4.222393  0
C  C118  1  0.03573503  0.73979569  0.99611394  1  1.604953  0  0.219493  0.573761  0  4.22252  0
C  C119  1  0.96426174  0.76019954  0.49611348  1  1.60501  0  0.21951  0.573777  0  4.222616  0
N  N120  1  0.66816724  0.20818086  0.84279766  1  -1.231522  0  -0.385516  -0.363556  0  3.547458  0
N  N121  1  0.33183248  0.29182057  0.34279712  1  -1.231675  0  -0.385509  -0.363555  0  3.54736  0
N  N122  1  0.33182937  0.79181673  0.15720322  1  -1.231716  0  -0.385467  -0.363467  0  3.547273  0
N  N123  1  0.66817248  0.70818329  0.65720093  1  -1.231752  0  -0.385524  -0.363523  0  3.547307  0
N  N124  1  0.06595573  0.35388920  0.89258805  1  -1.248077  0  -0.38825  -0.367327  0  3.557604  0
N  N125  1  0.93403999  0.14611774  0.39258582  1  -1.24848  0  -0.388331  -0.367387  0  3.557745  0
N  N126  1  0.93404393  0.64611018  0.10741282  1  -1.248187  0  -0.38829  -0.367441  0  3.557756  0
N  N127  1  0.06595390  0.85388707  0.60741222  1  -1.248197  0  -0.388242  -0.36744  0  3.557588  0
O  O128  1  0.66172568  0.52364980  0.84275364  1  -1.172362  0  -0.29806  -0.516612  0  2.152193  0
O  O129  1  0.33827933  0.97634873  0.34275946  1  -1.172417  0  -0.298022  -0.516508  0  2.152067  0
O  O130  1  0.33827585  0.47634957  0.15724214  1  -1.172442  0  -0.298073  -0.516617  0  2.152101  0
O  O131  1  0.66172338  0.02365243  0.65724311  1  -1.172426  0  -0.298019  -0.516507  0  2.152135  0
O  O132  1  0.82209477  0.41105907  0.83416630  1  -1.178787  0  -0.371794  -0.65033  0  2.355101  0
O  O133  1  0.17790522  0.08894414  0.33416457  1  -1.178846  0  -0.371839  -0.650326  0  2.35522  0
O  O134  1  0.17790875  0.58894119  0.16583741  1  -1.17884  0  -0.371783  -0.650284  0  2.355259  0
O  O135  1  0.82209414  0.91105974  0.66583914  1  -1.178823  0  -0.371782  -0.650243  0  2.355107  0
O  O136  1  0.60917573  0.88953000  0.83783128  1  -1.162241  0  -0.308029  -0.521345  0  2.114196  0
O  O137  1  0.39083178  0.61047302  0.33782659  1  -1.162345  0  -0.307997  -0.521291  0  2.114086  0
O  O138  1  0.39082847  0.11046846  0.16216676  1  -1.162241  0  -0.308018  -0.521273  0  2.114206  0
O  O139  1  0.60917131  0.38953085  0.66216070  1  -1.162214  0  -0.30804  -0.52133  0  2.114048  0
O  O140  1  0.78766141  0.01941134  0.82792243  1  -1.200708  0  -0.462564  -0.710509  0  2.346228  0
O  O141  1  0.21234163  0.48059365  0.32792552  1  -1.200604  0  -0.462491  -0.710464  0  2.34611  0
O  O142  1  0.21233639  0.98058805  0.17207731  1  -1.200751  0  -0.462507  -0.710425  0  2.346123  0
O  O143  1  0.78766518  0.51941020  0.67208214  1  -1.200776  0  -0.462528  -0.710501  0  2.346131  0
O  O144  1  0.04852726  0.35652102  0.74409398  1  -1.205747  0  -0.451181  -0.68817  0  2.304459  0
O  O145  1  0.95146126  0.14348569  0.24408891  1  -1.205794  0  -0.451153  -0.688101  0  2.30455  0
O  O146  1  0.95146476  0.64348380  0.25590802  1  -1.205582  0  -0.451102  -0.688069  0  2.304402  0
O  O147  1  0.04853841  0.85651369  0.75590800  1  -1.205575  0  -0.451091  -0.688093  0  2.304453  0
O  O148  1  0.21429046  0.50216520  0.73333588  1  -1.172639  0  -0.299917  -0.530753  0  2.195099  0
O  O149  1  0.78570188  0.99784131  0.23333235  1  -1.172416  0  -0.299952  -0.530762  0  2.194933  0
O  O150  1  0.78570467  0.49783510  0.26666386  1  -1.172444  0  -0.299924  -0.53074  0  2.195025  0
O  O151  1  0.21429425  0.00216620  0.76666004  1  -1.172709  0  -0.2999  -0.530695  0  2.195139  0
O  O152  1  0.89195653  0.19555821  0.95725291  1  -1.191847  0  -0.365591  -0.641854  0  2.282679  0
O  O153  1  0.10804913  0.30444069  0.45725141  1  -1.191711  0  -0.365626  -0.64185  0  2.282727  0
O  O154  1  0.10805221  0.80443933  0.04275079  1  -1.191829  0  -0.365676  -0.641985  0  2.282712  0
O  O155  1  0.89194307  0.69555873  0.54275117  1  -1.191973  0  -0.365666  -0.641984  0  2.282889  0
O  O156  1  0.95926772  0.25098853  0.07474493  1  -1.20773  0  -0.374603  -0.595945  0  2.195985  0
O  O157  1  0.04073831  0.24901420  0.57474483  1  -1.207506  0  -0.374616  -0.595912  0  2.195756  0
O  O158  1  0.04074333  0.74901891  0.92525707  1  -1.207469  0  -0.374585  -0.59589  0  2.195846  0
O  O159  1  0.95925463  0.75097710  0.42525718  1  -1.207511  0  -0.374621  -0.595946  0  2.195902  0
O  O160  1  0.06344158  0.08758201  0.86366702  1  -1.317748  0  -0.674924  -0.896492  0  2.102493  0
O  O161  1  0.93655997  0.41241945  0.36366783  1  -1.317644  0  -0.674886  -0.896481  0  2.102493  0
O  O162  1  0.93656101  0.91241826  0.13633272  1  -1.317624  0  -0.674891  -0.896434  0  2.102545  0
O  O163  1  0.06344231  0.58758532  0.63633191  1  -1.317608  0  -0.674928  -0.896642  0  2.102446  0
O  O164  1  0.77922642  0.24273365  0.69389656  1  -1.32906  0  -0.677242  -0.904129  0  2.108601  0
O  O165  1  0.22077262  0.25726752  0.19389437  1  -1.328905  0  -0.677239  -0.904156  0  2.108578  0
O  O166  1  0.22077417  0.75726573  0.30610602  1  -1.328879  0  -0.677272  -0.904252  0  2.108548  0
O  O167  1  0.77922530  0.74273277  0.80610651  1  -1.328977  0  -0.677324  -0.904354  0  2.108423  0
O  O168  1  0.97658532  0.10755976  0.70739316  1  -1.281767  0  -0.631967  -0.81596  0  2.0814  0
O  O169  1  0.02341345  0.39243964  0.20739292  1  -1.281775  0  -0.631906  -0.815925  0  2.081417  0
O  O170  1  0.02341142  0.89243874  0.29261224  1  -1.282337  0  -0.631949  -0.815993  0  2.081354  0
O  O171  1  0.97658621  0.60755974  0.79261078  1  -1.282017  0  -0.631868  -0.815943  0  2.081384  0
O  O172  1  0.84531247  0.95571382  0.99324943  1  -1.257261  0  -0.581915  -0.765473  0  1.956864  0
O  O173  1  0.15469736  0.54428134  0.49325334  1  -1.257039  0  -0.581835  -0.76536  0  1.956966  0
O  O174  1  0.15469316  0.04428823  0.00675144  1  -1.257206  0  -0.581845  -0.765344  0  1.957077  0
O  O175  1  0.84530745  0.45570810  0.50675602  1  -1.257226  0  -0.581942  -0.765569  0  1.956797  0
