# generated using pymatgen
data_Cu2H12C20SN8
_symmetry_space_group_name_H-M   'P 1'
_cell_length_a   6.78629458
_cell_length_b   8.26214815
_cell_length_c   18.28553327
_cell_angle_alpha   90.00011185
_cell_angle_beta   89.99972470
_cell_angle_gamma   111.70823661
_symmetry_Int_Tables_number   1
_chemical_formula_structural   Cu2H12C20SN8
_chemical_formula_sum   'Cu4 H24 C40 S2 N16'
_cell_volume   952.54642439
_cell_formula_units_Z   2
loop_
 _symmetry_equiv_pos_site_id
 _symmetry_equiv_pos_as_xyz
  1  'x, y, z'
loop_
 _atom_site_type_symbol
 _atom_site_label
 _atom_site_symmetry_multiplicity
 _atom_site_fract_x
 _atom_site_fract_y
 _atom_site_fract_z
 _atom_site_occupancy
 _atom_site_hle17_bader_spin_density
 _atom_site_hle17_ddec_charge
 _atom_site_hle17_ddec_spin_density
 _atom_site_hle17_ddec_sum_bond_order
 _atom_site_hle17_magmom
 _atom_site_hse06_10hf_bader_spin_density
 _atom_site_hse06_10hf_ddec_charge
 _atom_site_hse06_10hf_ddec_spin_density
 _atom_site_hse06_10hf_ddec_sum_bond_order
 _atom_site_hse06_10hf_magmom
 _atom_site_hse06_bader_spin_density
 _atom_site_hse06_ddec_charge
 _atom_site_hse06_ddec_spin_density
 _atom_site_hse06_ddec_sum_bond_order
 _atom_site_hse06_magmom
 _atom_site_pbe_bader_spin_density
 _atom_site_pbe_cm5_charge
 _atom_site_pbe_ddec_charge
 _atom_site_pbe_ddec_spin_density
 _atom_site_pbe_ddec_sum_bond_order
 _atom_site_pbe_magmom
Cu  Cu0  1  0.33994581  0.63819253  0.21070917  1  0  0.487637  0  2.182773  0  0  0.39859  0  2.664217  0  0  0.374136  0  2.643994  0  0  0.58188  0.417232  0  2.674699  0
Cu  Cu1  1  0.66005004  0.36180026  0.71070247  1  0  0.487729  0  2.182589  0  0  0.398672  0  2.664038  0  0  0.374267  0  2.643806  0  0  0.581857  0.417361  0  2.674555  0
Cu  Cu2  1  0.91095880  0.70990859  0.48956858  1  0  0.4168  0  2.264254  0  0  0.3279  0  2.753657  0  0  0.313567  0  2.720848  0  0  0.517086  0.342423  0  2.771616  0
Cu  Cu3  1  0.08906082  0.29010388  0.98957303  1  0  0.416652  0  2.264282  0  0  0.327699  0  2.753644  0  0  0.313359  0  2.720816  0  0  0.516968  0.342219  0  2.77161  0
H  H4  1  0.17291746  0.21534122  0.23043840  1  0  0.079839  0  0.918678  0  0  0.090126  0  0.978039  0  0  0.092576  0  0.97697  0  0  0.115422  0.088438  0  0.978823  0
H  H5  1  0.82706164  0.78466078  0.73042683  1  0  0.079786  0  0.918588  0  0  0.090034  0  0.978017  0  0  0.092481  0  0.976952  0  0  0.115388  0.088347  0  0.978804  0
H  H6  1  0.22368895  0.00795897  0.32179248  1  0  0.10119  0  0.972077  0  0  0.10725  0  1.039867  0  0  0.109764  0  1.040326  0  0  0.098816  0.105443  0  1.039761  0
H  H7  1  0.77630613  0.99204564  0.82178659  1  0  0.101322  0  0.972058  0  0  0.107299  0  1.039949  0  0  0.10983  0  1.040359  0  0  0.098847  0.105494  0  1.039841  0
H  H8  1  0.44877635  0.13163758  0.43301581  1  0  0.095021  0  0.927105  0  0  0.110132  0  0.978569  0  0  0.112062  0  0.978745  0  0  0.107277  0.108758  0  0.978477  0
H  H9  1  0.55122966  0.86835925  0.93301234  1  0  0.095141  0  0.927017  0  0  0.110204  0  0.978501  0  0  0.112132  0  0.97868  0  0  0.107307  0.108822  0  0.978418  0
H  H10  1  0.62019138  0.45576972  0.44607147  1  0  0.094131  0  1.008081  0  0  0.097594  0  1.084398  0  0  0.103363  0  1.079433  0  0  0.093877  0.093365  0  1.088001  0
H  H11  1  0.37981415  0.54422972  0.94607076  1  0  0.094278  0  1.007896  0  0  0.097711  0  1.084248  0  0  0.103493  0  1.079262  0  0  0.093881  0.093476  0  1.087856  0
H  H12  1  0.15937288  0.97753051  0.59817145  1  0  0.069356  0  0.978888  0  0  0.076016  0  1.047708  0  0  0.078154  0  1.047218  0  0  0.109276  0.074286  0  1.04846  0
H  H13  1  0.84063324  0.02247131  0.09817319  1  0  0.069316  0  0.97893  0  0  0.075989  0  1.047736  0  0  0.078121  0  1.047248  0  0  0.10927  0.07426  0  1.048486  0
H  H14  1  0.27985432  0.29957216  0.61313488  1  0  0.110476  0  0.953014  0  0  0.111878  0  1.028881  0  0  0.117765  0  1.023907  0  0  0.10405  0.10779  0  1.032283  0
H  H15  1  0.72015011  0.70042967  0.11313451  1  0  0.110446  0  0.952994  0  0  0.111851  0  1.02886  0  0  0.117737  0  1.02389  0  0  0.104039  0.107759  0  1.032257  0
H  H16  1  0.14711582  0.46937566  0.52138271  1  0  0.096585  0  0.956867  0  0  0.10598  0  1.021409  0  0  0.110135  0  1.017285  0  0  0.106322  0.102829  0  1.024522  0
H  H17  1  0.85288236  0.53062873  0.02137822  1  0  0.096614  0  0.956887  0  0  0.105993  0  1.021445  0  0  0.11015  0  1.017318  0  0  0.106326  0.102851  0  1.024529  0
H  H18  1  0.91251710  0.30695082  0.42037877  1  0  0.121541  0  0.949118  0  0  0.127942  0  1.014568  0  0  0.131836  0  1.012359  0  0  0.111844  0.125079  0  1.016351  0
H  H19  1  0.08747590  0.69305909  0.92037639  1  0  0.121588  0  0.94907  0  0  0.127961  0  1.014578  0  0  0.131828  0  1.012398  0  0  0.111859  0.125104  0  1.016336  0
H  H20  1  0.83185455  0.29754950  0.24625757  1  0  0.112523  0  0.968331  0  0  0.114071  0  1.042976  0  0  0.118364  0  1.040313  0  0  0.103738  0.111067  0  1.044921  0
H  H21  1  0.16814991  0.70245373  0.74625235  1  0  0.112555  0  0.968398  0  0  0.114082  0  1.043077  0  0  0.118362  0  1.040452  0  0  0.103724  0.111085  0  1.045008  0
H  H22  1  0.75042412  0.43346487  0.13502384  1  0  0.094363  0  0.958513  0  0  0.107098  0  1.017196  0  0  0.109287  0  1.016417  0  0  0.104771  0.10551  0  1.017874  0
H  H23  1  0.24957936  0.56652915  0.63502388  1  0  0.094395  0  0.958588  0  0  0.107131  0  1.017274  0  0  0.10931  0  1.016492  0  0  0.104796  0.105549  0  1.017951  0
H  H24  1  0.48455461  0.24332842  0.04361673  1  0  0.105762  0  0.959737  0  0  0.109165  0  1.03059  0  0  0.113506  0  1.027109  0  0  0.102666  0.106035  0  1.033265  0
H  H25  1  0.51544789  0.75666032  0.54361214  1  0  0.105918  0  0.959616  0  0  0.109332  0  1.03044  0  0  0.113673  0  1.02696  0  0  0.102755  0.106203  0  1.033115  0
H  H26  1  0.32023512  0.92124667  0.06910061  1  0  0.069276  0  0.964264  0  0  0.076992  0  1.029575  0  0  0.077858  0  1.031417  0  0  0.10737  0.076434  0  1.028333  0
H  H27  1  0.67976759  0.07874339  0.56909697  1  0  0.069351  0  0.964291  0  0  0.077072  0  1.029599  0  0  0.077932  0  1.031455  0  0  0.107411  0.076515  0  1.028347  0
C  C28  1  0.26989469  0.26274607  0.27927204  1  0  0.13862  0  3.690813  0  0  0.110747  0  3.950285  0  0  0.114958  0  3.965074  0  0  0.051415  0.107916  0  3.94018  0
C  C29  1  0.73009836  0.73724939  0.77926603  1  0  0.138781  0  3.690972  0  0  0.11092  0  3.950443  0  0  0.115134  0  3.965237  0  0  0.051489  0.108085  0  3.940349  0
C  C30  1  0.29924089  0.14807089  0.33030412  1  0  -0.099077  0  3.702828  0  0  -0.116387  0  3.961326  0  0  -0.121025  0  3.983017  0  0  -0.081639  -0.113363  0  3.946771  0
C  C31  1  0.70076140  0.85192718  0.83029660  1  0  -0.099155  0  3.703085  0  0  -0.116395  0  3.961534  0  0  -0.121029  0  3.983238  0  0  -0.08158  -0.113371  0  3.946978  0
C  C32  1  0.42518347  0.21722037  0.39142724  1  0  -0.006586  0  3.714323  0  0  -0.025399  0  3.965529  0  0  -0.025063  0  3.987442  0  0  -0.069446  -0.025271  0  3.95034  0
C  C33  1  0.57482379  0.78278425  0.89142149  1  0  -0.006706  0  3.714537  0  0  -0.025445  0  3.96567  0  0  -0.025112  0  3.987592  0  0  -0.069526  -0.025313  0  3.950477  0
C  C34  1  0.51995271  0.39730795  0.39911801  1  0  -0.106856  0  3.681374  0  0  -0.122702  0  3.92155  0  0  -0.127964  0  3.942223  0  0  -0.073838  -0.119087  0  3.907619  0
C  C35  1  0.48003648  0.60269282  0.89911228  1  0  -0.107139  0  3.681572  0  0  -0.122942  0  3.921713  0  0  -0.128215  0  3.942382  0  0  -0.073903  -0.119322  0  3.907786  0
C  C36  1  0.48458652  0.50294217  0.34493261  1  0  0.134682  0  3.737822  0  0  0.134252  0  3.977761  0  0  0.134867  0  3.997378  0  0  0.115382  0.133662  0  3.964531  0
C  C37  1  0.51540497  0.49706509  0.84492730  1  0  0.134685  0  3.737897  0  0  0.134204  0  3.977909  0  0  0.134821  0  3.997532  0  0  0.115409  0.133612  0  3.964688  0
C  C38  1  0.58412908  0.69477045  0.34520003  1  0  0.386925  0  3.706719  0  0  0.359608  0  3.965109  0  0  0.378519  0  3.971887  0  0  0.254073  0.347443  0  3.960922  0
C  C39  1  0.41585974  0.30522767  0.84519419  1  0  0.387044  0  3.706428  0  0  0.359741  0  3.964851  0  0  0.378659  0  3.971621  0  0  0.254065  0.347572  0  3.960686  0
C  C40  1  0.78077018  0.95712146  0.39623103  1  0  0.366213  0  3.744695  0  0  0.338554  0  4.010717  0  0  0.361828  0  4.013915  0  0  0.244858  0.323671  0  4.008717  0
C  C41  1  0.21922700  0.04288059  0.89622748  1  0  0.366303  0  3.744594  0  0  0.338602  0  4.010715  0  0  0.361869  0  4.013919  0  0  0.244854  0.323716  0  4.008736  0
C  C42  1  0.91570805  0.05856123  0.45576568  1  0  0.120156  0  3.759719  0  0  0.120108  0  4.00267  0  0  0.121584  0  4.019312  0  0  0.110874  0.118615  0  3.992056  0
C  C43  1  0.08428205  0.94144349  0.95576620  1  0  0.120298  0  3.759697  0  0  0.120199  0  4.002719  0  0  0.121672  0  4.019362  0  0  0.110939  0.1187  0  3.992119  0
C  C44  1  0.10998215  0.05603365  0.55983869  1  0  0.119146  0  3.696063  0  0  0.090618  0  3.948349  0  0  0.096517  0  3.961526  0  0  0.043325  0.086592  0  3.940255  0
C  C45  1  0.89001986  0.94397076  0.05983770  1  0  0.119269  0  3.695935  0  0  0.090729  0  3.948201  0  0  0.096637  0  3.961379  0  0  0.043372  0.086702  0  3.940104  0
C  C46  1  0.17391145  0.23580768  0.56819667  1  0  -0.094918  0  3.684227  0  0  -0.10725  0  3.931873  0  0  -0.109635  0  3.947057  0  0  -0.077192  -0.106347  0  3.922476  0
C  C47  1  0.82609101  0.76419152  0.06819511  1  0  -0.094925  0  3.684145  0  0  -0.10726  0  3.931789  0  0  -0.109649  0  3.946976  0  0  -0.077211  -0.106353  0  3.922385  0
C  C48  1  0.10305082  0.32883534  0.51755289  1  0  -0.002168  0  3.702602  0  0  -0.018691  0  3.946529  0  0  -0.015538  0  3.962181  0  0  -0.065053  -0.020895  0  3.936673  0
C  C49  1  0.89694505  0.67116384  0.01755335  1  0  -0.002205  0  3.702734  0  0  -0.018711  0  3.946627  0  0  -0.015556  0  3.962269  0  0  -0.065076  -0.020917  0  3.936782  0
C  C50  1  0.97095501  0.23914214  0.46089544  1  0  -0.113391  0  3.680773  0  0  -0.136952  0  3.931265  0  0  -0.1398  0  3.94897  0  0  -0.071925  -0.135245  0  3.919987  0
C  C51  1  0.02903767  0.76086519  0.96089373  1  0  -0.113475  0  3.680836  0  0  -0.137009  0  3.931323  0  0  -0.139839  0  3.949044  0  0  -0.071939  -0.135303  0  3.920054  0
C  C52  1  0.64605690  0.95024563  0.28218031  1  0  0.384891  0  3.736272  0  0  0.357998  0  3.997395  0  0  0.378381  0  4.002551  0  0  0.253059  0.344272  0  3.994347  0
C  C53  1  0.35394084  0.04976026  0.78217657  1  0  0.384919  0  3.736403  0  0  0.357995  0  3.997615  0  0  0.378379  0  4.002775  0  0  0.253052  0.344273  0  3.994569  0
C  C54  1  0.61358214  0.03932648  0.21616117  1  0  0.115028  0  3.78585  0  0  0.12036  0  4.024866  0  0  0.1199  0  4.043316  0  0  0.11253  0.12057  0  4.012482  0
C  C55  1  0.38641895  0.96067152  0.71615745  1  0  0.114823  0  3.786077  0  0  0.120186  0  4.025058  0  0  0.119728  0  4.04351  0  0  0.112443  0.120395  0  4.012683  0
C  C56  1  0.71902161  0.21880792  0.20588855  1  0  -0.116583  0  3.696186  0  0  -0.138584  0  3.944814  0  0  -0.142025  0  3.964387  0  0  -0.074442  -0.136449  0  3.931824  0
C  C57  1  0.28098404  0.78119005  0.70588650  1  0  -0.116527  0  3.696275  0  0  -0.13853  0  3.944884  0  0  -0.141976  0  3.964447  0  0  -0.074399  -0.136392  0  3.931903  0
C  C58  1  0.67307754  0.29373607  0.14323854  1  0  -0.008268  0  3.717708  0  0  -0.026254  0  3.965863  0  0  -0.024295  0  3.983835  0  0  -0.065796  -0.02756  0  3.953982  0
C  C59  1  0.32693230  0.70625924  0.64323582  1  0  -0.008277  0  3.71782  0  0  -0.026264  0  3.965963  0  0  -0.024297  0  3.983944  0  0  -0.065852  -0.027571  0  3.954088  0
C  C60  1  0.52759589  0.18871013  0.09260131  1  0  -0.1021  0  3.696369  0  0  -0.11507  0  3.948115  0  0  -0.118155  0  3.966177  0  0  -0.077123  -0.113434  0  3.936406  0
C  C61  1  0.47240765  0.81128255  0.59259682  1  0  -0.102299  0  3.696306  0  0  -0.115272  0  3.948051  0  0  -0.118361  0  3.966109  0  0  -0.077124  -0.113636  0  3.936344  0
C  C62  1  0.43362178  0.01013205  0.10692193  1  0  0.11907  0  3.721608  0  0  0.094754  0  3.976014  0  0  0.09733  0  3.993956  0  0  0.043976  0.093022  0  3.963886  0
C  C63  1  0.56638184  0.98986456  0.60692015  1  0  0.119001  0  3.721545  0  0  0.09466  0  3.975961  0  0  0.097236  0  3.993901  0  0  0.04389  0.092938  0  3.963833  0
C  C64  1  0.05369505  0.67160971  0.34006574  1  0  0.274645  0  3.988132  0  0  0.264718  0  4.283324  0  0  0.280563  0  4.304204  0  0  0.131199  0.254356  0  4.268999  0
C  C65  1  0.94630710  0.32839489  0.84007830  1  0  0.274724  0  3.988468  0  0  0.264804  0  4.28363  0  0  0.280646  0  4.304517  0  0  0.1313  0.254446  0  4.269311  0
C  C66  1  0.20373681  0.43874561  0.06755778  1  0  -0.140993  0  3.54753  0  0  -0.140514  0  3.923938  0  0  -0.130998  0  3.926535  0  0  -0.066063  -0.147567  0  3.92058  0
C  C67  1  0.79629361  0.56125349  0.56754883  1  0  -0.140999  0  3.547157  0  0  -0.140528  0  3.923572  0  0  -0.131004  0  3.926167  0  0  -0.066002  -0.147584  0  3.920229  0
S  S68  1  0.02800394  0.67252347  0.25156848  1  0  -0.310611  0  2.333144  0  0  -0.285691  0  2.694193  0  0  -0.299284  0  2.690876  0  0  -0.154602  -0.276716  0  2.696089  0
S  S69  1  0.97198982  0.32746935  0.75157553  1  0  -0.310769  0  2.332963  0  0  -0.285797  0  2.693944  0  0  -0.299389  0  2.690604  0  0  -0.154651  -0.276832  0  2.695861  0
N  N70  1  0.35841696  0.43572444  0.28644163  1  0  -0.306192  0  3.251308  0  0  -0.257684  0  3.532997  0  0  -0.261256  0  3.541238  0  0  -0.3249  -0.254795  0  3.526736  0
N  N71  1  0.64157069  0.56427235  0.78643728  1  0  -0.306241  0  3.251693  0  0  -0.257704  0  3.533421  0  0  -0.261282  0  3.541655  0  0  -0.324944  -0.254822  0  3.527182  0
N  N72  1  0.69209918  0.78166725  0.40355869  1  0  -0.416247  0  3.072166  0  0  -0.364364  0  3.337982  0  0  -0.376913  0  3.339021  0  0  -0.309521  -0.357888  0  3.338014  0
N  N73  1  0.30789464  0.21833090  0.90355294  1  0  -0.416414  0  3.072276  0  0  -0.364481  0  3.338094  0  0  -0.377033  0  3.339127  0  0  -0.30951  -0.358007  0  3.338157  0
N  N74  1  0.98574199  0.96819518  0.50453509  1  0  -0.301569  0  3.350695  0  0  -0.242319  0  3.640316  0  0  -0.247138  0  3.645656  0  0  -0.351736  -0.23994  0  3.636904  0
N  N75  1  0.01426086  0.03180919  0.00453583  1  0  -0.301683  0  3.350938  0  0  -0.242375  0  3.640519  0  0  -0.247194  0  3.645853  0  0  -0.351736  -0.239995  0  3.637108  0
N  N76  1  0.75724000  0.04573899  0.33747719  1  0  -0.425735  0  3.022912  0  0  -0.388191  0  3.288516  0  0  -0.40515  0  3.296712  0  0  -0.299318  -0.377603  0  3.283411  0
N  N77  1  0.24275659  0.95426302  0.83747476  1  0  -0.425651  0  3.022785  0  0  -0.388073  0  3.288438  0  0  -0.405025  0  3.296626  0  0  -0.299249  -0.377485  0  3.283341  0
N  N78  1  0.47392909  0.93693450  0.16736179  1  0  -0.317296  0  3.215314  0  0  -0.275365  0  3.487935  0  0  -0.27898  0  3.497673  0  0  -0.317743  -0.272429  0  3.480702  0
N  N79  1  0.52607449  0.06306084  0.66735946  1  0  -0.317278  0  3.215305  0  0  -0.275323  0  3.487902  0  0  -0.278945  0  3.497649  0  0  -0.317737  -0.272389  0  3.480684  0
N  N80  1  0.56158330  0.77363564  0.28221476  1  0  -0.430813  0  3.266464  0  0  -0.380138  0  3.566358  0  0  -0.386955  0  3.56636  0  0  -0.354859  -0.376316  0  3.566355  0
N  N81  1  0.43839971  0.22636377  0.78221048  1  0  -0.430819  0  3.266409  0  0  -0.380189  0  3.566403  0  0  -0.387029  0  3.566424  0  0  -0.354842  -0.376383  0  3.566441  0
N  N82  1  0.06693016  0.67618643  0.40499575  1  0  -0.515036  0  3.02061  0  0  -0.469063  0  3.33188  0  0  -0.48341  0  3.336688  0  0  -0.442256  -0.460058  0  3.327655  0
N  N83  1  0.93306275  0.32381304  0.90500067  1  0  -0.514971  0  3.021136  0  0  -0.468989  0  3.332329  0  0  -0.483332  0  3.337125  0  0  -0.442253  -0.459981  0  3.328102  0
N  N84  1  0.27243976  0.52457704  0.11977882  1  0  -0.399348  0  3.357894  0  0  -0.341737  0  3.696137  0  0  -0.353143  0  3.708134  0  0  -0.447608  -0.333758  0  3.686827  0
N  N85  1  0.72758337  0.47541430  0.61977375  1  0  -0.399494  0  3.357518  0  0  -0.34188  0  3.695764  0  0  -0.35329  0  3.707761  0  0  -0.447736  -0.33391  0  3.686494  0
