# generated using pymatgen
data_ZnH16C12N2O9
_symmetry_space_group_name_H-M   'P 1'
_cell_length_a   4.94285847
_cell_length_b   4.94278501
_cell_length_c   30.62598936
_cell_angle_alpha   89.43627276
_cell_angle_beta   89.43580837
_cell_angle_gamma   86.04748594
_symmetry_Int_Tables_number   1
_chemical_formula_structural   ZnH16C12N2O9
_chemical_formula_sum   'Zn2 H32 C24 N4 O18'
_cell_volume   746.39112729
_cell_formula_units_Z   2
loop_
 _symmetry_equiv_pos_site_id
 _symmetry_equiv_pos_as_xyz
  1  'x, y, z'
loop_
 _atom_site_type_symbol
 _atom_site_label
 _atom_site_symmetry_multiplicity
 _atom_site_fract_x
 _atom_site_fract_y
 _atom_site_fract_z
 _atom_site_occupancy
 _atom_site_pbe_bader_spin_density
 _atom_site_pbe_cm5_charge
 _atom_site_pbe_ddec_charge
 _atom_site_pbe_ddec_spin_density
 _atom_site_pbe_ddec_sum_bond_order
 _atom_site_pbe_magmom
Zn  Zn0  1  0.76771297  0.23227152  0.25000114  1  0  0.695477  1.049429  0  2.110522  0
Zn  Zn1  1  0.23226504  0.76772559  0.75000042  1  0  0.695536  1.049494  0  2.110334  0
H  H2  1  0.84804887  0.87853722  0.35574190  1  0  0.121217  0.120137  0  0.980523  0
H  H3  1  0.12146067  0.15196615  0.14425857  1  0  0.121229  0.120174  0  0.980504  0
H  H4  1  0.15195724  0.12145696  0.64426107  1  0  0.121224  0.12014  0  0.980486  0
H  H5  1  0.87851522  0.84801138  0.85574094  1  0  0.12123  0.120139  0  0.980604  0
H  H6  1  0.67719740  0.61048357  0.38035662  1  0  0.111726  0.10424  0  1.000777  0
H  H7  1  0.38951727  0.32284123  0.11964325  1  0  0.111752  0.104278  0  1.000822  0
H  H8  1  0.32282569  0.38952166  0.61964417  1  0  0.111728  0.104254  0  1.000805  0
H  H9  1  0.61044510  0.67716783  0.88035665  1  0  0.111772  0.104249  0  1.000773  0
H  H10  1  0.18092573  0.13452333  0.49923122  1  0  0.103792  0.102882  0  1.027687  0
H  H11  1  0.86547567  0.81906055  0.00076811  1  0  0.103806  0.102844  0  1.027938  0
H  H12  1  0.81908735  0.86547511  0.50076787  1  0  0.103849  0.102963  0  1.027856  0
H  H13  1  0.13452050  0.18092099  0.99923215  1  0  0.103802  0.102876  0  1.027583  0
H  H14  1  0.50595968  0.83670654  0.43932582  1  0  0.108941  0.108167  0  1.008082  0
H  H15  1  0.16330295  0.49405693  0.06067355  1  0  0.108965  0.108181  0  1.007912  0
H  H16  1  0.49404913  0.16329403  0.56067456  1  0  0.108973  0.108207  0  1.007923  0
H  H17  1  0.83670178  0.50594005  0.93932648  1  0  0.108965  0.108232  0  1.008104  0
H  H18  1  0.11351107  0.85598164  0.41338727  1  0  0.302283  0.271211  0  1.009844  0
H  H19  1  0.14403519  0.88651918  0.08661240  1  0  0.302298  0.271143  0  1.009918  0
H  H20  1  0.88652428  0.14402452  0.58661325  1  0  0.302278  0.271119  0  1.009974  0
H  H21  1  0.85597381  0.11347567  0.91338632  1  0  0.302234  0.271017  0  1.009857  0
H  H22  1  0.20348191  0.40710517  0.20179590  1  0  0.297972  0.396671  0  0.939757  0
H  H23  1  0.59288091  0.79649826  0.29820740  1  0  0.297918  0.396609  0  0.939859  0
H  H24  1  0.79649165  0.59288406  0.79820658  1  0  0.297935  0.396595  0  0.939887  0
H  H25  1  0.40710710  0.20349777  0.70179484  1  0  0.297955  0.396579  0  0.939897  0
H  H26  1  0.91478472  0.58480565  0.18683185  1  0  0.31524  0.42006  0  0.894417  0
H  H27  1  0.41517384  0.08520373  0.31316791  1  0  0.315287  0.420165  0  0.894291  0
H  H28  1  0.08519328  0.41517767  0.81316801  1  0  0.31527  0.420085  0  0.894388  0
H  H29  1  0.58479847  0.91479631  0.68683199  1  0  0.31521  0.419957  0  0.894553  0
H  H30  1  0.23991413  0.95459543  0.26350090  1  0  0.293815  0.399249  0  0.942778  0
H  H31  1  0.04538269  0.76006651  0.23649938  1  0  0.293828  0.399277  0  0.942728  0
H  H32  1  0.76005987  0.04539621  0.73649963  1  0  0.293806  0.399259  0  0.942755  0
H  H33  1  0.95458741  0.23993157  0.76350116  1  0  0.293812  0.399211  0  0.942832  0
C  C34  1  0.94741954  0.48342713  0.32933132  1  0  0.21888  0.622157  0  4.139809  0
C  C35  1  0.51657388  0.05259871  0.17066891  1  0  0.21887  0.622182  0  4.139891  0
C  C36  1  0.05259507  0.51656669  0.67066971  1  0  0.218857  0.62218  0  4.139504  0
C  C37  1  0.48341733  0.94741602  0.82932983  1  0  0.218873  0.622215  0  4.139721  0
C  C38  1  0.87550453  0.66894097  0.36801745  1  0  -0.060753  -0.1623  0  3.92884  0
C  C39  1  0.33106676  0.12453214  0.13198334  1  0  -0.060778  -0.162517  0  3.928862  0
C  C40  1  0.12451854  0.33106620  0.63198367  1  0  -0.060712  -0.162377  0  3.92878  0
C  C41  1  0.66891603  0.87548108  0.86801666  1  0  -0.060771  -0.162456  0  3.929103  0
C  C42  1  0.12830980  0.44666523  0.42823461  1  0  0.238388  0.469155  0  4.142469  0
C  C43  1  0.55335349  0.87171743  0.07176058  1  0  0.238313  0.469053  0  4.142325  0
C  C44  1  0.87170619  0.55334767  0.57176193  1  0  0.238434  0.469225  0  4.142159  0
C  C45  1  0.44665416  0.12828419  0.92823555  1  0  0.238467  0.469185  0  4.142455  0
C  C46  1  0.32092286  0.48063743  0.46488689  1  0  -0.010357  -0.025939  0  3.96773  0
C  C47  1  0.51936626  0.67907715  0.03511524  1  0  -0.01033  -0.025992  0  3.967718  0
C  C48  1  0.67906711  0.51935047  0.53511467  1  0  -0.01037  -0.026081  0  3.967742  0
C  C49  1  0.48062324  0.32090241  0.96488760  1  0  -0.010342  -0.025963  0  3.967749  0
C  C50  1  0.32191304  0.29416116  0.49961904  1  0  -0.080084  -0.086898  0  3.965634  0
C  C51  1  0.70586108  0.67809738  0.00037853  1  0  -0.08016  -0.086803  0  3.965346  0
C  C52  1  0.67810115  0.70586398  0.50037787  1  0  -0.080261  -0.087063  0  3.965532  0
C  C53  1  0.29418256  0.32191805  0.99962239  1  0  -0.080167  -0.086906  0  3.966117  0
C  C54  1  0.50113178  0.68768046  0.46571032  1  0  -0.081772  -0.098432  0  3.962097  0
C  C55  1  0.31232668  0.49889783  0.03428444  1  0  -0.081797  -0.098419  0  3.96244  0
C  C56  1  0.49890396  0.31232018  0.53428756  1  0  -0.081828  -0.098375  0  3.962243  0
C  C57  1  0.68769545  0.50109290  0.96570910  1  0  -0.081895  -0.098643  0  3.96185  0
N  N58  1  0.07261709  0.66725352  0.40246957  1  0  -0.423326  -0.343561  0  3.589079  0
N  N59  1  0.33275603  0.92741223  0.09752901  1  0  -0.423237  -0.343308  0  3.588603  0
N  N60  1  0.92741667  0.33274933  0.59752831  1  0  -0.423343  -0.343472  0  3.588752  0
N  N61  1  0.66723808  0.07257340  0.90247191  1  0  -0.423269  -0.343171  0  3.588701  0
O  O62  1  0.01677438  0.48668926  0.21044323  1  0  -0.555401  -0.769437  0  2.194182  0
O  O63  1  0.51329600  0.98320740  0.28955761  1  0  -0.555429  -0.769532  0  2.194098  0
O  O64  1  0.98320163  0.51331202  0.78955866  1  0  -0.555455  -0.769442  0  2.194302  0
O  O65  1  0.48668621  0.01678752  0.71044297  1  0  -0.555376  -0.76928  0  2.194276  0
O  O66  1  0.75693301  0.49788571  0.29973617  1  0  -0.329277  -0.602351  0  2.352665  0
O  O67  1  0.50209340  0.24308320  0.20026505  1  0  -0.329264  -0.602348  0  2.352725  0
O  O68  1  0.24306337  0.50210982  0.70026479  1  0  -0.329216  -0.602253  0  2.352711  0
O  O69  1  0.49787734  0.75693324  0.79973459  1  0  -0.329267  -0.602349  0  2.352612  0
O  O70  1  0.16065452  0.33721545  0.32743275  1  0  -0.310167  -0.535582  0  2.199415  0
O  O71  1  0.66279324  0.83937515  0.17256822  1  0  -0.310236  -0.535581  0  2.199447  0
O  O72  1  0.83933849  0.66280872  0.67256832  1  0  -0.310258  -0.535655  0  2.198894  0
O  O73  1  0.33718801  0.16066631  0.82743287  1  0  -0.310206  -0.535625  0  2.199203  0
O  O74  1  0.05782247  0.94216007  0.25000118  1  0  -0.605263  -0.815013  0  2.228521  0
O  O75  1  0.94215353  0.05783529  0.75000003  1  0  -0.605265  -0.815008  0  2.228553  0
O  O76  1  0.02500546  0.22633612  0.42214985  1  0  -0.306142  -0.506574  0  2.165872  0
O  O77  1  0.77369401  0.97501566  0.07784825  1  0  -0.306127  -0.506552  0  2.165767  0
O  O78  1  0.97502032  0.77368337  0.57784938  1  0  -0.306159  -0.506589  0  2.165771  0
O  O79  1  0.22633863  0.02496244  0.92215214  1  0  -0.306151  -0.506601  0  2.166058  0
