# generated using pymatgen
data_CoH20C19N2O9
_symmetry_space_group_name_H-M   'P 1'
_cell_length_a   7.28470517
_cell_length_b   10.70416384
_cell_length_c   13.14400000
_cell_angle_alpha   71.84724008
_cell_angle_beta   80.47117982
_cell_angle_gamma   84.24959548
_symmetry_Int_Tables_number   1
_chemical_formula_structural   CoH20C19N2O9
_chemical_formula_sum   'Co2 H40 C38 N4 O18'
_cell_volume   959.18296229
_cell_formula_units_Z   2
loop_
 _symmetry_equiv_pos_site_id
 _symmetry_equiv_pos_as_xyz
  1  'x, y, z'
loop_
 _atom_site_type_symbol
 _atom_site_label
 _atom_site_symmetry_multiplicity
 _atom_site_fract_x
 _atom_site_fract_y
 _atom_site_fract_z
 _atom_site_occupancy
 _atom_site_hle17_ddec_charge
 _atom_site_hle17_ddec_spin_density
 _atom_site_hle17_ddec_sum_bond_order
 _atom_site_hle17_magmom
 _atom_site_hse06_10hf_ddec_charge
 _atom_site_hse06_10hf_ddec_spin_density
 _atom_site_hse06_10hf_ddec_sum_bond_order
 _atom_site_hse06_10hf_magmom
 _atom_site_hse06_ddec_charge
 _atom_site_hse06_ddec_spin_density
 _atom_site_hse06_ddec_sum_bond_order
 _atom_site_hse06_magmom
 _atom_site_pbe_bader_charge
 _atom_site_pbe_bader_spin_density
 _atom_site_pbe_cm5_charge
 _atom_site_pbe_ddec_charge
 _atom_site_pbe_ddec_spin_density
 _atom_site_pbe_ddec_sum_bond_order
 _atom_site_pbe_magmom
Co  Co0  1  0.55368251  0.12208755  0.29894812  1  0.996618  2.883882  1.946241  2.609  0.961184  2.866946  2.328396  2.667  1.02685  2.899095  2.268571  2.732  1.287662  2.626193  0.660546  0.906634  2.8409  2.380209  2.609
Co  Co1  1  0.44631406  0.87792418  0.70105637  1  0.996826  2.883896  1.945989  2.609  0.961307  2.866962  2.32817  2.667  1.026976  2.899113  2.268333  2.732  1.287775  2.626207  0.660539  0.906697  2.840957  2.380063  2.609
H  H2  1  0.33190799  0.08515698  0.49105599  1  0.43831  0.000221  0.857491  0.001  0.409666  0.00051  0.918282  0.001  0.420932  0.000289  0.902213  0.001  0.663855  0.001169  0.300213  0.401241  0.000715  0.930174  0.002
H  H3  1  0.66809262  0.91485672  0.50894687  1  0.438206  0.000221  0.857796  0.001  0.409629  0.00051  0.918383  0.001  0.420898  0.000289  0.902309  0.001  0.663991  0.001169  0.300173  0.401201  0.000715  0.930282  0.002
H  H4  1  0.19881398  0.10420753  0.39665408  1  0.415505  -0.000212  0.895304  0.0  0.383465  0.000149  0.962719  0.0  0.394636  -2.5e-05  0.946897  0.0  0.64667  0.000463  0.2883  0.375713  0.000331  0.973501  0.001
H  H5  1  0.80117871  0.89580026  0.60334948  1  0.415409  -0.000212  0.895457  0.0  0.383391  0.000149  0.962829  0.0  0.394562  -2.5e-05  0.947008  0.0  0.646696  0.000463  0.288288  0.375639  0.000331  0.973613  0.001
H  H6  1  0.81489116  0.04673691  0.18675439  1  0.403226  -0.000507  0.91519  0.0  0.369859  0.000182  0.986301  0.001  0.381247  5.7e-05  0.970131  0.001  0.637028  0.000257  0.279158  0.361909  0.000289  0.997462  0.001
H  H7  1  0.18510578  0.95326990  0.81324294  1  0.403224  -0.000507  0.915134  0.0  0.369909  0.000181  0.986209  0.001  0.381296  5.7e-05  0.970042  0.001  0.636987  0.000257  0.279185  0.361958  0.000289  0.997371  0.001
H  H8  1  0.89613605  0.13796219  0.23882809  1  0.405353  -0.000845  0.895723  -0.001  0.374632  -0.000123  0.968069  0.0  0.38615  -0.000246  0.95163  0.0  0.617155  6.4e-05  0.281545  0.366466  2.7e-05  0.979559  0.0
H  H9  1  0.10384557  0.86204462  0.76117293  1  0.405346  -0.000844  0.89566  -0.001  0.374564  -0.000123  0.968138  0.0  0.386082  -0.000245  0.951699  0.0  0.617067  6.5e-05  0.281545  0.366396  2.7e-05  0.979628  0.0
H  H10  1  0.36112531  0.87656462  0.31586436  1  0.092001  0.000378  0.962728  0.001  0.09503  0.000314  1.034798  0.001  0.098453  0.000203  1.031504  0.001  0.130471  0.001515  0.117157  0.092107  0.000422  1.037838  0.001
H  H11  1  0.63886333  0.12342249  0.68414406  1  0.092045  0.000379  0.96268  0.001  0.095062  0.000314  1.034774  0.001  0.098493  0.000203  1.031487  0.001  0.130605  0.001516  0.117208  0.092138  0.000422  1.037812  0.001
H  H12  1  0.18595680  0.79507087  0.20459044  1  0.099285  0.000245  0.950891  0.0  0.108631  0.000333  1.013365  0.0  0.111628  0.000236  1.011885  0.0  0.063493  0.001011  0.104899  0.106425  0.000394  1.014582  0.0
H  H13  1  0.81408604  0.20489853  0.79539924  1  0.099277  0.000245  0.950966  0.0  0.108607  0.000333  1.013435  0.0  0.111605  0.000236  1.01195  0.0  0.063617  0.001011  0.104919  0.106398  0.000394  1.014659  0.0
H  H14  1  0.14280950  0.93772112  0.01640106  1  0.115165  3.7e-05  0.939498  0.001  0.128591  -0.00015  0.995736  0.0  0.132216  -0.000115  0.992752  0.0  0.070671  -9.1e-05  0.108636  0.12573  -0.000234  0.998499  0.0
H  H15  1  0.85723350  0.06226501  0.98359349  1  0.115139  3.7e-05  0.939549  0.001  0.128505  -0.00015  0.995845  0.0  0.132129  -0.000116  0.992864  0.0  0.070603  -9.1e-05  0.108608  0.125649  -0.000234  0.998602  0.0
H  H16  1  0.46171564  0.22480951  0.06824049  1  0.085131  0.000139  0.96879  0.001  0.09324  9.2e-05  1.035813  0.001  0.095331  2.3e-05  1.034568  0.001  0.075127  0.001659  0.114137  0.091749  0.000127  1.036959  0.001
H  H17  1  0.53827484  0.77519041  0.93178049  1  0.085032  0.000138  0.968945  0.001  0.093136  9.1e-05  1.035956  0.001  0.09523  2.2e-05  1.034712  0.001  0.075023  0.001655  0.114084  0.091642  0.000126  1.037117  0.001
H  H18  1  0.72600423  0.38074523  0.21574161  1  0.089032  0.00053  0.951008  0.001  0.093731  0.000481  1.020327  0.001  0.096659  0.000343  1.017566  0.001  0.124297  0.001779  0.114488  0.091436  0.000614  1.022658  0.001
H  H19  1  0.27397404  0.61926945  0.78424859  1  0.088896  0.00053  0.951153  0.001  0.093443  0.00048  1.020657  0.001  0.096344  0.000342  1.01789  0.001  0.124366  0.001777  0.114456  0.091158  0.000614  1.022962  0.001
H  H20  1  0.64655892  0.61568400  0.11517169  1  0.115611  0.00025  0.987165  0.0  0.122259  0.000308  1.048265  0.0  0.126329  0.000221  1.045989  0.0  0.140858  0.000919  0.105874  0.119241  0.000412  1.050198  0.001
H  H21  1  0.35341781  0.38433266  0.88480065  1  0.115546  0.000249  0.987188  0.0  0.122189  0.000308  1.048291  0.0  0.12626  0.000221  1.046001  0.0  0.141284  0.000919  0.105852  0.119173  0.000412  1.050241  0.001
H  H22  1  0.32804828  0.67704723  0.06205115  1  0.11093  8.9e-05  0.94855  0.001  0.122729  -0.000117  1.008928  0.0  0.125791  -8.5e-05  1.006426  0.0  0.077547  -0.000127  0.109997  0.120578  -0.000237  1.010812  0.0
H  H23  1  0.67192388  0.32293693  0.93791464  1  0.110954  9e-05  0.948282  0.001  0.122563  -0.000117  1.008893  0.0  0.125616  -8.5e-05  1.006414  0.0  0.077751  -0.000126  0.109946  0.120417  -0.000236  1.01077  0.0
H  H24  1  0.18781917  0.27458155  0.22644706  1  0.107266  0.000303  0.95767  0.001  0.111421  0.000275  1.023862  0.001  0.114936  0.000149  1.021016  0.001  0.109845  0.001864  0.119658  0.108554  0.000397  1.02656  0.001
H  H25  1  0.81216171  0.72541640  0.77355628  1  0.10714  0.000304  0.957773  0.001  0.111313  0.000276  1.02389  0.001  0.114822  0.000149  1.021046  0.001  0.109938  0.001866  0.119619  0.10845  0.000398  1.02658  0.001
H  H26  1  0.93362490  0.12504392  0.57052711  1  0.111753  -0.000144  0.917967  0.0  0.121143  9.5e-05  0.981309  0.0  0.123278  6.9e-05  0.979934  0.0  0.120543  0.000401  0.117904  0.119436  0.000137  0.98285  0.0
H  H27  1  0.06636705  0.87495501  0.42947877  1  0.111799  -0.000145  0.918001  0.0  0.121194  9.6e-05  0.981336  0.0  0.123331  6.9e-05  0.979956  0.0  0.120633  0.000401  0.117919  0.119482  0.000137  0.982886  0.0
H  H28  1  0.05747852  0.25781596  0.47619403  1  0.076896  -3.2e-05  0.97959  0.0  0.085069  8.3e-05  1.05096  0.0  0.08621  4.1e-05  1.051038  0.0  0.066568  0.000434  0.105153  0.084389  0.00017  1.050847  0.0
H  H29  1  0.94253071  0.74217509  0.52381074  1  0.076907  -3.2e-05  0.979589  0.0  0.085126  8.3e-05  1.050884  0.0  0.086266  4.1e-05  1.05096  0.0  0.066816  0.000433  0.105164  0.084443  0.00017  1.050773  0.0
H  H30  1  0.60896757  0.47722563  0.62260074  1  0.112071  -3.5e-05  0.939803  0.0  0.123363  -3.8e-05  0.997196  0.0  0.125917  -3.1e-05  0.99802  0.0  0.090972  -2.5e-05  0.104393  0.121748  -5.6e-05  0.996614  0.0
H  H31  1  0.39103187  0.52278511  0.37739384  1  0.112095  -3.6e-05  0.939634  0.0  0.123379  -3.8e-05  0.997043  0.0  0.125942  -3.1e-05  0.997845  0.0  0.090819  -2.5e-05  0.104424  0.121765  -5.5e-05  0.996467  0.0
H  H32  1  0.57244187  0.71555098  0.52606139  1  0.111345  -0.000189  0.97797  0.0  0.115317  -0.000209  1.049468  0.0  0.1197  -0.000243  1.04499  0.0  0.11665  8.1e-05  0.105339  0.112081  -0.000168  1.052623  0.0
H  H33  1  0.42757712  0.28445878  0.47393698  1  0.111399  -0.000188  0.977956  0.0  0.115353  -0.000209  1.049452  0.0  0.119746  -0.000243  1.044956  0.0  0.116946  8e-05  0.105362  0.112114  -0.000168  1.052626  0.0
H  H34  1  0.92351170  0.65517025  0.24586324  1  0.083973  1e-05  0.965673  0.0  0.09136  2.4e-05  1.034622  0.0  0.094992  1.3e-05  1.031145  0.0  0.047693  5.3e-05  0.097473  0.089169  1.8e-05  1.036552  0.0
H  H35  1  0.07652803  0.34484148  0.75414414  1  0.083979  1.1e-05  0.965741  0.0  0.091388  2.4e-05  1.034652  0.0  0.09502  1.3e-05  1.031181  0.0  0.047342  5.2e-05  0.097549  0.089198  1.8e-05  1.036581  0.0
H  H36  1  0.95732770  0.41858250  0.33997662  1  0.101188  -5.8e-05  0.980349  0.0  0.110728  -2.7e-05  1.045457  0.0  0.113244  -1.2e-05  1.045235  0.0  0.064989  1.5e-05  0.100279  0.109061  -6.6e-05  1.045775  0.0
H  H37  1  0.04271349  0.58142825  0.66003011  1  0.101031  -5.9e-05  0.980569  0.0  0.110605  -2.6e-05  1.045645  0.0  0.113113  -1.2e-05  1.045417  0.0  0.06489  1.4e-05  0.100252  0.108941  -6.6e-05  1.045949  0.0
H  H38  1  0.23815320  0.15188363  0.87614772  1  0.397229  5.2e-05  0.910364  0.0  0.36619  3.4e-05  0.982924  0.0  0.377535  1.9e-05  0.966965  0.0  0.663875  8.6e-05  0.298673  0.358242  5.7e-05  0.994011  0.0
H  H39  1  0.76185543  0.84809660  0.12385681  1  0.397155  5.2e-05  0.910507  0.0  0.366035  3.4e-05  0.983177  0.0  0.377381  1.9e-05  0.967212  0.0  0.663707  8.6e-05  0.298598  0.358089  5.7e-05  0.994262  0.0
H  H40  1  0.04463706  0.58857356  0.06149096  1  0.394366  0.00011  0.805793  0.0  0.381339  0.000135  0.858551  0.0  0.389473  8.1e-05  0.849543  0.0  0.591611  0.000365  0.340832  0.375457  0.000193  0.86511  0.0
H  H41  1  0.95529604  0.41141159  0.93852001  1  0.394106  0.000111  0.806221  0.0  0.381138  0.000135  0.858852  0.0  0.389256  8.1e-05  0.849874  0.0  0.59138  0.000366  0.340842  0.375271  0.000193  0.865399  0.0
C  C42  1  0.34198506  0.93606130  0.23420783  1  0.09195  -0.017601  3.6867  -0.012  0.056366  -0.005688  3.955924  -0.004  0.064514  -0.005225  3.968381  -0.003  0.442591  -0.006474  0.024452  0.049458  -0.006748  3.94975  -0.004
C  C43  1  0.65801954  0.06391696  0.76580594  1  0.091936  -0.017623  3.686796  -0.012  0.05622  -0.005695  3.956117  -0.004  0.064357  -0.005231  3.968585  -0.003  0.443018  -0.006483  0.024355  0.049312  -0.006758  3.949933  -0.004
C  C44  1  0.24493323  0.89141443  0.17077593  1  -0.072771  0.007525  3.750661  0.011  -0.086398  0.002442  4.00801  0.004  -0.089076  0.002344  4.025566  0.003  0.056669  0.00533  -0.084351  -0.085247  0.002559  3.998187  0.004
C  C45  1  0.75509270  0.10857663  0.82922350  1  -0.072753  0.007534  3.750402  0.011  -0.086327  0.002444  4.007792  0.004  -0.089001  0.002346  4.025332  0.003  0.056201  0.005331  -0.084348  -0.08518  0.00256  3.997984  0.004
C  C46  1  0.21989027  0.97066850  0.06696019  1  -0.158614  -0.019703  3.705164  -0.012  -0.184013  -0.007678  3.956326  -0.004  -0.183968  -0.006121  3.971796  -0.003  -0.081837  -0.010014  -0.092634  -0.185145  -0.010883  3.947564  -0.006
C  C47  1  0.78015016  0.02931468  0.93304067  1  -0.158391  -0.019729  3.704685  -0.012  -0.183763  -0.007688  3.95585  -0.004  -0.183703  -0.006126  3.971308  -0.003  -0.081481  -0.010028  -0.092528  -0.184917  -0.010898  3.947122  -0.006
C  C48  1  0.29442789  0.09536007  0.02940979  1  0.29547  0.006737  3.856664  0.01  0.292841  0.002224  4.11326  0.003  0.300573  0.002083  4.130132  0.003  0.548356  0.004711  0.083998  0.28733  0.002407  4.10259  0.004
C  C49  1  0.70558712  0.90462803  0.97059976  1  0.295463  0.006743  3.856324  0.01  0.292855  0.002225  4.11285  0.003  0.300569  0.002084  4.129742  0.003  0.54818  0.004711  0.084086  0.287345  0.002407  4.102181  0.004
C  C50  1  0.39693389  0.13056288  0.09684105  1  -0.008583  -0.019925  3.6922  -0.013  -0.043082  -0.007873  3.952403  -0.005  -0.039085  -0.0068  3.968523  -0.004  0.518589  -0.008919  0.024797  -0.046774  -0.010087  3.942408  -0.006
C  C51  1  0.60307028  0.86942128  0.90317583  1  -0.008463  -0.019946  3.692387  -0.013  -0.043023  -0.007877  3.952528  -0.005  -0.039022  -0.006804  3.968654  -0.004  0.518647  -0.008928  0.024807  -0.046728  -0.010098  3.942529  -0.006
C  C52  1  0.58726888  0.41176896  0.19399900  1  0.103019  -0.017402  3.694835  -0.012  0.069303  -0.005981  3.960348  -0.004  0.076954  -0.005699  3.975802  -0.003  0.464188  -0.006589  0.03233  0.062953  -0.006941  3.950785  -0.004
C  C53  1  0.41268630  0.58823785  0.80598923  1  0.103223  -0.017425  3.694569  -0.012  0.069559  -0.005979  3.960234  -0.004  0.077262  -0.005696  3.975624  -0.003  0.464236  -0.006584  0.032339  0.063208  -0.006936  3.950662  -0.004
C  C54  1  0.54346099  0.54144975  0.13685713  1  -0.093968  0.007464  3.755891  0.011  -0.107223  0.002603  4.011088  0.004  -0.11207  0.002536  4.03059  0.004  -0.080567  0.005563  -0.088745  -0.103724  0.002609  3.998932  0.005
C  C55  1  0.45651193  0.45856198  0.86312215  1  -0.094009  0.00747  3.756293  0.011  -0.107205  0.002601  4.011338  0.004  -0.112044  0.002533  4.030839  0.004  -0.081252  0.005559  -0.088831  -0.10372  0.002606  3.999194  0.005
C  C56  1  0.36564197  0.57629126  0.10785421  1  -0.165127  -0.02007  3.746023  -0.013  -0.191805  -0.008596  3.999107  -0.005  -0.192017  -0.00694  4.017336  -0.004  -0.001895  -0.011169  -0.090651  -0.192715  -0.012084  3.988056  -0.007
C  C57  1  0.63430889  0.42371751  0.89211871  1  -0.165195  -0.020076  3.746123  -0.013  -0.191653  -0.008586  3.999277  -0.005  -0.191876  -0.006935  4.017518  -0.004  -0.00162  -0.011151  -0.090535  -0.192562  -0.012066  3.988238  -0.007
C  C58  1  0.23604182  0.47891401  0.13832613  1  0.277627  0.006743  3.841932  0.01  0.275505  0.002222  4.10286  0.004  0.281657  0.002144  4.12042  0.003  0.447916  0.004869  0.082756  0.270362  0.002387  4.092573  0.004
C  C59  1  0.76392618  0.52108886  0.86166269  1  0.278085  0.006753  3.841672  0.01  0.275734  0.002221  4.102803  0.004  0.281885  0.002143  4.120361  0.003  0.447936  0.004866  0.082959  0.270588  0.002386  4.092525  0.004
C  C60  1  0.28779318  0.35160678  0.19937207  1  -0.004301  -0.019423  3.666407  -0.013  -0.03753  -0.007693  3.927423  -0.004  -0.032772  -0.0069  3.94214  -0.004  0.553559  -0.00859  0.03116  -0.042147  -0.009797  3.918947  -0.005
C  C61  1  0.71218309  0.64839707  0.80062563  1  -0.004468  -0.019432  3.66715  -0.013  -0.037535  -0.007683  3.92807  -0.004  -0.032772  -0.006891  3.942795  -0.004  0.553584  -0.008576  0.031152  -0.042157  -0.009782  3.919578  -0.005
C  C62  1  0.85881913  0.17808245  0.41160083  1  0.664247  -0.00494  3.854054  -0.004  0.611725  -0.000175  4.165475  0.0  0.646173  -0.000197  4.15732  0.0  1.586905  0.000745  0.210026  0.587446  -2e-06  4.17073  0.0
C  C63  1  0.14116382  0.82192535  0.58840363  1  0.664334  -0.004941  3.853842  -0.004  0.611853  -0.000174  4.165204  0.0  0.646296  -0.000197  4.157053  0.0  1.586752  0.000744  0.210114  0.587566  -4e-06  4.170462  0.0
C  C64  1  0.91977815  0.21596008  0.50346930  1  -0.085904  0.003337  3.631482  0.005  -0.142035  0.00223  3.890071  0.003  -0.139365  0.001573  3.891486  0.002  0.393466  0.005251  -0.071628  -0.144092  0.002894  3.889605  0.004
C  C65  1  0.08022215  0.78403886  0.49653201  1  -0.086021  0.003339  3.631316  0.005  -0.142171  0.002229  3.88991  0.003  -0.139491  0.001573  3.891318  0.002  0.393141  0.005251  -0.071675  -0.144227  0.002894  3.889458  0.004
C  C66  1  0.78573517  0.43248032  0.48864004  1  0.295287  -5.2e-05  3.776414  0.0  0.284578  0.00027  4.03346  0.0  0.298109  0.000165  4.048634  0.0  0.414275  0.000313  0.093377  0.275216  0.000148  4.023003  0.0
C  C67  1  0.21428397  0.56752748  0.51135805  1  0.295185  -7.2e-05  3.776412  0.0  0.284567  0.00027  4.033367  0.0  0.298104  0.000166  4.048541  0.0  0.414577  0.000312  0.09334  0.275202  0.000147  4.022913  0.0
C  C68  1  0.67973163  0.51803798  0.54044599  1  -0.178047  8.2e-05  3.732376  0.0  -0.196523  -0.000112  3.986945  0.0  -0.204429  -0.000107  4.007377  0.0  0.018581  4.6e-05  -0.100027  -0.191218  -2.7e-05  3.972956  0.0
C  C69  1  0.32027930  0.48196784  0.45955411  1  -0.177814  9.8e-05  3.732227  0.0  -0.196311  -0.000112  3.986735  0.0  -0.204219  -0.000109  4.007174  0.0  0.018705  4.6e-05  -0.099909  -0.19101  -2.6e-05  3.972761  0.0
C  C70  1  0.66110215  0.65134459  0.48630356  1  -0.043491  -0.000275  3.731113  0.0  -0.069415  0.00022  3.984379  0.0  -0.064458  8.5e-05  3.999927  0.0  -0.058118  0.000386  -0.085281  -0.072677  0.000142  3.974102  0.0
C  C71  1  0.33891699  0.34866320  0.51369605  1  -0.043778  -0.000305  3.731294  0.0  -0.069694  0.00022  3.98457  0.0  -0.064735  8.6e-05  4.000121  0.0  -0.05835  0.000384  -0.085466  -0.072966  0.000141  3.974311  0.0
C  C72  1  0.74932592  0.70317812  0.37931468  1  -0.118341  0.002341  3.789489  0.003  -0.097727  0.001348  4.031311  0.002  -0.109048  0.000918  4.054102  0.001  0.022648  0.003625  -0.038265  -0.09035  0.001924  4.016154  0.003
C  C73  1  0.25070215  0.29682180  0.62068764  1  -0.118474  0.002355  3.789806  0.003  -0.097778  0.001348  4.031565  0.002  -0.109106  0.00092  4.05436  0.001  0.022356  0.003625  -0.038152  -0.090399  0.001924  4.016414  0.003
C  C74  1  0.85469047  0.61654147  0.32862018  1  -0.033741  -0.000561  3.755418  0.0  -0.060599  8.9e-05  4.010088  0.0  -0.056312  0.000106  4.028526  0.0  -0.003295  0.000717  -0.08647  -0.062804  0.000219  3.996487  0.0
C  C75  1  0.14534441  0.38346041  0.67138406  1  -0.033581  -0.000593  3.755318  0.0  -0.060497  8.8e-05  4.010024  0.0  -0.056209  0.000104  4.028458  0.0  -0.002324  0.000715  -0.086569  -0.062702  0.000217  3.996415  0.0
C  C76  1  0.87377116  0.48247386  0.38195187  1  -0.208065  0.000255  3.759745  0.0  -0.226527  1.8e-05  4.014582  0.0  -0.235067  -2e-05  4.036969  0.0  -0.044668  0.000476  -0.11113  -0.220626  0.000188  3.999074  0.0
C  C77  1  0.12625647  0.51753196  0.61805659  1  -0.207849  0.000271  3.759344  0.0  -0.226355  1.8e-05  4.014164  0.0  -0.234879  -2e-05  4.036537  0.0  -0.045057  0.000476  -0.111056  -0.22045  0.000188  3.998647  0.0
C  C78  1  0.73650757  0.84645548  0.32200051  1  0.658904  -0.003783  3.850003  -0.003  0.603499  -0.000252  4.151082  0.0  0.639707  -0.000277  4.143134  0.0  1.516586  0.000373  0.218737  0.57817  -0.000421  4.155428  0.0
C  C79  1  0.26351538  0.15355724  0.67799598  1  0.658985  -0.003787  3.849848  -0.003  0.603475  -0.000253  4.151074  0.0  0.639686  -0.000278  4.143132  0.0  1.5163  0.000371  0.218719  0.578147  -0.000423  4.155408  0.0
N  N80  1  0.41800702  0.05458710  0.19714146  1  -0.303076  0.037667  3.366015  0.071  -0.253491  0.025828  3.648087  0.045  -0.273062  0.021392  3.663762  0.038  -1.231471  0.057236  -0.331476  -0.239218  0.029867  3.637934  0.051
N  N81  1  0.58196726  0.94540592  0.80286677  1  -0.303267  0.037665  3.36609  0.071  -0.253485  0.025825  3.648012  0.045  -0.273063  0.021393  3.663697  0.038  -1.231526  0.057212  -0.331488  -0.239211  0.029855  3.637857  0.051
N  N82  1  0.46111015  0.31845856  0.22492111  1  -0.29734  0.039233  3.346645  0.068  -0.249064  0.028648  3.631815  0.047  -0.269839  0.023307  3.649919  0.039  -1.238922  0.062966  -0.325  -0.232811  0.033376  3.618612  0.053
N  N83  1  0.53887877  0.68152462  0.77508752  1  -0.297196  0.039246  3.34691  0.068  -0.248945  0.028649  3.632005  0.047  -0.269733  0.023304  3.650117  0.039  -1.23904  0.062969  -0.324911  -0.232671  0.033379  3.61877  0.053
O  O84  1  0.27211813  0.18667395  0.93419613  1  -0.546692  0.001258  2.157306  0.002  -0.493683  0.000661  2.365789  0.001  -0.514174  0.00054  2.355093  0.001  -1.20283  0.001679  -0.358146  -0.479007  0.000821  2.373114  0.001
O  O85  1  0.72792237  0.81330825  0.06581487  1  -0.546746  0.001259  2.157281  0.002  -0.493639  0.000661  2.36567  0.001  -0.514121  0.00054  2.354975  0.001  -1.202897  0.001679  -0.358185  -0.478969  0.000821  2.372997  0.001
O  O86  1  0.05925956  0.50032336  0.11173150  1  -0.501123  0.001042  2.087769  0.002  -0.456005  0.000593  2.286925  0.001  -0.4728  0.000511  2.278913  0.001  -1.106231  0.001453  -0.343711  -0.4442  0.000695  2.292669  0.001
O  O87  1  0.94069090  0.49965293  0.88827024  1  -0.501094  0.001042  2.088171  0.002  -0.45593  0.000593  2.287404  0.001  -0.472721  0.000511  2.279389  0.001  -1.106343  0.001452  -0.343849  -0.444138  0.000694  2.293158  0.001
O  O88  1  0.68957381  0.19476042  0.39817111  1  -0.596352  0.027926  2.091532  0.053  -0.553888  0.021904  2.356362  0.037  -0.585215  0.017286  2.345811  0.03  -1.164195  0.051604  -0.301206  -0.529423  0.026692  2.362852  0.045
O  O89  1  0.31042679  0.80525328  0.60183023  1  -0.596526  0.027932  2.091124  0.053  -0.554075  0.021906  2.355936  0.037  -0.585402  0.017287  2.34538  0.03  -1.163988  0.051605  -0.301316  -0.529608  0.026694  2.362436  0.045
O  O90  1  0.99003355  0.12979893  0.35482392  1  -0.647741  -3.9e-05  1.98903  0.001  -0.579647  0.000396  2.205088  0.001  -0.606622  3e-06  2.195552  0.001  -1.204349  0.003266  -0.314332  -0.560297  0.001047  2.211623  0.002
O  O91  1  0.00995693  0.87020099  0.64517804  1  -0.647698  -4.1e-05  1.989234  0.001  -0.579652  0.000395  2.205267  0.001  -0.606624  3e-06  2.19573  0.001  -1.204388  0.00326  -0.314369  -0.560311  0.001044  2.211814  0.002
O  O92  1  0.79340557  0.30268335  0.54770804  1  -0.25137  -0.000328  2.342092  0.0  -0.181492  -6.2e-05  2.573359  0.0  -0.199925  -7.4e-05  2.577347  0.0  -1.076841  0.000645  -0.169826  -0.167947  0.000207  2.569979  0.0
O  O93  1  0.20661246  0.69732050  0.45229116  1  -0.251289  -0.000331  2.34194  0.0  -0.181487  -6.2e-05  2.573221  0.0  -0.199933  -7.2e-05  2.577218  0.0  -1.076889  0.000645  -0.169779  -0.167948  0.000207  2.569851  0.0
O  O94  1  0.80033493  0.88805343  0.22082228  1  -0.652451  7.4e-05  2.08247  0.001  -0.586564  0.000398  2.307983  0.002  -0.614238  2.9e-05  2.299213  0.001  -1.206894  0.002446  -0.31286  -0.566387  0.000813  2.313183  0.002
O  O95  1  0.19966625  0.11195239  0.77917492  1  -0.652467  7.5e-05  2.082242  0.001  -0.586684  0.000398  2.307849  0.002  -0.614354  3e-05  2.299081  0.001  -1.206918  0.002445  -0.312935  -0.56651  0.000813  2.313043  0.002
O  O96  1  0.66495325  0.92589267  0.37545875  1  -0.633439  0.028895  2.094612  0.052  -0.581935  0.022677  2.351889  0.038  -0.613853  0.017264  2.341318  0.03  -1.176504  0.055506  -0.302482  -0.557003  0.028783  2.357931  0.047
O  O97  1  0.33507974  0.07411611  0.62454391  1  -0.633476  0.028903  2.094684  0.052  -0.581767  0.022682  2.351829  0.038  -0.613689  0.017267  2.341273  0.03  -1.17618  0.055513  -0.302439  -0.55684  0.028786  2.357877  0.047
O  O98  1  0.32895107  0.08554191  0.41537752  1  -0.820294  0.036891  1.985392  0.064  -0.786163  0.032166  2.211543  0.051  -0.816265  0.024637  2.176886  0.039  -1.267757  0.078123  -0.574902  -0.759973  0.040284  2.235198  0.063
O  O99  1  0.67104683  0.91447080  0.58462432  1  -0.820191  0.036884  1.985761  0.064  -0.786083  0.032161  2.211659  0.051  -0.816163  0.024633  2.176957  0.039  -1.268018  0.078133  -0.574886  -0.759897  0.04028  2.235329  0.063
O  O100  1  0.80952639  0.14167759  0.18618242  1  -0.827958  0.03245  1.889053  0.054  -0.798019  0.02787  2.091756  0.043  -0.825618  0.021349  2.059398  0.033  -1.245629  0.066341  -0.593153  -0.774509  0.034468  2.113465  0.052
O  O101  1  0.19046381  0.85832626  0.81381705  1  -0.827949  0.032449  1.888882  0.054  -0.797981  0.027869  2.091778  0.043  -0.825582  0.021347  2.059418  0.033  -1.245507  0.066348  -0.593186  -0.774473  0.034469  2.113495  0.052
