# generated using pymatgen
data_CdH18C20(N2O)6
_symmetry_space_group_name_H-M   'P 1'
_cell_length_a   9.84276957
_cell_length_b   10.40958225
_cell_length_c   11.26059110
_cell_angle_alpha   89.99995782
_cell_angle_beta   93.88083637
_cell_angle_gamma   89.99998132
_symmetry_Int_Tables_number   1
_chemical_formula_structural   CdH18C20(N2O)6
_chemical_formula_sum   'Cd2 H36 C40 N24 O12'
_cell_volume   1151.10466714
_cell_formula_units_Z   2
loop_
 _symmetry_equiv_pos_site_id
 _symmetry_equiv_pos_as_xyz
  1  'x, y, z'
loop_
 _atom_site_type_symbol
 _atom_site_label
 _atom_site_symmetry_multiplicity
 _atom_site_fract_x
 _atom_site_fract_y
 _atom_site_fract_z
 _atom_site_occupancy
 _atom_site_hle17_bader_spin_density
 _atom_site_hle17_ddec_charge
 _atom_site_hle17_ddec_spin_density
 _atom_site_hle17_ddec_sum_bond_order
 _atom_site_hle17_magmom
 _atom_site_hse06_10hf_bader_spin_density
 _atom_site_hse06_10hf_ddec_charge
 _atom_site_hse06_10hf_ddec_spin_density
 _atom_site_hse06_10hf_ddec_sum_bond_order
 _atom_site_hse06_10hf_magmom
 _atom_site_hse06_bader_spin_density
 _atom_site_hse06_ddec_charge
 _atom_site_hse06_ddec_spin_density
 _atom_site_hse06_ddec_sum_bond_order
 _atom_site_hse06_magmom
 _atom_site_pbe_bader_spin_density
 _atom_site_pbe_cm5_charge
 _atom_site_pbe_ddec_charge
 _atom_site_pbe_ddec_spin_density
 _atom_site_pbe_ddec_sum_bond_order
 _atom_site_pbe_magmom
Cd  Cd0  1  0.00000101  0.49999969  0.50000061  1  0  1.046945  0  1.799111  0  0  0.846555  0  2.25249  0  0  0.89605  0  2.208991  0  0  0.804745  0.811249  0  2.282488  0
Cd  Cd1  1  0.50000004  0.99999931  0.99999933  1  0  1.046947  0  1.799098  0  0  0.84655  0  2.252477  0  0  0.896039  0  2.208981  0  0  0.80474  0.811242  0  2.28248  0
H  H2  1  0.27473160  0.60927102  0.66221641  1  0  0.098778  0  0.954873  0  0  0.100974  0  1.031626  0  0  0.104654  0  1.026444  0  0  0.132393  0.098138  0  1.035588  0
H  H3  1  0.22526757  0.10927107  0.83778279  1  0  0.098753  0  0.954876  0  0  0.100956  0  1.031621  0  0  0.104634  0  1.026441  0  0  0.13239  0.098121  0  1.035582  0
H  H4  1  0.72526749  0.39072821  0.33778376  1  0  0.098761  0  0.954869  0  0  0.100959  0  1.031622  0  0  0.104637  0  1.026443  0  0  0.13239  0.098123  0  1.035587  0
H  H5  1  0.77473253  0.89072912  0.16221655  1  0  0.098757  0  0.954894  0  0  0.10096  0  1.031633  0  0  0.104638  0  1.026452  0  0  0.132389  0.098126  0  1.035596  0
H  H6  1  0.26868533  0.32166977  0.39662769  1  0  0.104614  0  0.961675  0  0  0.110403  0  1.028914  0  0  0.112845  0  1.027545  0  0  0.117093  0.108561  0  1.030122  0
H  H7  1  0.23131562  0.82166882  0.10337181  1  0  0.104646  0  0.961631  0  0  0.110426  0  1.028881  0  0  0.112868  0  1.027513  0  0  0.117102  0.108585  0  1.030086  0
H  H8  1  0.73131580  0.67832946  0.60337260  1  0  0.10465  0  0.961607  0  0  0.110424  0  1.028863  0  0  0.112865  0  1.027493  0  0  0.117116  0.108585  0  1.030066  0
H  H9  1  0.76868652  0.17832849  0.89663031  1  0  0.104636  0  0.961662  0  0  0.110415  0  1.028912  0  0  0.112856  0  1.027543  0  0  0.117096  0.108576  0  1.030114  0
H  H10  1  0.50147042  0.29174340  0.54720385  1  0  0.121014  0  0.962752  0  0  0.129893  0  1.027329  0  0  0.132247  0  1.026583  0  0  0.123889  0.128418  0  1.027479  0
H  H11  1  0.99852881  0.79174401  0.95279435  1  0  0.121024  0  0.962749  0  0  0.129899  0  1.027329  0  0  0.13223  0  1.026608  0  0  0.123879  0.128425  0  1.027479  0
H  H12  1  0.49852969  0.70825679  0.45279549  1  0  0.121011  0  0.962763  0  0  0.129891  0  1.027338  0  0  0.132243  0  1.026593  0  0  0.123885  0.128417  0  1.027488  0
H  H13  1  0.00147130  0.20825522  0.04720499  1  0  0.121013  0  0.962752  0  0  0.12989  0  1.027341  0  0  0.132218  0  1.026623  0  0  0.123881  0.128416  0  1.027491  0
H  H14  1  0.50811623  0.57363455  0.76364024  1  0  0.10316  0  0.928928  0  0  0.109367  0  1.000781  0  0  0.110632  0  1.000174  0  0  0.135766  0.108403  0  1.001242  0
H  H15  1  0.99188512  0.07363555  0.73635913  1  0  0.103133  0  0.928966  0  0  0.109332  0  1.000827  0  0  0.110597  0  1.000221  0  0  0.135752  0.108367  0  1.001289  0
H  H16  1  0.49188388  0.42636468  0.23635909  1  0  0.103126  0  0.928946  0  0  0.109327  0  1.000816  0  0  0.110592  0  1.000209  0  0  0.135757  0.108364  0  1.001278  0
H  H17  1  0.00811600  0.92636368  0.26364116  1  0  0.103152  0  0.928945  0  0  0.109359  0  1.000805  0  0  0.110624  0  1.000199  0  0  0.13575  0.108395  0  1.001266  0
H  H18  1  0.61104859  0.44425184  0.71678180  1  0  0.103349  0  0.899115  0  0  0.116254  0  0.959497  0  0  0.11728  0  0.958433  0  0  0.141502  0.115338  0  0.960515  0
H  H19  1  0.88895260  0.94425262  0.78321819  1  0  0.103308  0  0.899171  0  0  0.116208  0  0.959556  0  0  0.117236  0  0.958493  0  0  0.141466  0.115293  0  0.960575  0
H  H20  1  0.38895151  0.55574739  0.28321931  1  0  0.103292  0  0.899168  0  0  0.116196  0  0.95956  0  0  0.117223  0  0.958496  0  0  0.141461  0.115281  0  0.960578  0
H  H21  1  0.11104954  0.05574757  0.21678216  1  0  0.103347  0  0.899119  0  0  0.116256  0  0.959497  0  0  0.117283  0  0.958435  0  0  0.141502  0.115341  0  0.960516  0
H  H22  1  0.28983039  0.20351143  0.13308114  1  0  0.11128  0  0.961239  0  0  0.11654  0  1.03014  0  0  0.119799  0  1.028234  0  0  0.104924  0.114074  0  1.031697  0
H  H23  1  0.21017060  0.70351220  0.36691933  1  0  0.111283  0  0.96124  0  0  0.116543  0  1.030147  0  0  0.119801  0  1.028241  0  0  0.104907  0.114074  0  1.031706  0
H  H24  1  0.71017074  0.79648972  0.86691914  1  0  0.111252  0  0.96125  0  0  0.116513  0  1.030156  0  0  0.119771  0  1.02825  0  0  0.104898  0.114046  0  1.031713  0
H  H25  1  0.78983052  0.29648799  0.63308007  1  0  0.111282  0  0.961252  0  0  0.116549  0  1.030143  0  0  0.119808  0  1.028237  0  0  0.104929  0.114082  0  1.0317  0
H  H26  1  0.13912076  0.39181775  0.17568583  1  0  0.099132  0  0.966995  0  0  0.103168  0  1.038461  0  0  0.106761  0  1.035997  0  0  0.098936  0.100467  0  1.040338  0
H  H27  1  0.36088015  0.89181850  0.32431451  1  0  0.099125  0  0.96697  0  0  0.103168  0  1.038431  0  0  0.106751  0  1.035977  0  0  0.098939  0.100465  0  1.04031  0
H  H28  1  0.86087934  0.60818341  0.82431440  1  0  0.099124  0  0.966988  0  0  0.103179  0  1.038428  0  0  0.106785  0  1.03595  0  0  0.098948  0.100478  0  1.040304  0
H  H29  1  0.63912097  0.10818265  0.67568666  1  0  0.099143  0  0.966975  0  0  0.103184  0  1.038425  0  0  0.106803  0  1.035937  0  0  0.098958  0.100483  0  1.040301  0
H  H30  1  0.14109323  0.58757397  0.05662941  1  0  0.100774  0  0.978592  0  0  0.108976  0  1.042655  0  0  0.112299  0  1.040747  0  0  0.101178  0.106645  0  1.043813  0
H  H31  1  0.35890678  0.08757389  0.44337109  1  0  0.100794  0  0.978581  0  0  0.108996  0  1.042639  0  0  0.112319  0  1.04073  0  0  0.101182  0.106663  0  1.043798  0
H  H32  1  0.85890484  0.41242719  0.94336892  1  0  0.100756  0  0.978617  0  0  0.108977  0  1.042653  0  0  0.112299  0  1.040747  0  0  0.101167  0.106646  0  1.04381  0
H  H33  1  0.64109434  0.91242630  0.55662920  1  0  0.100778  0  0.9786  0  0  0.108983  0  1.042655  0  0  0.112306  0  1.040747  0  0  0.101183  0.106651  0  1.043812  0
H  H34  1  0.29402721  0.61212695  0.88856870  1  0  0.122821  0  0.97446  0  0  0.130222  0  1.040724  0  0  0.133548  0  1.03911  0  0  0.105656  0.127805  0  1.041893  0
H  H35  1  0.20597399  0.11212622  0.61143151  1  0  0.122826  0  0.974474  0  0  0.130215  0  1.040751  0  0  0.13355  0  1.039126  0  0  0.105666  0.127798  0  1.041919  0
H  H36  1  0.70596882  0.38787324  0.11142684  1  0  0.122828  0  0.974524  0  0  0.130243  0  1.040766  0  0  0.133574  0  1.039147  0  0  0.105652  0.127827  0  1.041935  0
H  H37  1  0.79402815  0.88787493  0.38856973  1  0  0.122844  0  0.974473  0  0  0.130238  0  1.04074  0  0  0.13357  0  1.039119  0  0  0.105673  0.127821  0  1.041909  0
C  C38  1  0.30075419  0.52687868  0.60914416  1  0  0.180312  0  3.656014  0  0  0.113066  0  3.936199  0  0  0.128436  0  3.946476  0  0  0.142592  0.102847  0  3.929333  0
C  C39  1  0.19924603  0.02687870  0.89085516  1  0  0.18038  0  3.655934  0  0  0.11313  0  3.936132  0  0  0.128501  0  3.946409  0  0  0.142621  0.102911  0  3.929264  0
C  C40  1  0.69924490  0.47312055  0.39085512  1  0  0.180368  0  3.656016  0  0  0.113117  0  3.936216  0  0  0.128489  0  3.946493  0  0  0.142633  0.102899  0  3.929351  0
C  C41  1  0.80075509  0.97312054  0.10914513  1  0  0.180319  0  3.656019  0  0  0.11307  0  3.936218  0  0  0.128442  0  3.946494  0  0  0.142601  0.102851  0  3.929353  0
C  C42  1  0.30390432  0.37694669  0.47415952  1  0  0.01626  0  3.724869  0  0  -0.01724  0  3.994618  0  0  -0.015186  0  4.014023  0  0  -0.003282  -0.018658  0  3.981681  0
C  C43  1  0.19609457  0.87694677  0.02583983  1  0  0.01623  0  3.724843  0  0  -0.017266  0  3.994591  0  0  -0.015211  0  4.013988  0  0  -0.003291  -0.018681  0  3.981653  0
C  C44  1  0.69609477  0.62305158  0.52584065  1  0  0.016244  0  3.72488  0  0  -0.01724  0  3.994628  0  0  -0.015184  0  4.014028  0  0  -0.003291  -0.018659  0  3.981688  0
C  C45  1  0.80390248  0.12305150  0.97415933  1  0  0.01614  0  3.72484  0  0  -0.017357  0  3.994604  0  0  -0.015301  0  4.013999  0  0  -0.003337  -0.018773  0  3.981659  0
C  C46  1  0.41844852  0.35979033  0.54863619  1  0  -0.036222  0  3.623314  0  0  -0.07967  0  3.88482  0  0  -0.077258  0  3.902329  0  0  0.004114  -0.081109  0  3.872663  0
C  C47  1  0.08155156  0.85979108  0.95136378  1  0  -0.036244  0  3.62338  0  0  -0.079679  0  3.884863  0  0  -0.077253  0  3.902403  0  0  0.004118  -0.081117  0  3.872707  0
C  C48  1  0.58155158  0.64020890  0.45136492  1  0  -0.036225  0  3.623369  0  0  -0.079665  0  3.884857  0  0  -0.077257  0  3.902381  0  0  0.00413  -0.081103  0  3.8727  0
C  C49  1  0.91844752  0.14021200  0.04863817  1  0  -0.036171  0  3.623274  0  0  -0.079615  0  3.884753  0  0  -0.077183  0  3.902282  0  0  0.00415  -0.081052  0  3.872595  0
C  C50  1  0.50809244  0.47233655  0.73728764  1  0  0.087027  0  3.617764  0  0  0.007188  0  3.867722  0  0  0.016405  0  3.875712  0  0  0.071267  0.000986  0  3.862578  0
C  C51  1  0.99190773  0.97233731  0.76271228  1  0  0.087092  0  3.617846  0  0  0.007289  0  3.867731  0  0  0.016501  0  3.875732  0  0  0.071306  0.001086  0  3.862587  0
C  C52  1  0.49190767  0.52766268  0.26271259  1  0  0.087134  0  3.617783  0  0  0.007312  0  3.867696  0  0  0.016528  0  3.875689  0  0  0.071303  0.001108  0  3.862556  0
C  C53  1  0.00809339  0.02766288  0.23728712  1  0  0.087015  0  3.617792  0  0  0.007166  0  3.867766  0  0  0.016375  0  3.875769  0  0  0.071267  0.000962  0  3.862624  0
C  C54  1  0.37430836  0.41771951  0.91714228  1  0  0.102743  0  3.782083  0  0  0.084837  0  4.036787  0  0  0.08991  0  4.058243  0  0  0.104033  0.081448  0  4.022205  0
C  C55  1  0.12569170  0.91771861  0.58285765  1  0  0.102748  0  3.782063  0  0  0.084836  0  4.036764  0  0  0.089909  0  4.05822  0  0  0.104035  0.081446  0  4.022183  0
C  C56  1  0.62568971  0.58227972  0.08285605  1  0  0.102782  0  3.782144  0  0  0.084811  0  4.036885  0  0  0.089885  0  4.058339  0  0  0.104072  0.081421  0  4.022306  0
C  C57  1  0.87430942  0.08228062  0.41714263  1  0  0.102714  0  3.78212  0  0  0.084783  0  4.036838  0  0  0.089856  0  4.058292  0  0  0.104019  0.081392  0  4.022259  0
C  C58  1  0.37293307  0.30359963  0.98492730  1  0  0.112003  0  3.82021  0  0  0.108032  0  4.072068  0  0  0.10798  0  4.096077  0  0  0.090879  0.107901  0  4.055769  0
C  C59  1  0.12706806  0.80359975  0.51507277  1  0  0.112021  0  3.820224  0  0  0.108072  0  4.072053  0  0  0.10802  0  4.096061  0  0  0.090891  0.107941  0  4.055756  0
C  C60  1  0.62706500  0.69640056  0.01507192  1  0  0.112011  0  3.82027  0  0  0.10816  0  4.071988  0  0  0.10811  0  4.095992  0  0  0.090914  0.108029  0  4.055691  0
C  C61  1  0.87293510  0.19640045  0.48492764  1  0  0.112072  0  3.820143  0  0  0.10815  0  4.071946  0  0  0.108099  0  4.095949  0  0  0.090909  0.10802  0  4.055646  0
C  C62  1  0.28862616  0.29110382  0.08014375  1  0  -0.129726  0  3.727302  0  0  -0.149477  0  3.980918  0  0  -0.151486  0  4.002081  0  0  -0.08991  -0.147976  0  3.966558  0
C  C63  1  0.21137377  0.79110455  0.41985660  1  0  -0.129826  0  3.727339  0  0  -0.149595  0  3.980981  0  0  -0.151604  0  4.002141  0  0  -0.089958  -0.148092  0  3.966624  0
C  C64  1  0.71137292  0.70889733  0.91985553  1  0  -0.129733  0  3.727282  0  0  -0.149534  0  3.980902  0  0  -0.151544  0  4.002066  0  0  -0.089918  -0.148032  0  3.966542  0
C  C65  1  0.78862735  0.20889660  0.58014369  1  0  -0.129782  0  3.727305  0  0  -0.149556  0  3.980919  0  0  -0.151567  0  4.002089  0  0  -0.089947  -0.148055  0  3.966558  0
C  C66  1  0.20645271  0.39532799  0.10264112  1  0  -0.073552  0  3.743794  0  0  -0.087824  0  3.997138  0  0  -0.091168  0  4.018876  0  0  -0.090851  -0.085438  0  3.982431  0
C  C67  1  0.29354821  0.89532871  0.39735922  1  0  -0.073476  0  3.743644  0  0  -0.087734  0  3.99696  0  0  -0.091072  0  4.018706  0  0  -0.090826  -0.085349  0  3.982257  0
C  C68  1  0.79354638  0.60467220  0.89735727  1  0  -0.073522  0  3.743691  0  0  -0.087787  0  3.997004  0  0  -0.091145  0  4.018739  0  0  -0.090837  -0.085401  0  3.982295  0
C  C69  1  0.70645393  0.10467244  0.60264202  1  0  -0.073538  0  3.743702  0  0  -0.087804  0  3.99703  0  0  -0.091174  0  4.018765  0  0  -0.090844  -0.085417  0  3.982322  0
C  C70  1  0.20773931  0.50908763  0.03335617  1  0  -0.035022  0  3.706111  0  0  -0.053445  0  3.958175  0  0  -0.054025  0  3.979266  0  0  -0.084006  -0.053121  0  3.943744  0
C  C71  1  0.29226176  0.00908851  0.46664444  1  0  -0.035093  0  3.70612  0  0  -0.05352  0  3.958195  0  0  -0.0541  0  3.979281  0  0  -0.08403  -0.053198  0  3.943768  0
C  C72  1  0.79225876  0.49091256  0.96664216  1  0  -0.034996  0  3.706117  0  0  -0.053429  0  3.958176  0  0  -0.054013  0  3.979275  0  0  -0.084001  -0.053107  0  3.943746  0
C  C73  1  0.70774039  0.99091168  0.53335590  1  0  -0.034995  0  3.706102  0  0  -0.053416  0  3.958157  0  0  -0.053998  0  3.979257  0  0  -0.084001  -0.053095  0  3.943727  0
C  C74  1  0.29154001  0.52338466  0.93975661  1  0  -0.141256  0  3.708756  0  0  -0.162959  0  3.967494  0  0  -0.16743  0  3.987939  0  0  -0.09387  -0.160085  0  3.95378  0
C  C75  1  0.20846123  0.02338397  0.56024277  1  0  -0.141239  0  3.708763  0  0  -0.162931  0  3.967501  0  0  -0.167409  0  3.987939  0  0  -0.093873  -0.160058  0  3.953787  0
C  C76  1  0.70845602  0.47661457  0.06023982  1  0  -0.141322  0  3.708899  0  0  -0.163042  0  3.967662  0  0  -0.167518  0  3.988103  0  0  -0.093913  -0.160168  0  3.953949  0
C  C77  1  0.79154193  0.97661622  0.43975853  1  0  -0.141331  0  3.70884  0  0  -0.16303  0  3.967605  0  0  -0.167507  0  3.988042  0  0  -0.093916  -0.160157  0  3.953894  0
N  N78  1  0.23166974  0.48133224  0.51278319  1  0  -0.403781  0  3.276691  0  0  -0.326542  0  3.558839  0  0  -0.348045  0  3.576508  0  0  -0.3691  -0.31169  0  3.546404  0
N  N79  1  0.26832928  0.98133193  0.98721575  1  0  -0.403782  0  3.276626  0  0  -0.326546  0  3.55879  0  0  -0.348048  0  3.576457  0  0  -0.369108  -0.311695  0  3.546356  0
N  N80  1  0.76832833  0.51866699  0.48721691  1  0  -0.403842  0  3.27678  0  0  -0.32661  0  3.558947  0  0  -0.348112  0  3.576612  0  0  -0.369148  -0.311758  0  3.546511  0
N  N81  1  0.73167083  0.01866634  0.01278448  1  0  -0.403715  0  3.276663  0  0  -0.326479  0  3.558826  0  0  -0.34798  0  3.576492  0  0  -0.369074  -0.311627  0  3.54639  0
N  N82  1  0.41503681  0.45597187  0.63336172  1  0  -0.087078  0  3.582057  0  0  0.002152  0  3.808864  0  0  -0.013499  0  3.834445  0  0  -0.244396  0.012661  0  3.791634  0
N  N83  1  0.08496324  0.95597172  0.86663730  1  0  -0.087113  0  3.582096  0  0  0.002103  0  3.808921  0  0  -0.013546  0  3.834497  0  0  -0.244401  0.012613  0  3.791691  0
N  N84  1  0.58496432  0.54402832  0.36663768  1  0  -0.087105  0  3.582126  0  0  0.00212  0  3.808942  0  0  -0.013529  0  3.834522  0  0  -0.24441  0.012629  0  3.791713  0
N  N85  1  0.91503686  0.04402751  0.13336204  1  0  -0.087088  0  3.582092  0  0  0.002145  0  3.808908  0  0  -0.013502  0  3.834485  0  0  -0.244394  0.012654  0  3.791678  0
N  N86  1  0.46887986  0.39344766  0.83570719  1  0  -0.021735  0  3.514061  0  0  0.055776  0  3.750492  0  0  0.042571  0  3.774613  0  0  -0.126145  0.064312  0  3.734285  0
N  N87  1  0.03112021  0.89344865  0.66429276  1  0  -0.021781  0  3.514095  0  0  0.055724  0  3.750531  0  0  0.04252  0  3.774652  0  0  -0.126146  0.06426  0  3.734324  0
N  N88  1  0.53111923  0.60655253  0.16429298  1  0  -0.021769  0  3.514051  0  0  0.055746  0  3.750507  0  0  0.042542  0  3.774626  0  0  -0.126148  0.064282  0  3.7343  0
N  N89  1  0.96887989  0.10655154  0.33570747  1  0  -0.021735  0  3.514078  0  0  0.05578  0  3.75053  0  0  0.042579  0  3.774649  0  0  -0.126151  0.064316  0  3.734323  0
N  N90  1  0.52004527  0.27329009  0.84939163  1  0  -0.05267  0  2.860466  0  0  -0.056352  0  3.137044  0  0  -0.049115  0  3.147256  0  0  -0.065698  -0.060857  0  3.130116  0
N  N91  1  0.97995599  0.77329095  0.65060937  1  0  -0.052639  0  2.860393  0  0  -0.056326  0  3.13699  0  0  -0.049088  0  3.147195  0  0  -0.0657  -0.060834  0  3.130065  0
N  N92  1  0.47995585  0.72671106  0.15060866  1  0  -0.052627  0  2.860414  0  0  -0.05631  0  3.136999  0  0  -0.049073  0  3.147208  0  0  -0.065687  -0.060814  0  3.130074  0
N  N93  1  0.02004615  0.22670924  0.34939186  1  0  -0.052639  0  2.860454  0  0  -0.056318  0  3.137041  0  0  -0.049084  0  3.147249  0  0  -0.06567  -0.060824  0  3.130115  0
N  N94  1  0.46397590  0.21941470  0.93873375  1  0  -0.249591  0  3.136395  0  0  -0.198223  0  3.428731  0  0  -0.209794  0  3.442011  0  0  -0.198855  -0.190212  0  3.419458  0
N  N95  1  0.03602526  0.71941577  0.56126638  1  0  -0.249542  0  3.136312  0  0  -0.198186  0  3.42866  0  0  -0.209758  0  3.441941  0  0  -0.198828  -0.190175  0  3.419386  0
N  N96  1  0.53602522  0.78058645  0.06126743  1  0  -0.249616  0  3.136468  0  0  -0.19828  0  3.428782  0  0  -0.209852  0  3.442061  0  0  -0.198873  -0.19027  0  3.419512  0
N  N97  1  0.96397689  0.28058442  0.43873308  1  0  -0.249611  0  3.136413  0  0  -0.198268  0  3.428759  0  0  -0.209838  0  3.442036  0  0  -0.198877  -0.190257  0  3.419485  0
N  N98  1  0.04535065  0.33824478  0.75021285  1  0  0.692148  0  4.160017  0  0  0.725547  0  4.456711  0  0  0.752014  0  4.462659  0  0  0.094944  0.706509  0  4.452573  0
N  N99  1  0.45464945  0.83824460  0.74978625  1  0  0.692231  0  4.159691  0  0  0.725582  0  4.456426  0  0  0.752049  0  4.462369  0  0  0.094905  0.706544  0  4.45229  0
N  N100  1  0.95464844  0.66175542  0.24978643  1  0  0.692228  0  4.159949  0  0  0.72557  0  4.456695  0  0  0.752048  0  4.462638  0  0  0.094884  0.706532  0  4.452553  0
N  N101  1  0.54535066  0.16175463  0.25021398  1  0  0.692231  0  4.159602  0  0  0.725593  0  4.456323  0  0  0.752058  0  4.462267  0  0  0.094926  0.706556  0  4.452187  0
O  O102  1  0.98821863  0.44097403  0.70674568  1  0  -0.513979  0  1.791624  0  0  -0.48898  0  2.030838  0  0  -0.507245  0  2.021978  0  0  -0.220836  -0.475462  0  2.03653  0
O  O103  1  0.51178054  0.94097397  0.79325331  1  0  -0.51401  0  1.791631  0  0  -0.488993  0  2.030853  0  0  -0.507257  0  2.021994  0  0  -0.220809  -0.475475  0  2.036544  0
O  O104  1  0.01178046  0.55902616  0.29325449  1  0  -0.514019  0  1.79166  0  0  -0.489022  0  2.030905  0  0  -0.507289  0  2.02204  0  0  -0.220832  -0.475501  0  2.036595  0
O  O105  1  0.48821957  0.05902527  0.20674603  1  0  -0.514024  0  1.791559  0  0  -0.489039  0  2.030804  0  0  -0.507301  0  2.021938  0  0  -0.220838  -0.475519  0  2.036496  0
O  O106  1  0.14781638  0.29155895  0.70429252  1  0  -0.469714  0  1.765871  0  0  -0.468761  0  1.989202  0  0  -0.481506  0  1.985246  0  0  -0.197673  -0.45929  0  1.991821  0
O  O107  1  0.35218272  0.79155973  0.79570655  1  0  -0.469792  0  1.765807  0  0  -0.468808  0  1.98913  0  0  -0.481549  0  1.98517  0  0  -0.197678  -0.459336  0  1.99175  0
O  O108  1  0.85218271  0.70844028  0.29570765  1  0  -0.469731  0  1.765832  0  0  -0.468756  0  1.989166  0  0  -0.481504  0  1.985208  0  0  -0.19765  -0.459285  0  1.991787  0
O  O109  1  0.64781739  0.20843950  0.20429367  1  0  -0.469774  0  1.765792  0  0  -0.468791  0  1.989108  0  0  -0.481533  0  1.98515  0  0  -0.197685  -0.459321  0  1.99173  0
O  O110  1  0.99601500  0.28523862  0.83797609  1  0  -0.464512  0  1.777418  0  0  -0.45616  0  2.000304  0  0  -0.469605  0  1.996239  0  0  -0.186899  -0.446206  0  2.002813  0
O  O111  1  0.50398524  0.78523866  0.66202218  1  0  -0.464521  0  1.777219  0  0  -0.456152  0  2.00012  0  0  -0.469599  0  1.996057  0  0  -0.186878  -0.446189  0  2.002613  0
O  O112  1  0.00398510  0.71476157  0.16202325  1  0  -0.464567  0  1.777403  0  0  -0.456168  0  2.000283  0  0  -0.469617  0  1.996218  0  0  -0.186876  -0.446211  0  2.00279  0
O  O113  1  0.49601384  0.21476057  0.33797799  1  0  -0.464537  0  1.777198  0  0  -0.456156  0  2.000094  0  0  -0.469602  0  1.996031  0  0  -0.186883  -0.446191  0  2.002584  0
