# generated using pymatgen
data_CuH46C66S2(N2O3)2
_symmetry_space_group_name_H-M   'P 1'
_cell_length_a   9.01522283
_cell_length_b   18.32564484
_cell_length_c   18.32560784
_cell_angle_alpha   97.70896659
_cell_angle_beta   95.41415829
_cell_angle_gamma   95.41397313
_symmetry_Int_Tables_number   1
_chemical_formula_structural   CuH46C66S2(N2O3)2
_chemical_formula_sum   'Cu2 H92 C132 S4 N8 O12'
_cell_volume   2969.19974725
_cell_formula_units_Z   2
loop_
 _symmetry_equiv_pos_site_id
 _symmetry_equiv_pos_as_xyz
  1  'x, y, z'
loop_
 _atom_site_type_symbol
 _atom_site_label
 _atom_site_symmetry_multiplicity
 _atom_site_fract_x
 _atom_site_fract_y
 _atom_site_fract_z
 _atom_site_occupancy
 _atom_site_pbe_bader_charge
 _atom_site_pbe_bader_spin_density
 _atom_site_pbe_cm5_charge
 _atom_site_pbe_ddec_charge
 _atom_site_pbe_ddec_spin_density
 _atom_site_pbe_ddec_sum_bond_order
 _atom_site_pbe_magmom
Cu  Cu0  1  0.74999938  0.26624694  0.73375320  1  1.055663  -0.55913  0.769266  0.681026  -0.754232  2.263984  -0.558
Cu  Cu1  1  0.24999686  0.73375365  0.26624545  1  1.055651  0.55913  0.769271  0.681028  0.754232  2.264074  0.558
H  H2  1  0.77196962  0.43322430  0.88252212  1  0.077872  3e-05  0.103367  0.110494  3e-05  1.023444  0.0
H  H3  1  0.72802741  0.11747923  0.56677500  1  0.077816  3e-05  0.103345  0.110449  3e-05  1.02346  0.0
H  H4  1  0.22802316  0.56677573  0.11747739  1  0.077828  -3e-05  0.10334  0.110437  -3e-05  1.023493  0.0
H  H5  1  0.27197352  0.88252249  0.43322511  1  0.077837  -3e-05  0.103362  0.110477  -3e-05  1.023461  0.0
H  H6  1  0.88781569  0.54349900  0.97215315  1  0.066284  -2e-06  0.10237  0.100064  -3e-06  0.993568  0.0
H  H7  1  0.61218107  0.02784820  0.45649958  1  0.066272  -2e-06  0.102362  0.100106  -3e-06  0.993635  0.0
H  H8  1  0.11218121  0.45649938  0.02784796  1  0.066258  2e-06  0.102373  0.100093  3e-06  0.993664  0.0
H  H9  1  0.38781495  0.97215129  0.54350164  1  0.066296  2e-06  0.102397  0.100106  3e-06  0.993674  0.0
H  H10  1  0.73829746  0.60442697  0.06390214  1  0.105234  -1e-06  0.1045  0.109001  -5e-06  1.043305  0.0
H  H11  1  0.76170149  0.93609939  0.39557258  1  0.105261  -1e-06  0.104502  0.109014  -5e-06  1.043283  0.0
H  H12  1  0.26169978  0.39557307  0.93609866  1  0.105259  1e-06  0.104502  0.109007  5e-06  1.043287  0.0
H  H13  1  0.23829652  0.06389899  0.60442857  1  0.105264  1e-06  0.104505  0.109016  5e-06  1.043291  0.0
H  H14  1  0.42527455  0.22363868  0.75336542  1  0.098497  -0.002269  0.117623  0.084034  -0.001091  1.038538  -0.002
H  H15  1  0.07472055  0.24663326  0.77635793  1  0.09849  -0.002269  0.117639  0.084093  -0.00109  1.038396  -0.002
H  H16  1  0.57472456  0.77635971  0.24663251  1  0.09849  0.002269  0.117637  0.08407  0.001091  1.038463  0.002
H  H17  1  0.92527334  0.75336678  0.22364053  1  0.098468  0.002269  0.117655  0.084156  0.00109  1.038351  0.002
H  H18  1  0.26409103  0.10786183  0.76235300  1  0.156414  -0.001276  0.110768  0.131149  -0.000695  1.023598  -0.001
H  H19  1  0.23590918  0.23764813  0.89213522  1  0.156493  -0.001276  0.110778  0.131174  -0.000695  1.023573  -0.001
H  H20  1  0.73590932  0.89213712  0.23764561  1  0.156436  0.001276  0.110773  0.131145  0.000695  1.023578  0.001
H  H21  1  0.76408886  0.76235580  0.10786287  1  0.156373  0.001276  0.110773  0.131131  0.000695  1.023551  0.001
H  H22  1  0.37768675  0.98891962  0.75664213  1  0.083857  -0.000273  0.102625  0.100363  -0.000137  1.043565  0.0
H  H23  1  0.12231690  0.24336027  0.01107895  1  0.083895  -0.000273  0.102662  0.100413  -0.000137  1.04355  0.0
H  H24  1  0.62231359  0.01107933  0.24335539  1  0.083861  0.000273  0.102624  0.100339  0.000137  1.043531  0.0
H  H25  1  0.87768506  0.75664643  0.98892079  1  0.083838  0.000273  0.102617  0.100334  0.000137  1.043569  0.0
H  H26  1  0.80221039  0.11097266  0.73643447  1  0.137063  -0.002431  0.115153  0.095896  -0.00118  1.064184  -0.002
H  H27  1  0.69778930  0.26356403  0.88902757  1  0.136992  -0.002432  0.115141  0.095896  -0.00118  1.064199  -0.002
H  H28  1  0.19779218  0.88902629  0.26356424  1  0.137019  0.002432  0.115146  0.095893  0.00118  1.064197  0.002
H  H29  1  0.30220683  0.73643600  0.11097318  1  0.137032  0.002431  0.11514  0.095876  0.00118  1.064193  0.002
H  H30  1  0.79272198  0.98017438  0.72466158  1  0.054674  -1.8e-05  0.105856  0.112613  6e-06  1.011437  0.0
H  H31  1  0.70728120  0.27533980  0.01982433  1  0.054732  -1.8e-05  0.105872  0.112607  6e-06  1.011433  0.0
H  H32  1  0.20727814  0.01982346  0.27533796  1  0.054638  1.8e-05  0.105852  0.112591  -6e-06  1.011475  0.0
H  H33  1  0.29271850  0.72466136  0.98017728  1  0.054699  1.8e-05  0.105868  0.112617  -6e-06  1.011492  0.0
H  H34  1  0.50228690  0.90048057  0.76497512  1  0.056706  -1e-05  0.099254  0.092966  -5e-06  1.036169  0.0
H  H35  1  0.99771384  0.23502251  0.09951826  1  0.056678  -1e-05  0.099251  0.09295  -5e-06  1.036131  0.0
H  H36  1  0.49771210  0.09951726  0.23502382  1  0.0567  1e-05  0.099258  0.092968  5e-06  1.036154  0.0
H  H37  1  0.00228381  0.76497422  0.90047938  1  0.056701  1e-05  0.099235  0.09293  5e-06  1.036135  0.0
H  H38  1  0.55906850  0.86959981  0.86743348  1  0.041276  -6e-06  0.100154  0.101492  -4e-06  1.015492  0.0
H  H39  1  0.94093292  0.13256502  0.13039851  1  0.041216  -6e-06  0.100118  0.101439  -4e-06  1.015533  0.0
H  H40  1  0.44093790  0.13040137  0.13256789  1  0.0412  6e-06  0.100127  0.101445  4e-06  1.015492  0.0
H  H41  1  0.05906909  0.86743116  0.86960143  1  0.041226  6e-06  0.100132  0.101462  4e-06  1.015547  0.0
H  H42  1  0.52633932  0.79127777  0.96502498  1  0.072346  6e-06  0.104857  0.108021  3e-06  0.989256  0.0
H  H43  1  0.97366020  0.03497226  0.20872082  1  0.072371  5e-06  0.104835  0.108013  3e-06  0.98922  0.0
H  H44  1  0.47366508  0.20872450  0.03497700  1  0.072282  -6e-06  0.104855  0.108044  -3e-06  0.98929  0.0
H  H45  1  0.02634169  0.96502336  0.79127958  1  0.072445  -5e-06  0.104865  0.108073  -3e-06  0.989296  0.0
H  H46  1  0.62668594  0.66890398  0.95622345  1  0.078726  -3e-06  0.096837  0.096985  -4e-06  1.040898  0.0
H  H47  1  0.87331436  0.04377480  0.33109523  1  0.078727  -3e-06  0.096837  0.096971  -4e-06  1.040882  0.0
H  H48  1  0.37332081  0.33109885  0.04377925  1  0.078693  3e-06  0.096843  0.097007  4e-06  1.040838  0.0
H  H49  1  0.12668666  0.95622193  0.66890638  1  0.078834  3e-06  0.096835  0.09701  4e-06  1.040808  0.0
H  H50  1  0.76529927  0.62675154  0.85239212  1  0.07031  -7e-06  0.094953  0.092632  -2e-06  1.048659  0.0
H  H51  1  0.73470288  0.14760784  0.37324791  1  0.070173  -7e-06  0.094976  0.09266  -2e-06  1.048619  0.0
H  H52  1  0.23470613  0.37325018  0.14761146  1  0.070148  7e-06  0.09501  0.092704  2e-06  1.048717  0.0
H  H53  1  0.26529724  0.85238999  0.62675272  1  0.070193  7e-06  0.094973  0.092676  2e-06  1.04863  0.0
H  H54  1  0.94908580  0.66746754  0.60825047  1  0.057344  -3e-06  0.097027  0.097355  -2e-06  1.02288  0.0
H  H55  1  0.55091599  0.39174747  0.33253065  1  0.057349  -3e-06  0.096988  0.0973  -2e-06  1.022915  0.0
H  H56  1  0.05091232  0.33253140  0.39174968  1  0.057606  3e-06  0.097008  0.0973  2e-06  1.02288  0.0
H  H57  1  0.44908601  0.60824871  0.66746765  1  0.057601  3e-06  0.097006  0.097319  2e-06  1.022923  0.0
H  H58  1  0.95854585  0.74105185  0.50570238  1  0.052162  3.9e-05  0.099112  0.094399  2.8e-05  1.004621  0.0
H  H59  1  0.54145186  0.49429557  0.25894669  1  0.052206  3.9e-05  0.09914  0.09444  2.8e-05  1.004616  0.0
H  H60  1  0.04145117  0.25894708  0.49429826  1  0.052155  -3.9e-05  0.099119  0.094411  -2.8e-05  1.00455  0.0
H  H61  1  0.45855037  0.50570172  0.74105341  1  0.052128  -3.9e-05  0.09911  0.094379  -2.8e-05  1.004617  0.0
H  H62  1  0.83095052  0.85528711  0.50849682  1  0.09394  -1e-06  0.096114  0.098914  -1e-06  1.05567  0.0
H  H63  1  0.66905125  0.49150292  0.14471278  1  0.09394  -1e-06  0.096098  0.098897  -1e-06  1.055717  0.0
H  H64  1  0.16905007  0.14471294  0.49150413  1  0.093922  1e-06  0.096124  0.099  1e-06  1.055703  0.0
H  H65  1  0.33095368  0.50849659  0.85528775  1  0.093931  1e-06  0.096088  0.098873  1e-06  1.05572  0.0
H  H66  1  0.70770558  0.90077607  0.61734857  1  0.078948  -7e-06  0.097214  0.097844  -3e-06  1.031075  0.0
H  H67  1  0.79230529  0.38265220  0.09922602  1  0.078963  -7e-06  0.097208  0.097838  -3e-06  1.031116  0.0
H  H68  1  0.29229981  0.09922565  0.38265229  1  0.079004  8e-06  0.097229  0.097866  3e-06  1.031109  0.0
H  H69  1  0.20770310  0.61734787  0.90077529  1  0.078949  8e-06  0.097216  0.097831  3e-06  1.031103  0.0
H  H70  1  0.99562224  0.63411467  0.70729580  1  0.088429  -1.6e-05  0.099245  0.090756  -9e-06  1.038732  0.0
H  H71  1  0.50438055  0.29270260  0.36588366  1  0.088312  -1.6e-05  0.099268  0.090803  -9e-06  1.038705  0.0
H  H72  1  0.00437588  0.36588427  0.29270271  1  0.088427  1.6e-05  0.09925  0.090765  9e-06  1.038724  0.0
H  H73  1  0.49561909  0.70729302  0.63411283  1  0.088296  1.6e-05  0.099261  0.090805  9e-06  1.038671  0.0
H  H74  1  0.71084313  0.55272268  0.75050532  1  0.059234  -3.7e-05  0.099884  0.099443  -1e-05  1.038351  0.0
H  H75  1  0.78915979  0.24949470  0.44727925  1  0.059199  -3.7e-05  0.099878  0.099423  -1e-05  1.038337  0.0
H  H76  1  0.28915716  0.44728124  0.24949779  1  0.059242  3.7e-05  0.099875  0.099429  1e-05  1.038305  0.0
H  H77  1  0.21083833  0.75050424  0.55271872  1  0.059335  3.7e-05  0.099858  0.099404  1e-05  1.038237  0.0
H  H78  1  0.11446082  0.54265872  0.69697671  1  0.077813  -0.00023  0.103944  0.10192  -0.000118  1.033369  0.0
H  H79  1  0.38554164  0.30302627  0.45734024  1  0.077727  -0.00023  0.103932  0.101883  -0.000118  1.033364  0.0
H  H80  1  0.88553678  0.45734298  0.30302597  1  0.077804  0.00023  0.103937  0.101883  0.000118  1.033438  0.0
H  H81  1  0.61446150  0.69697546  0.54265615  1  0.077827  0.00023  0.103907  0.101807  0.000118  1.033449  0.0
H  H82  1  0.21915431  0.42209232  0.67624911  1  0.098067  -0.001331  0.109256  0.111648  -0.000714  1.006622  -0.001
H  H83  1  0.28084774  0.32375331  0.57790721  1  0.097843  -0.001332  0.109257  0.111621  -0.000714  1.006674  -0.001
H  H84  1  0.78084093  0.57790882  0.32375175  1  0.09778  0.001332  0.10924  0.11159  0.000714  1.006633  0.001
H  H85  1  0.71915364  0.67625062  0.42209049  1  0.098061  0.001331  0.109253  0.111609  0.000714  1.006656  0.001
H  H86  1  0.05963819  0.30551411  0.68725790  1  0.140836  -0.002371  0.117842  0.093316  -0.001202  1.038293  -0.002
H  H87  1  0.44035991  0.31274131  0.69448557  1  0.140851  -0.00237  0.117855  0.093337  -0.001201  1.038282  -0.002
H  H88  1  0.94035605  0.69448759  0.31274245  1  0.140778  0.002371  0.117843  0.093286  0.001202  1.038247  0.002
H  H89  1  0.55963609  0.68725818  0.30551237  1  0.140798  0.00237  0.117837  0.093276  0.001201  1.038303  0.002
H  H90  1  0.70934936  0.42276213  0.74826090  1  0.144879  -0.00219  0.116455  0.098265  -0.00107  1.042147  -0.002
H  H91  1  0.79065113  0.25174067  0.57723792  1  0.144435  -0.002191  0.116434  0.098257  -0.00107  1.042157  -0.002
H  H92  1  0.29064489  0.57723956  0.25174109  1  0.144542  0.002191  0.116445  0.098265  0.00107  1.042131  0.002
H  H93  1  0.20934846  0.74825993  0.42276143  1  0.144873  0.002191  0.116447  0.098285  0.00107  1.042093  0.002
C  C94  1  0.55694143  0.43458328  0.92221646  1  -0.176756  0.000106  -0.016947  -0.126889  8e-05  3.921033  0.0
C  C95  1  0.94305564  0.07778439  0.56541680  1  -0.17671  0.000106  -0.016939  -0.12697  7.9e-05  3.92095  0.0
C  C96  1  0.44305404  0.56541897  0.07778347  1  -0.176718  -0.000106  -0.017017  -0.127151  -7.9e-05  3.920942  0.0
C  C97  1  0.05694417  0.92221733  0.43458162  1  -0.176694  -0.000106  -0.016998  -0.127058  -8e-05  3.920972  0.0
C  C98  1  0.70548150  0.46108279  0.92206380  1  -0.028438  2e-05  -0.09086  -0.096002  1.1e-05  4.005905  0.0
C  C99  1  0.79451451  0.07793698  0.53891583  1  -0.028425  2e-05  -0.090798  -0.095853  1.1e-05  4.005811  0.0
C  C100  1  0.29451128  0.53891724  0.07793461  1  -0.028439  -2e-05  -0.090798  -0.09589  -1.1e-05  4.005778  0.0
C  C101  1  0.20548531  0.92206473  0.46108368  1  -0.028399  -2e-05  -0.090848  -0.095948  -1.1e-05  4.005899  0.0
C  C102  1  0.77046626  0.52295166  0.97309055  1  -0.094108  -3e-06  -0.090512  -0.073185  -3e-06  4.020394  0.0
C  C103  1  0.72953191  0.02691184  0.47704770  1  -0.093888  -2e-06  -0.090548  -0.07334  -3e-06  4.020534  0.0
C  C104  1  0.22952775  0.47704893  0.02690909  1  -0.094479  3e-06  -0.090496  -0.073177  3e-06  4.020636  0.0
C  C105  1  0.27046879  0.97308876  0.52295224  1  -0.093922  3e-06  -0.090477  -0.073139  3e-06  4.020691  0.0
C  C106  1  0.68692799  0.55750642  0.02387931  1  -0.000446  3e-06  -0.085672  -0.125087  -3e-06  3.967898  0.0
C  C107  1  0.81307064  0.97612205  0.44249240  1  -0.00077  3e-06  -0.08567  -0.125054  -4e-06  3.967963  0.0
C  C108  1  0.31306736  0.44249528  0.97612054  1  -0.000162  -3e-06  -0.085694  -0.125054  3e-06  3.968029  0.0
C  C109  1  0.18693005  0.02387855  0.55750645  1  -0.000767  -3e-06  -0.08571  -0.125189  3e-06  3.968056  0.0
C  C110  1  0.53380354  0.53155191  0.02587390  1  0.036464  -2e-05  0.001586  0.066378  -1.6e-05  3.951698  0.0
C  C111  1  0.96619011  0.97412637  0.46844689  1  -0.018626  -2e-05  0.001598  0.066291  -1.6e-05  3.951729  0.0
C  C112  1  0.46618969  0.46845034  0.97412430  1  -0.018145  2e-05  0.001572  0.066122  1.6e-05  3.951852  0.0
C  C113  1  0.03380770  0.02587644  0.53155159  1  0.036952  2e-05  0.001565  0.066332  1.6e-05  3.951661  0.0
C  C114  1  0.47250461  0.17120530  0.75204140  1  0.476093  0.000538  0.049051  0.099492  -0.000505  3.917066  0.0
C  C115  1  0.02749119  0.24795715  0.82879298  1  0.476341  0.000538  0.04905  0.099508  -0.000505  3.916657  0.0
C  C116  1  0.52749462  0.82879364  0.24795716  1  0.476405  -0.000537  0.049088  0.099562  0.000505  3.916799  0.0
C  C117  1  0.97250393  0.75204344  0.17120616  1  0.475846  -0.000535  0.049036  0.09945  0.000505  3.916668  0.0
C  C118  1  0.38346712  0.10631146  0.75797058  1  -0.049971  -0.007198  -0.081184  -0.11408  -0.005093  3.956443  -0.006
C  C119  1  0.11653375  0.24202949  0.89368717  1  -0.050182  -0.007198  -0.081209  -0.114184  -0.005093  3.956347  -0.006
C  C120  1  0.61653446  0.89368804  0.24202816  1  -0.050085  0.007198  -0.081188  -0.11417  0.005093  3.956383  0.006
C  C121  1  0.88346271  0.75797222  0.10631164  1  -0.050035  0.007195  -0.081192  -0.114157  0.005093  3.956383  0.006
C  C122  1  0.44745595  0.04021032  0.75421646  1  -0.035392  0.004246  -0.065993  -0.07513  0.002914  3.905968  0.003
C  C123  1  0.05254528  0.24578544  0.95978869  1  -0.03546  0.004246  -0.06604  -0.075197  0.002914  3.90593  0.003
C  C124  1  0.55254340  0.95978917  0.24578272  1  -0.035605  -0.004246  -0.066  -0.075042  -0.002914  3.905863  -0.003
C  C125  1  0.94745388  0.75421849  0.04021110  1  -0.035105  -0.004246  -0.065983  -0.075023  -0.002914  3.905829  -0.003
C  C126  1  0.60065604  0.03967079  0.74521137  1  0.01543  -0.006432  -0.009157  0.069807  -0.004496  4.036779  -0.005
C  C127  1  0.89934479  0.25478966  0.96032875  1  0.015565  -0.006432  -0.009149  0.069858  -0.004496  4.036868  -0.005
C  C128  1  0.39934554  0.96032871  0.25478847  1  0.015677  0.006432  -0.009188  0.069781  0.004496  4.037008  0.005
C  C129  1  0.10065168  0.74521204  0.03967061  1  0.015578  0.006432  -0.009216  0.069723  0.004496  4.036855  0.005
C  C130  1  0.68253182  0.10794575  0.74183026  1  0.459725  0.001055  0.042903  0.03376  -0.000146  3.875013  0.001
C  C131  1  0.81746692  0.25816902  0.89205383  1  0.459668  0.001055  0.04287  0.033646  -0.000147  3.875118  0.001
C  C132  1  0.31746853  0.89205320  0.25816890  1  0.459601  -0.001055  0.042878  0.033671  0.000146  3.875138  -0.001
C  C133  1  0.18253044  0.74183157  0.10794597  1  0.459625  -0.001055  0.042903  0.033729  0.000146  3.875097  -0.001
C  C134  1  0.67713696  0.97280284  0.73800263  1  -0.055257  -0.000494  -0.089433  -0.1378  -0.000388  3.988807  0.0
C  C135  1  0.82286478  0.26199882  0.02719566  1  -0.055354  -0.000494  -0.089397  -0.13771  -0.000388  3.988793  0.0
C  C136  1  0.32286059  0.02719333  0.26199820  1  -0.055306  0.000494  -0.089407  -0.137757  0.000388  3.988655  0.0
C  C137  1  0.17713704  0.73800178  0.97280597  1  -0.055272  0.000494  -0.089447  -0.137796  0.000388  3.988779  0.0
C  C138  1  0.61550219  0.90519645  0.74803360  1  -0.023229  -0.001271  -0.084579  -0.110693  -0.000867  3.994392  -0.001
C  C139  1  0.88449823  0.25196576  0.09480296  1  -0.023215  -0.001271  -0.084576  -0.110665  -0.000867  3.994325  -0.001
C  C140  1  0.38449640  0.09480470  0.25196633  1  -0.023129  0.001271  -0.084575  -0.110691  0.000867  3.994099  0.001
C  C141  1  0.11550411  0.74803208  0.90519505  1  -0.02316  0.001271  -0.084518  -0.110625  0.000867  3.994211  0.001
C  C142  1  0.68615137  0.83639097  0.74161968  1  -0.000518  -0.000215  -0.001958  0.023469  -0.000147  3.957783  0.0
C  C143  1  0.81385129  0.25838054  0.16360833  1  -0.000515  -0.000215  -0.002033  0.023268  -0.000147  3.957826  0.0
C  C144  1  0.31384934  0.16360964  0.25838245  1  -0.000557  0.000215  -0.002012  0.023455  0.000147  3.957737  0.0
C  C145  1  0.18615094  0.74161675  0.83639123  1  -0.000518  0.000215  -0.002023  0.023426  0.000147  3.957785  0.0
C  C146  1  0.67201422  0.79122982  0.79839121  1  -0.006881  -9.5e-05  -0.007538  0.023597  -6.7e-05  3.97246  0.0
C  C147  1  0.82798757  0.20160810  0.20876929  1  -0.007216  -9.5e-05  -0.007544  0.023665  -6.7e-05  3.972323  0.0
C  C148  1  0.32798860  0.20877024  0.20160984  1  0.020866  9.5e-05  -0.007531  0.023504  6.7e-05  3.972177  0.0
C  C149  1  0.17201256  0.79838974  0.79123079  1  -0.00713  9.5e-05  -0.007466  0.023663  6.6e-05  3.972301  0.0
C  C150  1  0.59998738  0.81529950  0.86216287  1  -0.020338  -2.7e-05  -0.09349  -0.132497  -1.9e-05  3.995527  0.0
C  C151  1  0.90001361  0.13783675  0.18469877  1  -0.020013  -2.7e-05  -0.093396  -0.132356  -1.9e-05  3.995469  0.0
C  C152  1  0.40001578  0.18470222  0.13783843  1  -0.048001  2.7e-05  -0.093444  -0.132339  1.9e-05  3.995423  0.0
C  C153  1  0.09998875  0.86216109  0.81530196  1  -0.020103  2.7e-05  -0.093465  -0.132387  1.9e-05  3.995576  0.0
C  C154  1  0.58218531  0.77199689  0.91696824  1  -0.081905  1.9e-05  -0.08901  -0.075242  1.7e-05  4.014105  0.0
C  C155  1  0.91781348  0.08303168  0.22800192  1  -0.081858  1.9e-05  -0.089065  -0.075382  1.7e-05  4.014156  0.0
C  C156  1  0.41781898  0.22800483  0.08303366  1  -0.081774  -1.9e-05  -0.089039  -0.075367  -1.7e-05  4.014208  0.0
C  C157  1  0.08218676  0.91696671  0.77199879  1  -0.081884  -1.9e-05  -0.089095  -0.07545  -1.7e-05  4.014249  0.0
C  C158  1  0.63992313  0.70249673  0.91207605  1  -0.025664  -2.3e-05  -0.090828  -0.074306  -1.2e-05  4.00893  0.0
C  C159  1  0.86007694  0.08792364  0.29750204  1  -0.025735  -2.3e-05  -0.09081  -0.074208  -1.2e-05  4.008783  0.0
C  C160  1  0.36008216  0.29750444  0.08792636  1  -0.025297  2.3e-05  -0.090767  -0.074193  1.2e-05  4.008795  0.0
C  C161  1  0.13992430  0.91207419  0.70249918  1  -0.02568  2.3e-05  -0.090791  -0.074278  1.2e-05  4.008774  0.0
C  C162  1  0.71585778  0.67869212  0.85326784  1  -0.060875  1.5e-05  -0.093562  -0.132326  1.1e-05  3.980482  0.0
C  C163  1  0.78414481  0.14673288  0.32130760  1  -0.061114  1.5e-05  -0.093563  -0.132348  1.1e-05  3.980478  0.0
C  C164  1  0.28414762  0.32130960  0.14673520  1  -0.061036  -1.5e-05  -0.093666  -0.132465  -1.1e-05  3.980687  0.0
C  C165  1  0.21585754  0.85326496  0.67869314  1  -0.060866  -1.5e-05  -0.093569  -0.132303  -1.2e-05  3.980504  0.0
C  C166  1  0.73332019  0.72085955  0.79386571  1  -0.033338  -9.4e-05  -0.004461  0.03273  -6.3e-05  3.962785  0.0
C  C167  1  0.76668367  0.20613317  0.27914026  1  -0.032815  -9.4e-05  -0.004482  0.032665  -6.2e-05  3.962828  0.0
C  C168  1  0.26668421  0.27914272  0.20613626  1  -0.033413  9.4e-05  -0.004438  0.032725  6.2e-05  3.962668  0.0
C  C169  1  0.23331979  0.79386468  0.72085889  1  -0.033185  9.4e-05  -0.004497  0.032588  6.3e-05  3.962754  0.0
C  C170  1  0.81272936  0.69758716  0.73287089  1  0.00678  -9.7e-05  -0.007808  0.00958  -6.8e-05  3.957913  0.0
C  C171  1  0.68727833  0.26712903  0.30241161  1  0.006596  -9.8e-05  -0.007813  0.009566  -6.8e-05  3.957929  0.0
C  C172  1  0.18727569  0.30241290  0.26713081  1  0.006792  9.8e-05  -0.007827  0.009542  6.8e-05  3.957863  0.0
C  C173  1  0.31272524  0.73286937  0.69758707  1  0.006737  9.8e-05  -0.007778  0.009654  6.8e-05  3.957773  0.0
C  C174  1  0.82741252  0.74303218  0.67612192  1  -0.049151  -0.000102  -0.008778  0.021815  -6.7e-05  3.971888  0.0
C  C175  1  0.67259429  0.32387799  0.25696732  1  -0.049301  -0.000102  -0.008713  0.021884  -6.7e-05  3.971934  0.0
C  C176  1  0.17259142  0.25696788  0.32387973  1  -0.04964  0.000102  -0.008765  0.021852  6.7e-05  3.971794  0.0
C  C177  1  0.32740805  0.67611985  0.74303178  1  -0.049654  0.000102  -0.00876  0.021819  6.7e-05  3.971734  0.0
C  C178  1  0.89990764  0.71972348  0.61217651  1  -0.06044  4e-05  -0.095724  -0.140439  2.9e-05  4.006617  0.0
C  C179  1  0.60009471  0.38782331  0.28027631  1  -0.059984  4e-05  -0.095747  -0.140511  2.9e-05  4.006735  0.0
C  C180  1  0.10009284  0.28027602  0.38782491  1  -0.060419  -4e-05  -0.095721  -0.14044  -2.9e-05  4.006704  0.0
C  C181  1  0.39990740  0.61217343  0.71972153  1  -0.06037  -4e-05  -0.0958  -0.140553  -2.9e-05  4.006672  0.0
C  C182  1  0.90513177  0.76049950  0.55459731  1  -0.035803  -1e-05  -0.093094  -0.079515  2e-06  4.038375  0.0
C  C183  1  0.59486922  0.44540091  0.23950164  1  -0.035834  -1e-05  -0.093148  -0.079537  2e-06  4.038424  0.0
C  C184  1  0.09486793  0.23950166  0.44540157  1  -0.03571  1e-05  -0.093096  -0.079416  -2e-06  4.038412  0.0
C  C185  1  0.40513191  0.55459638  0.76049896  1  -0.035784  1e-05  -0.09306  -0.079378  -2e-06  4.038489  0.0
C  C186  1  0.83410809  0.82620917  0.55643761  1  0.020902  -3.9e-05  -0.095051  -0.080079  -3.4e-05  4.008832  0.0
C  C187  1  0.66589711  0.44356324  0.17379163  1  0.020832  -3.9e-05  -0.094983  -0.080007  -3.4e-05  4.008655  0.0
C  C188  1  0.16589485  0.17379143  0.44356462  1  0.020883  3.8e-05  -0.095029  -0.080211  3.4e-05  4.008857  0.0
C  C189  1  0.33410547  0.55643571  0.82620763  1  0.020827  3.9e-05  -0.094942  -0.079999  3.4e-05  4.008701  0.0
C  C190  1  0.76475420  0.85102818  0.61715072  1  -0.115941  -8.7e-05  -0.089545  -0.118089  -6.3e-05  3.962439  0.0
C  C191  1  0.73525583  0.38284797  0.14897283  1  -0.115797  -8.7e-05  -0.089565  -0.11818  -6.3e-05  3.962444  0.0
C  C192  1  0.23525219  0.14897299  0.38284902  1  -0.116002  8.7e-05  -0.089593  -0.118167  6.3e-05  3.962474  0.0
C  C193  1  0.26474863  0.61714933  0.85102628  1  -0.115905  8.7e-05  -0.089579  -0.11809  6.3e-05  3.962478  0.0
C  C194  1  0.76115890  0.81204775  0.67951291  1  -0.009327  -4e-05  -0.004309  0.027834  -2.5e-05  3.969818  0.0
C  C195  1  0.73884903  0.32048721  0.18795350  1  -0.009714  -4e-05  -0.004265  0.028  -2.5e-05  3.969788  0.0
C  C196  1  0.23884438  0.18795453  0.32048847  1  -0.009183  4e-05  -0.004294  0.027882  2.5e-05  3.969824  0.0
C  C197  1  0.26115543  0.67951009  0.81204561  1  -0.009246  4e-05  -0.004287  0.027854  2.5e-05  3.969934  0.0
C  C198  1  0.88368296  0.62888487  0.72561173  1  -0.080719  -0.000919  -0.083298  -0.09931  -0.000625  3.994116  -0.001
C  C199  1  0.61632408  0.27438723  0.37111554  1  -0.080482  -0.000919  -0.083299  -0.099281  -0.000625  3.994188  -0.001
C  C200  1  0.11631997  0.37111574  0.27438831  1  -0.080902  0.00092  -0.083307  -0.099282  0.000625  3.99414  0.001
C  C201  1  0.38367280  0.72561115  0.62888120  1  -0.080703  0.000919  -0.083328  -0.099375  0.000625  3.994447  0.001
C  C202  1  0.82480270  0.56064142  0.73517456  1  -0.029111  -0.000457  -0.096296  -0.145515  -0.00037  3.994977  0.0
C  C203  1  0.67519831  0.26482522  0.43935849  1  -0.029112  -0.000457  -0.096315  -0.145525  -0.00037  3.995167  0.0
C  C204  1  0.17519613  0.43936084  0.26482826  1  -0.028819  0.000457  -0.096303  -0.145544  0.00037  3.99498  0.0
C  C205  1  0.32480270  0.73517151  0.56064258  1  -0.029088  0.000457  -0.09628  -0.145472  0.00037  3.995196  0.0
C  C206  1  0.89966962  0.49362508  0.72284299  1  -0.039764  -0.005777  -0.007612  0.073579  -0.004015  4.034544  -0.005
C  C207  1  0.60033433  0.27715766  0.50637521  1  -0.039717  -0.005777  -0.007561  0.07358  -0.004014  4.034506  -0.005
C  C208  1  0.10032810  0.50637717  0.27715977  1  -0.039711  0.005777  -0.007522  0.073665  0.004015  4.03428  0.005
C  C209  1  0.39966567  0.72283963  0.49362316  1  -0.039627  0.005777  -0.0076  0.073514  0.004015  4.034367  0.005
C  C210  1  0.04615017  0.49183519  0.70254975  1  -0.007352  0.004134  -0.064358  -0.073341  0.002845  3.913376  0.003
C  C211  1  0.45385082  0.29745309  0.50816477  1  -0.007399  0.004134  -0.064371  -0.073301  0.002846  3.913204  0.003
C  C212  1  0.95384621  0.50816595  0.29745443  1  -0.007485  -0.004134  -0.06438  -0.073357  -0.002846  3.913348  -0.003
C  C213  1  0.54615175  0.70254587  0.49183340  1  -0.007474  -0.004134  -0.064344  -0.073148  -0.002846  3.913289  -0.003
C  C214  1  0.10501377  0.42460984  0.69038716  1  -0.0557  -0.006725  -0.079276  -0.106507  -0.004677  3.981731  -0.005
C  C215  1  0.39498650  0.30961422  0.57538921  1  -0.055461  -0.006725  -0.079258  -0.106435  -0.004676  3.981658  -0.005
C  C216  1  0.89498359  0.57539075  0.30961427  1  -0.055769  0.006725  -0.079234  -0.106365  0.004676  3.981762  0.005
C  C217  1  0.60501296  0.69038583  0.42460896  1  -0.055666  0.006725  -0.079282  -0.106516  0.004676  3.981861  0.005
C  C218  1  0.01883108  0.35950021  0.69844619  1  0.489615  0.000608  0.047122  0.086752  -0.000563  3.905848  0.0
C  C219  1  0.48116786  0.30155382  0.64049919  1  0.48956  0.000608  0.047117  0.086713  -0.000562  3.905777  0.0
C  C220  1  0.98116405  0.64050038  0.30155459  1  0.489799  -0.000608  0.047133  0.086785  0.000563  3.90553  0.0
C  C221  1  0.51883248  0.69844513  0.35949833  1  0.489604  -0.000608  0.047167  0.086846  0.000562  3.905715  0.0
C  C222  1  0.82205912  0.42565463  0.73108958  1  0.44912  0.001362  0.042454  0.026711  0.000169  3.883192  0.001
C  C223  1  0.67794147  0.26891165  0.57434520  1  0.449533  0.001362  0.042418  0.026636  0.000168  3.883297  0.001
C  C224  1  0.17793837  0.57434652  0.26891302  1  0.449598  -0.001363  0.042422  0.026653  -0.000169  3.883385  -0.001
C  C225  1  0.32205877  0.73108674  0.42565333  1  0.449168  -0.001362  0.042476  0.026714  -0.000168  3.883224  -0.001
S  S226  1  0.48306687  0.35372470  0.85813696  1  3.183668  0.000212  0.495548  1.156694  0.000107  6.238631  0.0
S  S227  1  0.01693245  0.14186352  0.64627430  1  3.183594  0.000212  0.495463  1.156619  0.000107  6.23881  0.0
S  S228  1  0.51692703  0.64627533  0.14186315  1  3.183631  -0.000212  0.495605  1.156758  -0.000107  6.238549  0.0
S  S229  1  0.98306959  0.85813820  0.35372476  1  3.183555  -0.000212  0.495567  1.156669  -0.000107  6.238954  0.0
N  N230  1  0.61950103  0.17179737  0.74440138  1  -1.217471  -0.097934  -0.341219  -0.219764  -0.068203  3.625635  -0.085
N  N231  1  0.88049163  0.25559658  0.82820168  1  -1.217537  -0.097929  -0.34121  -0.219701  -0.0682  3.625487  -0.085
N  N232  1  0.38049708  0.82820157  0.25559658  1  -1.217498  0.097934  -0.34121  -0.219723  0.068204  3.625555  0.085
N  N233  1  0.11950350  0.74440401  0.17179910  1  -1.217477  0.097927  -0.341191  -0.21971  0.068199  3.62559  0.085
N  N234  1  0.87999594  0.36064420  0.71958716  1  -1.219907  -0.09303  -0.339114  -0.211378  -0.06509  3.608942  -0.082
N  N235  1  0.62000529  0.28041300  0.63935487  1  -1.219879  -0.09303  -0.339111  -0.211337  -0.06509  3.608928  -0.082
N  N236  1  0.12000142  0.63935639  0.28041372  1  -1.219913  0.093032  -0.339151  -0.211427  0.065091  3.608891  0.082
N  N237  1  0.37999405  0.71958650  0.36064323  1  -1.219917  0.093031  -0.339157  -0.211464  0.065091  3.608968  0.082
O  O238  1  0.59938768  0.34292723  0.80718672  1  -1.354998  0.001267  -0.35561  -0.660107  0.000875  2.392228  0.0
O  O239  1  0.90060788  0.19281238  0.65707377  1  -1.355051  0.001267  -0.355583  -0.660051  0.000875  2.392205  0.0
O  O240  1  0.40060598  0.65707169  0.19281322  1  -1.355162  -0.001267  -0.355625  -0.660075  -0.000875  2.392102  0.0
O  O241  1  0.09939071  0.80718877  0.34292615  1  -1.355029  -0.001267  -0.355597  -0.66006  -0.000875  2.392329  0.0
O  O242  1  0.34214544  0.36918100  0.81950444  1  -1.334591  0.000109  -0.352814  -0.60204  7.3e-05  2.155528  0.0
O  O243  1  0.15784937  0.18049593  0.63081517  1  -1.33455  0.000109  -0.352789  -0.602023  7.3e-05  2.155553  0.0
O  O244  1  0.65784788  0.63081626  0.18049472  1  -1.33443  -0.000109  -0.352846  -0.602037  -7.3e-05  2.155371  0.0
O  O245  1  0.84215154  0.81950579  0.36918167  1  -1.334486  -0.000109  -0.35284  -0.602024  -7.3e-05  2.155582  0.0
O  O246  1  0.46656490  0.29426369  0.90420654  1  -1.325726  -0.000446  -0.348577  -0.602808  -0.000293  2.162283  0.0
O  O247  1  0.03343795  0.09579432  0.70573570  1  -1.325666  -0.000446  -0.348567  -0.602824  -0.000293  2.162339  0.0
O  O248  1  0.53343234  0.70573635  0.09579481  1  -1.325728  0.000446  -0.348594  -0.602812  0.000293  2.162353  0.0
O  O249  1  0.96656520  0.90420740  0.29426397  1  -1.325715  0.000446  -0.34861  -0.602832  0.000293  2.16234  0.0
