# generated using pymatgen
data_CoH9C8O3
_symmetry_space_group_name_H-M   'P 1'
_cell_length_a   6.87596907
_cell_length_b   15.20145639
_cell_length_c   15.19774920
_cell_angle_alpha   117.74499844
_cell_angle_beta   98.70134724
_cell_angle_gamma   98.64421502
_symmetry_Int_Tables_number   1
_chemical_formula_structural   CoH9C8O3
_chemical_formula_sum   'Co6 H54 C48 O18'
_cell_volume   1344.76158291
_cell_formula_units_Z   6
loop_
 _symmetry_equiv_pos_site_id
 _symmetry_equiv_pos_as_xyz
  1  'x, y, z'
loop_
 _atom_site_type_symbol
 _atom_site_label
 _atom_site_symmetry_multiplicity
 _atom_site_fract_x
 _atom_site_fract_y
 _atom_site_fract_z
 _atom_site_occupancy
 _atom_site_pbe_bader_charge
 _atom_site_pbe_bader_spin_density
 _atom_site_pbe_cm5_charge
 _atom_site_pbe_ddec_charge
 _atom_site_pbe_ddec_spin_density
 _atom_site_pbe_ddec_sum_bond_order
 _atom_site_pbe_magmom
Co  Co0  1  0.48203286  0.27109458  0.59521661  1  1.256454  2.568223  0.637902  0.92643  2.776421  2.445027  2.54
Co  Co1  1  0.88685089  0.40460645  0.67588909  1  1.254474  2.567567  0.637163  0.925072  2.778003  2.445726  2.539
Co  Co2  1  0.21088481  0.32399503  0.72873250  1  1.257944  2.567951  0.637329  0.92549  2.777408  2.445333  2.54
Co  Co3  1  0.51794865  0.72890626  0.40477859  1  1.256201  2.568266  0.638004  0.926567  2.776457  2.445257  2.54
Co  Co4  1  0.11312307  0.59538518  0.32411709  1  1.254448  2.567582  0.637309  0.925293  2.778005  2.44581  2.539
Co  Co5  1  0.78907469  0.67599123  0.27125900  1  1.258081  2.567965  0.637409  0.925478  2.777386  2.445802  2.54
H  H6  1  0.37205690  0.02335549  0.54498899  1  0.137011  0.000984  0.111457  0.133769  0.000338  1.015722  0.0
H  H7  1  0.82700309  0.45490040  0.47843486  1  0.133326  0.000975  0.111068  0.133287  0.000329  1.016351  0.0
H  H8  1  0.34865504  0.52171524  0.97665620  1  0.111518  0.001007  0.111642  0.133557  0.00033  1.015051  0.0
H  H9  1  0.62788251  0.97662001  0.45499284  1  0.136756  0.000985  0.111443  0.133712  0.000337  1.015542  0.0
H  H10  1  0.17298449  0.54512734  0.52158380  1  0.133258  0.000975  0.111144  0.133318  0.000329  1.016302  0.0
H  H11  1  0.65130568  0.47829406  0.02336191  1  0.109506  0.001009  0.11162  0.133553  0.00033  1.014966  0.0
H  H12  1  0.10485170  0.12641994  0.41552281  1  0.043365  -9e-05  0.08636  0.068369  -0.000181  1.080831  0.0
H  H13  1  0.68880350  0.58410660  0.71083492  1  0.079231  -0.000109  0.086291  0.068628  -0.000181  1.081493  0.0
H  H14  1  0.97900607  0.28922206  0.87351498  1  0.047145  -8.6e-05  0.086537  0.068834  -0.000176  1.080975  0.0
H  H15  1  0.89515725  0.87359166  0.58449704  1  0.043692  -9.1e-05  0.08633  0.068337  -0.000181  1.080996  0.0
H  H16  1  0.31125265  0.41587580  0.28915877  1  0.079229  -0.000109  0.086324  0.068669  -0.000181  1.081512  0.0
H  H17  1  0.02100230  0.71079722  0.12647419  1  0.047504  -8.6e-05  0.086465  0.068713  -0.000175  1.081044  0.0
H  H18  1  0.42427661  0.11654002  0.38126567  1  0.06113  -8.4e-05  0.094581  0.091756  -0.000279  1.034009  0.0
H  H19  1  0.04250155  0.61851557  0.73528944  1  0.076846  -8.5e-05  0.094399  0.091493  -0.000274  1.034285  0.0
H  H20  1  0.30837412  0.26479608  0.88324287  1  0.068073  -9.1e-05  0.09459  0.091718  -0.000275  1.034667  0.0
H  H21  1  0.57572178  0.88345928  0.61874049  1  0.061582  -8.5e-05  0.094595  0.09181  -0.000279  1.033944  0.0
H  H22  1  0.95754974  0.38148066  0.26470575  1  0.077717  -8.4e-05  0.094425  0.09155  -0.000274  1.03414  0.0
H  H23  1  0.69162785  0.73521629  0.11674725  1  0.0682  -9e-05  0.09457  0.091679  -0.000274  1.034547  0.0
H  H24  1  0.96237950  0.27132119  0.42411630  1  0.026172  0.000597  0.090464  0.130168  -6.9e-05  1.002846  0.0
H  H25  1  0.53781752  0.57557958  0.84710357  1  0.020301  0.000597  0.090349  0.130376  -7e-05  1.002877  0.0
H  H26  1  0.69155689  0.15288132  0.72884936  1  0.042582  0.0006  0.090586  0.130353  -6.6e-05  1.00326  0.0
H  H27  1  0.03763719  0.72869118  0.57590377  1  0.02624  0.000598  0.090433  0.130103  -6.9e-05  1.002842  0.0
H  H28  1  0.46223230  0.42439899  0.15288856  1  0.020374  0.000597  0.090385  0.13038  -7.1e-05  1.002922  0.0
H  H29  1  0.30844790  0.84714257  0.27114567  1  0.043217  0.0006  0.090506  0.130175  -6.6e-05  1.003449  0.0
H  H30  1  0.88978929  0.17270111  0.29459490  1  0.036124  0.001104  0.091162  0.123038  0.000431  0.990682  0.001
H  H31  1  0.59462356  0.70505139  0.87784804  1  0.025937  0.001111  0.091412  0.123231  0.000431  0.991227  0.001
H  H32  1  0.71825014  0.12228227  0.82773677  1  0.029793  0.001112  0.091487  0.123728  0.000431  0.990739  0.001
H  H33  1  0.11023782  0.82731740  0.70542349  1  0.036944  0.001103  0.091135  0.123021  0.000431  0.990733  0.001
H  H34  1  0.40543663  0.29493025  0.12214491  1  0.025307  0.001111  0.091464  0.123352  0.000431  0.991038  0.001
H  H35  1  0.28174774  0.87774546  0.17225759  1  0.030578  0.001111  0.091458  0.123662  0.000431  0.990702  0.001
H  H36  1  0.09391702  0.28074870  0.33524884  1  0.040948  0.000131  0.086778  0.117344  7e-06  1.041345  0.0
H  H37  1  0.75818203  0.66446049  0.94543447  1  0.045559  0.00013  0.086868  0.117745  8e-06  1.040287  0.0
H  H38  1  0.81393870  0.05467096  0.71956708  1  0.053125  0.000129  0.086977  0.117897  7e-06  1.040399  0.0
H  H39  1  0.90610978  0.71927211  0.66477849  1  0.041996  0.000131  0.08679  0.117325  7e-06  1.041159  0.0
H  H40  1  0.24187841  0.33551577  0.05456060  1  0.045862  0.00013  0.086988  0.117956  8e-06  1.040347  0.0
H  H41  1  0.18604357  0.94534909  0.28042790  1  0.052701  0.000129  0.086937  0.117804  7e-06  1.040433  0.0
H  H42  1  0.36861224  0.25978481  0.28998465  1  0.022355  0.000148  0.087472  0.120804  4.6e-05  1.028071  0.0
H  H43  1  0.07819946  0.71004388  0.96980878  1  0.017961  0.000152  0.08741  0.120888  4.8e-05  1.027654  0.0
H  H44  1  0.10960773  0.03037563  0.74026060  1  0.028304  0.000148  0.087048  0.120398  4.6e-05  1.027637  0.0
H  H45  1  0.63139594  0.74020759  0.71001435  1  0.022185  0.000148  0.087442  0.120765  4.6e-05  1.028102  0.0
H  H46  1  0.92185950  0.28993238  0.03018027  1  0.017632  0.000152  0.087391  0.120885  4.8e-05  1.027462  0.0
H  H47  1  0.89040013  0.96963674  0.25972927  1  0.028186  0.000148  0.087057  0.120418  4.6e-05  1.027586  0.0
H  H48  1  0.48134882  0.15421607  0.24003386  1  0.018917  0.000465  0.088826  0.115748  0.000153  0.991459  0.0
H  H49  1  0.24069496  0.75990489  0.91406986  1  0.038315  0.000459  0.089004  0.115883  0.000151  0.991594  0.0
H  H50  1  0.32790369  0.08597922  0.84586755  1  0.043675  0.000462  0.089031  0.115912  0.000153  0.991296  0.0
H  H51  1  0.51866345  0.84577862  0.75997834  1  0.018458  0.000465  0.088871  0.115816  0.000153  0.991379  0.0
H  H52  1  0.75934808  0.24008366  0.08592514  1  0.038  0.000458  0.089086  0.115852  0.000151  0.991581  0.0
H  H53  1  0.67209579  0.91403699  0.15412748  1  0.043425  0.000461  0.088955  0.115902  0.000153  0.99136  0.0
H  H54  1  0.60371152  0.26345048  0.36077833  1  0.064926  0.000666  0.090758  0.127648  0.000151  1.020899  0.0
H  H55  1  0.24273577  0.63931441  0.90292088  1  0.04797  0.000668  0.090805  0.127729  0.000153  1.020826  0.0
H  H56  1  0.34096715  0.09732739  0.73649699  1  0.03442  0.000678  0.090807  0.127996  0.000153  1.020627  0.0
H  H57  1  0.39629282  0.73655190  0.63922770  1  0.065016  0.000666  0.09078  0.127701  0.000151  1.020923  0.0
H  H58  1  0.75732601  0.36067337  0.09706517  1  0.048407  0.000667  0.090814  0.127696  0.000152  1.020864  0.0
H  H59  1  0.65904186  0.90268728  0.26349731  1  0.034702  0.000677  0.090752  0.127992  0.000153  1.020823  0.0
C  C60  1  0.17905701  0.82691287  0.43370549  1  1.519723  -0.003663  0.227477  0.621049  -0.005908  4.096319  -0.003
C  C61  1  0.74536739  0.56638922  0.39327315  1  1.502149  -0.003265  0.228184  0.62173  -0.005642  4.096888  -0.003
C  C62  1  0.35204189  0.60695588  0.17319130  1  1.509036  -0.003252  0.228077  0.622817  -0.005559  4.093666  -0.003
C  C63  1  0.82089571  0.17306570  0.56627868  1  1.519988  -0.003664  0.22743  0.62081  -0.005908  4.096411  -0.003
C  C64  1  0.25461430  0.43362085  0.60673294  1  1.501999  -0.003259  0.228197  0.621981  -0.005638  4.096945  -0.003
C  C65  1  0.64792958  0.39303959  0.82681978  1  1.509816  -0.003246  0.227876  0.62271  -0.005552  4.093774  -0.003
C  C66  1  0.13285620  0.10066487  0.56359904  1  0.562999  0.011925  0.081982  0.309111  0.007465  4.077944  0.006
C  C67  1  0.56918899  0.43632040  0.53706573  1  0.594171  0.011554  0.08207  0.308781  0.007347  4.078941  0.006
C  C68  1  0.03217359  0.46286865  0.89929201  1  0.582635  0.011929  0.081779  0.308378  0.007492  4.078559  0.006
C  C69  1  0.86710419  0.89931140  0.43637866  1  0.563154  0.011919  0.081938  0.309051  0.007463  4.077618  0.006
C  C70  1  0.43079949  0.56369735  0.46294637  1  0.59145  0.01156  0.082142  0.308824  0.007347  4.078963  0.006
C  C71  1  0.96780414  0.53712758  0.10071986  1  0.584487  0.011923  0.081602  0.307945  0.007495  4.078441  0.006
C  C72  1  0.08243409  0.91364737  0.46317631  1  -0.014281  0.019754  -0.024538  -0.13974  0.010092  3.957513  0.014
C  C73  1  0.61927880  0.53684582  0.45049366  1  -0.020404  0.01952  -0.024914  -0.13973  0.009982  3.956849  0.014
C  C74  1  0.16876883  0.54960895  0.08640152  1  -0.0379  0.019782  -0.024576  -0.1402  0.010106  3.956069  0.014
C  C75  1  0.91753379  0.08633504  0.53680608  1  -0.013855  0.019745  -0.024629  -0.139648  0.010087  3.957618  0.014
C  C76  1  0.38071294  0.46316962  0.54952022  1  -0.019665  0.019517  -0.024867  -0.13973  0.009982  3.956791  0.014
C  C77  1  0.83120890  0.45038728  0.91360706  1  -0.011032  0.019727  -0.024645  -0.14055  0.010107  3.95652  0.014
C  C78  1  0.20833611  0.01307232  0.52485166  1  -0.061759  0.021527  -0.092547  -0.195357  0.011271  3.936586  0.014
C  C79  1  0.68344588  0.47507777  0.48823248  1  -0.041335  0.021533  -0.092061  -0.194722  0.011287  3.935383  0.014
C  C80  1  0.19524410  0.51180599  0.98693485  1  -0.001669  0.021758  -0.092285  -0.19404  0.011438  3.933923  0.014
C  C81  1  0.79162185  0.98691086  0.47513172  1  -0.062367  0.021535  -0.092561  -0.195368  0.011274  3.936244  0.014
C  C82  1  0.31654816  0.52494228  0.51178304  1  -0.038887  0.021532  -0.092073  -0.194751  0.011289  3.935333  0.014
C  C83  1  0.80472635  0.48819332  0.01307467  1  -0.028992  0.021822  -0.092279  -0.193895  0.011438  3.933855  0.014
C  C84  1  0.16340614  0.17127663  0.38184548  1  -0.106407  0.017085  -0.108137  -0.073394  0.009028  4.021332  0.011
C  C85  1  0.78106801  0.61785724  0.78937182  1  -0.145401  0.017068  -0.107558  -0.073884  0.009009  4.022912  0.011
C  C86  1  0.99282260  0.21070778  0.82872621  1  -0.100197  0.017133  -0.108027  -0.073531  0.009058  4.021788  0.011
C  C87  1  0.83662456  0.82873727  0.61817035  1  -0.10726  0.017087  -0.108063  -0.073344  0.009028  4.021246  0.011
C  C88  1  0.21898476  0.38212133  0.21061919  1  -0.146214  0.017069  -0.107576  -0.073937  0.00901  4.022777  0.011
C  C89  1  0.00717349  0.78930459  0.17126022  1  -0.100832  0.01712  -0.108085  -0.073456  0.00905  4.021855  0.011
C  C90  1  0.34623486  0.16486413  0.36140115  1  -0.076991  0.011123  -0.104707  -0.070445  0.005862  4.015096  0.007
C  C91  1  0.98438602  0.63840881  0.80345984  1  -0.090483  0.01105  -0.104387  -0.069271  0.005836  4.014648  0.006
C  C92  1  0.18209356  0.19664625  0.83504978  1  -0.072377  0.011144  -0.104434  -0.06993  0.005876  4.015007  0.007
C  C93  1  0.65376475  0.83514055  0.63861089  1  -0.07745  0.011119  -0.104707  -0.07056  0.005859  4.014852  0.007
C  C94  1  0.01567653  0.36158051  0.19653487  1  -0.091168  0.011029  -0.104509  -0.069513  0.005825  4.014776  0.006
C  C95  1  0.81791468  0.80336689  0.16493982  1  -0.071562  0.011134  -0.104279  -0.069777  0.00587  4.014852  0.007
C  C96  1  0.02271244  0.22772712  0.35798426  1  -0.043719  2.3e-05  -0.244111  -0.352739  -0.000396  3.987032  0.0
C  C97  1  0.66425336  0.64171037  0.86962776  1  -0.037217  2.5e-05  -0.244737  -0.35374  -0.00039  3.987902  0.0
C  C98  1  0.79574303  0.13043858  0.77249828  1  -0.072507  3.2e-05  -0.245038  -0.354477  -0.000386  3.987711  0.0
C  C99  1  0.97730547  0.77229063  0.64203709  1  -0.045336  2.4e-05  -0.244086  -0.35261  -0.000396  3.987083  0.0
C  C100  1  0.33580452  0.35826666  0.13036223  1  -0.036495  2.5e-05  -0.24494  -0.354069  -0.00039  3.987778  0.0
C  C101  1  0.20424692  0.86957916  0.22749155  1  -0.073722  3.2e-05  -0.244876  -0.354166  -0.000386  3.987595  0.0
C  C102  1  0.45359538  0.21371325  0.31062164  1  -0.051519  0.000136  -0.242888  -0.348267  -0.000184  3.991936  0.0
C  C103  1  0.14254903  0.68935006  0.90312075  1  -0.044288  0.00014  -0.243388  -0.34913  -0.000179  3.991931  0.0
C  C104  1  0.24062217  0.09703805  0.78629370  1  -0.067169  0.000139  -0.24285  -0.348623  -0.000182  3.991419  0.0
C  C105  1  0.54641478  0.78628606  0.68938467  1  -0.050896  0.000136  -0.242965  -0.348359  -0.000185  3.9921  0.0
C  C106  1  0.85750796  0.31063696  0.09687317  1  -0.043917  0.000139  -0.243403  -0.348933  -0.000179  3.991722  0.0
C  C107  1  0.75938018  0.90297508  0.21369746  1  -0.067632  0.000139  -0.242788  -0.348708  -0.000182  3.991665  0.0
O  O108  1  0.06017646  0.73548080  0.38378180  1  -1.159964  0.116636  -0.315681  -0.585645  0.060064  2.665653  0.108
O  O109  1  0.67643082  0.61641829  0.35178327  1  -1.161246  0.116733  -0.316199  -0.586524  0.060098  2.666184  0.108
O  O110  1  0.32457539  0.64862448  0.26466020  1  -1.158553  0.116405  -0.315981  -0.586849  0.059812  2.663683  0.108
O  O111  1  0.93978105  0.26449854  0.61620635  1  -1.15975  0.116621  -0.315549  -0.58546  0.060057  2.665668  0.108
O  O112  1  0.32354756  0.38359101  0.64822223  1  -1.160762  0.116707  -0.316222  -0.586653  0.060084  2.666111  0.108
O  O113  1  0.67539364  0.35136024  0.73534966  1  -1.158931  0.11639  -0.315918  -0.586747  0.0598  2.6637  0.108
O  O114  1  0.26646710  0.19258120  0.62469219  1  -1.139638  0.166554  -0.34619  -0.583767  0.08982  2.619445  0.145
O  O115  1  0.64172460  0.37519451  0.56794200  1  -1.145801  0.166094  -0.346727  -0.584287  0.089641  2.620035  0.145
O  O116  1  0.07380167  0.43194770  0.80732400  1  -1.141178  0.167077  -0.346372  -0.583429  0.089941  2.619139  0.146
O  O117  1  0.73348300  0.80739507  0.37528284  1  -1.139887  0.166568  -0.346171  -0.583664  0.089823  2.619409  0.145
O  O118  1  0.35825537  0.62482093  0.43206581  1  -1.145847  0.1661  -0.34685  -0.58438  0.089644  2.620148  0.145
O  O119  1  0.92616583  0.56805161  0.19269518  1  -1.141876  0.167119  -0.346347  -0.5833  0.08996  2.619026  0.146
O  O120  1  0.37103727  0.84315006  0.46014574  1  -1.134595  0.066901  -0.29581  -0.534773  0.034874  2.366397  0.057
O  O121  1  0.91093012  0.53997477  0.38307213  1  -1.15288  0.066791  -0.295967  -0.535073  0.034852  2.36634  0.057
O  O122  1  0.52776984  0.61705832  0.15697672  1  -1.15417  0.06706  -0.296027  -0.535493  0.034961  2.365126  0.057
O  O123  1  0.62891961  0.15683389  0.53984320  1  -1.135376  0.066924  -0.295793  -0.534712  0.034867  2.366288  0.057
O  O124  1  0.08903481  0.46002531  0.61692486  1  -1.153196  0.066792  -0.295976  -0.535196  0.034849  2.366301  0.057
O  O125  1  0.47219453  0.38294944  0.84303237  1  -1.154361  0.067063  -0.295905  -0.535414  0.034959  2.364845  0.057
