# generated using pymatgen
data_HgH20C27N2(ClO2)2
_symmetry_space_group_name_H-M   'P 1'
_cell_length_a   10.44548467
_cell_length_b   11.12733414
_cell_length_c   14.00390000
_cell_angle_alpha   109.57353836
_cell_angle_beta   91.03033888
_cell_angle_gamma   103.74607903
_symmetry_Int_Tables_number   1
_chemical_formula_structural   HgH20C27N2(ClO2)2
_chemical_formula_sum   'Hg2 H40 C54 N4 Cl4 O8'
_cell_volume   1481.20092464
_cell_formula_units_Z   2
loop_
 _symmetry_equiv_pos_site_id
 _symmetry_equiv_pos_as_xyz
  1  'x, y, z'
loop_
 _atom_site_type_symbol
 _atom_site_label
 _atom_site_symmetry_multiplicity
 _atom_site_fract_x
 _atom_site_fract_y
 _atom_site_fract_z
 _atom_site_occupancy
 _atom_site_hle17_bader_spin_density
 _atom_site_hle17_ddec_charge
 _atom_site_hle17_ddec_spin_density
 _atom_site_hle17_ddec_sum_bond_order
 _atom_site_hle17_magmom
 _atom_site_hse06_10hf_bader_spin_density
 _atom_site_hse06_10hf_ddec_charge
 _atom_site_hse06_10hf_ddec_spin_density
 _atom_site_hse06_10hf_ddec_sum_bond_order
 _atom_site_hse06_10hf_magmom
 _atom_site_hse06_bader_spin_density
 _atom_site_hse06_ddec_charge
 _atom_site_hse06_ddec_spin_density
 _atom_site_hse06_ddec_sum_bond_order
 _atom_site_hse06_magmom
 _atom_site_pbe_bader_charge
 _atom_site_pbe_bader_spin_density
 _atom_site_pbe_cm5_charge
 _atom_site_pbe_ddec_charge
 _atom_site_pbe_ddec_spin_density
 _atom_site_pbe_ddec_sum_bond_order
 _atom_site_pbe_magmom
Hg  Hg0  1  0.15833100  0.19528612  0.78844569  1  0  0.752986  0  2.064842  0  0  0.590875  0  2.561329  0  0  0.639957  0  2.525031  0  0.827586  0  0.51913  0.557183  0  2.585739  0
Hg  Hg1  1  0.84166795  0.80471472  0.21155445  1  0  0.752979  0  2.064857  0  0  0.590863  0  2.561345  0  0  0.639945  0  2.525048  0  0.827671  0  0.519115  0.557171  0  2.585756  0
H  H2  1  0.91830093  0.95022203  0.64854357  1  0  0.074343  0  0.977894  0  0  0.075814  0  1.05526  0  0  0.078216  0  1.053891  0  0.121726  0  0.101129  0.074183  0  1.056102  0
H  H3  1  0.08169680  0.04977783  0.35145629  1  0  0.074286  0  0.977984  0  0  0.075788  0  1.055319  0  0  0.07819  0  1.05395  0  0.121839  0  0.101122  0.074157  0  1.056161  0
H  H4  1  0.73960603  0.87815857  0.50252316  1  0  0.112037  0  0.989439  0  0  0.118192  0  1.055908  0  0  0.120405  0  1.057354  0  0.161904  0  0.106817  0.116645  0  1.054942  0
H  H5  1  0.26039458  0.12184129  0.49747459  1  0  0.11198  0  0.989503  0  0  0.118137  0  1.055968  0  0  0.120349  0  1.057415  0  0.161923  0  0.106788  0.11659  0  1.055002  0
H  H6  1  0.85496088  0.27482025  0.49697316  1  0  0.121252  0  0.929671  0  0  0.131502  0  0.985143  0  0  0.135241  0  0.983192  0  0.10987  0  0.117224  0.128677  0  0.987042  0
H  H7  1  0.14503807  0.72518059  0.50302841  1  0  0.121256  0  0.929678  0  0  0.131508  0  0.98515  0  0  0.135247  0  0.983198  0  0.109877  0  0.117246  0.128683  0  0.98705  0
H  H8  1  0.02416728  0.33209443  0.64473355  1  0  0.090032  0  0.967736  0  0  0.094995  0  1.037195  0  0  0.097827  0  1.034522  0  0.146489  0  0.113059  0.09297  0  1.03914  0
H  H9  1  0.97582975  0.66790642  0.35526799  1  0  0.090084  0  0.967621  0  0  0.094973  0  1.037161  0  0  0.09784  0  1.034451  0  0.145821  0  0.113063  0.092949  0  1.039107  0
H  H10  1  0.47729345  0.02009755  0.29000421  1  0  0.08002  0  0.909126  0  0  0.093277  0  0.968695  0  0  0.094202  0  0.967582  0  0.107797  0  0.110568  0.092526  0  0.969594  0
H  H11  1  0.52270619  0.97990230  0.70999424  1  0  0.080014  0  0.909127  0  0  0.093271  0  0.968703  0  0  0.094195  0  0.96759  0  0.107826  0  0.11057  0.092519  0  0.969604  0
H  H12  1  0.61611117  0.05573185  0.22148994  1  0  0.071652  0  0.940909  0  0  0.080605  0  1.015703  0  0  0.081059  0  1.014512  0  0.100097  0  0.101448  0.080322  0  1.016547  0
H  H13  1  0.38388777  0.94426899  0.77850877  1  0  0.071641  0  0.940909  0  0  0.080595  0  1.015713  0  0  0.08105  0  1.01452  0  0.100106  0  0.10144  0.080313  0  1.016556  0
H  H14  1  0.58657592  0.31681934  0.51355606  1  0  0.098303  0  0.944495  0  0  0.109189  0  1.00282  0  0  0.112364  0  1.001295  0  0.082166  0  0.101659  0.106755  0  1.004249  0
H  H15  1  0.41342424  0.68318249  0.48644507  1  0  0.098317  0  0.944497  0  0  0.109199  0  1.002826  0  0  0.112372  0  1.001302  0  0.082165  0  0.101662  0.106764  0  1.004256  0
H  H16  1  0.42435872  0.38976553  0.63308510  1  0  0.093205  0  0.959283  0  0  0.103557  0  1.018982  0  0  0.106744  0  1.017002  0  0.075719  0  0.095167  0.101303  0  1.020363  0
H  H17  1  0.57564023  0.61023531  0.36691504  1  0  0.093205  0  0.959256  0  0  0.10356  0  1.018949  0  0  0.106746  0  1.016973  0  0.075724  0  0.095179  0.101305  0  1.020328  0
H  H18  1  0.20593867  0.39771510  0.56811813  1  0  0.08591  0  0.978206  0  0  0.09381  0  1.046112  0  0  0.096322  0  1.045246  0  0.071687  0  0.095899  0.092054  0  1.04674  0
H  H19  1  0.79405977  0.60228377  0.43188219  1  0  0.085955  0  0.978164  0  0  0.093858  0  1.046061  0  0  0.096371  0  1.045194  0  0.071706  0  0.095913  0.092102  0  1.046691  0
H  H20  1  0.13890145  0.32068403  0.38108016  1  0  0.09885  0  0.943051  0  0  0.110646  0  0.999451  0  0  0.113917  0  0.997773  0  0.077283  0  0.100726  0.108295  0  1.000814  0
H  H21  1  0.86109673  0.67931386  0.61891989  1  0  0.098844  0  0.943082  0  0  0.110652  0  0.999471  0  0  0.113922  0  0.997794  0  0.077289  0  0.100732  0.108302  0  1.000833  0
H  H22  1  0.11249695  0.21278483  0.18249259  1  0  0.093427  0  0.971141  0  0  0.101145  0  1.037813  0  0  0.103645  0  1.037381  0  0.077585  0  0.090816  0.099335  0  1.038205  0
H  H23  1  0.88750392  0.78721601  0.81750757  1  0  0.093398  0  0.971155  0  0  0.101119  0  1.037821  0  0  0.103618  0  1.037391  0  0.077591  0  0.090808  0.099309  0  1.038215  0
H  H24  1  0.14102327  0.11985365  0.99769375  1  0  0.080136  0  0.992545  0  0  0.087052  0  1.061604  0  0  0.089161  0  1.061933  0  0.096586  0  0.086401  0.085389  0  1.061691  0
H  H25  1  0.85897785  0.88014818  0.00230597  1  0  0.080142  0  0.992545  0  0  0.087061  0  1.061595  0  0  0.089167  0  1.061932  0  0.09642  0  0.086393  0.085397  0  1.061683  0
H  H26  1  0.35409601  0.08103004  0.94281568  1  0  0.07733  0  0.975286  0  0  0.08638  0  1.041877  0  0  0.089387  0  1.040142  0  0.077903  0  0.089997  0.084129  0  1.043343  0
H  H27  1  0.64590460  0.91896981  0.05718422  1  0  0.077355  0  0.975268  0  0  0.086398  0  1.041867  0  0  0.089404  0  1.040133  0  0.077904  0  0.089999  0.084146  0  1.043333  0
H  H28  1  0.54357398  0.12201013  0.07106615  1  0  0.091054  0  0.971394  0  0  0.100255  0  1.038307  0  0  0.10318  0  1.03657  0  0.058197  0  0.097081  0.098218  0  1.039418  0
H  H29  1  0.45642714  0.87799170  0.92893428  1  0  0.091025  0  0.971438  0  0  0.100245  0  1.038307  0  0  0.103166  0  1.036584  0  0.058281  0  0.097073  0.098209  0  1.039415  0
H  H30  1  0.72140482  0.35542670  0.36892256  1  0  0.076407  0  0.936553  0  0  0.084828  0  1.006717  0  0  0.086299  0  1.004196  0  0.103184  0  0.10831  0.083641  0  1.008716  0
H  H31  1  0.27859483  0.64457315  0.63107661  1  0  0.076404  0  0.936544  0  0  0.084822  0  1.006722  0  0  0.086293  0  1.004201  0  0.103181  0  0.108306  0.083634  0  1.008722  0
H  H32  1  0.62864615  0.42191925  0.30027388  1  0  0.078277  0  0.94833  0  0  0.089853  0  1.016426  0  0  0.089475  0  1.016995  0  0.088773  0  0.104531  0.090085  0  1.016067  0
H  H33  1  0.37135472  0.57808159  0.69972700  1  0  0.078249  0  0.948332  0  0  0.089878  0  1.016374  0  0  0.089498  0  1.016946  0  0.088726  0  0.10455  0.09011  0  1.016014  0
H  H34  1  0.76370361  0.14009536  0.04452679  1  0  0.109814  0  0.973114  0  0  0.114348  0  1.044348  0  0  0.117545  0  1.043119  0  0.122954  0  0.107516  0.112143  0  1.045181  0
H  H35  1  0.23629534  0.85990548  0.95547334  1  0  0.109817  0  0.973119  0  0  0.114336  0  1.044369  0  0  0.11753  0  1.043144  0  0.122953  0  0.107513  0.11213  0  1.045203  0
H  H36  1  0.87045384  0.09354535  0.88276256  1  0  0.080798  0  0.937761  0  0  0.08719  0  1.00264  0  0  0.089378  0  1.001863  0  0.111734  0  0.112763  0.085615  0  1.003289  0
H  H37  1  0.12954510  0.90645550  0.11723830  1  0  0.08077  0  0.937777  0  0  0.087161  0  1.002661  0  0  0.08935  0  1.00188  0  0.111793  0  0.112752  0.085587  0  1.003308  0
H  H38  1  0.16358777  0.44459095  0.99856543  1  0  0.083074  0  0.937806  0  0  0.089585  0  1.00079  0  0  0.092333  0  0.998996  0  0.116256  0  0.110337  0.087529  0  1.002214  0
H  H39  1  0.83641188  0.55540890  0.00143588  1  0  0.083042  0  0.937764  0  0  0.089552  0  1.000755  0  0  0.092301  0  0.99896  0  0.116261  0  0.110311  0.087495  0  1.002179  0
H  H40  1  0.07122803  0.50386856  0.16907862  1  0  0.118257  0  0.926032  0  0  0.129873  0  0.97899  0  0  0.133318  0  0.977883  0  0.099347  0  0.11672  0.127407  0  0.979817  0
H  H41  1  0.92877187  0.49613228  0.83092225  1  0  0.118263  0  0.926015  0  0  0.129878  0  0.978973  0  0  0.133324  0  0.977866  0  0.099336  0  0.116724  0.127412  0  0.9798  0
C  C42  1  0.89950120  0.01888107  0.61303551  1  0  0.115513  0  3.711857  0  0  0.087627  0  3.963139  0  0  0.092889  0  3.982782  0  0.428509  0  0.041516  0.0842  0  3.949574  0
C  C43  1  0.10049915  0.98111779  0.38696269  1  0  0.115516  0  3.711864  0  0  0.087608  0  3.963144  0  0  0.09287  0  3.982784  0  0.427741  0  0.041526  0.084182  0  3.949577  0
C  C44  1  0.80121973  0.97921211  0.53240943  1  0  -0.109981  0  3.691164  0  0  -0.130744  0  3.932256  0  0  -0.135792  0  3.954773  0  0.017581  0  -0.074594  -0.127382  0  3.91702  0
C  C45  1  0.19878253  0.02078676  0.46758809  1  0  -0.109903  0  3.691078  0  0  -0.130656  0  3.932186  0  0  -0.135707  0  3.95471  0  0.018403  0  -0.07459  -0.127294  0  3.91695  0
C  C46  1  0.78358688  0.07128835  0.48914173  1  0  -0.014541  0  3.755388  0  0  0.001573  0  3.991229  0  0  -0.001814  0  4.011892  0  -0.087123  0  0.003413  0.003953  0  3.977256  0
C  C47  1  0.21641634  0.92871052  0.51085508  1  0  -0.014528  0  3.755232  0  0  0.001581  0  3.991149  0  0  -0.001805  0  4.011808  0  -0.086901  0  0.003416  0.003966  0  3.977183  0
C  C48  1  0.86454745  0.20042357  0.52909004  1  0  -0.106762  0  3.684792  0  0  -0.131876  0  3.933141  0  0  -0.135964  0  3.952997  0  -0.018304  0  -0.07141  -0.129243  0  3.92005  0
C  C49  1  0.13545245  0.79957728  0.47091011  1  0  -0.106768  0  3.684793  0  0  -0.131874  0  3.933141  0  0  -0.135962  0  3.953005  0  -0.018194  0  -0.071396  -0.12924  0  3.92005  0
C  C50  1  0.95997868  0.23221885  0.61058109  1  0  0.114964  0  3.698558  0  0  0.088654  0  3.948663  0  0  0.093774  0  3.967957  0  0.507206  0  0.046498  0.085315  0  3.935413  0
C  C51  1  0.04002321  0.76778594  0.38942085  1  0  0.114952  0  3.698752  0  0  0.088699  0  3.94886  0  0  0.093793  0  3.968141  0  0.507821  0  0.046508  0.08536  0  3.93561  0
C  C52  1  0.68007525  0.02584027  0.40059171  1  0  0.57927  0  3.825676  0  0  0.529066  0  4.120825  0  0  0.562073  0  4.111542  0  1.51928  0  0.232282  0.506621  0  4.126694  0
C  C53  1  0.31992625  0.97415563  0.59940501  1  0  0.579344  0  3.825612  0  0  0.529051  0  4.120905  0  0  0.562062  0  4.111619  0  1.518867  0  0.23228  0.50658  0  4.126801  0
C  C54  1  0.56618075  0.09557149  0.28899167  1  0  0.061356  0  3.558913  0  0  -0.01085  0  3.834003  0  0  -0.001697  0  3.837718  0  0.332079  0  -0.059778  -0.016964  0  3.831162  0
C  C55  1  0.43381890  0.90442836  0.71100822  1  0  0.061377  0  3.558881  0  0  -0.010866  0  3.833957  0  0  -0.001712  0  3.83767  0  0.332044  0  -0.059781  -0.016986  0  3.831112  0
C  C56  1  0.53161079  0.22262033  0.29130277  1  0  0.021062  0  3.639895  0  0  0.031691  0  3.874075  0  0  0.030865  0  3.888957  0  0.062326  0  -0.006985  0.03238  0  3.863678  0
C  C57  1  0.46838886  0.77737952  0.70869711  1  0  0.021073  0  3.639897  0  0  0.031821  0  3.873929  0  0  0.030994  0  3.88881  0  0.062312  0  -0.006975  0.032516  0  3.863536  0
C  C58  1  0.45212032  0.27341716  0.37968471  1  0  -0.003126  0  3.687706  0  0  0.010369  0  3.922248  0  0  0.008368  0  3.947312  0  -0.031644  0  -0.008785  0.011697  0  3.905054  0
C  C59  1  0.54787793  0.72658467  0.62031497  1  0  -0.003208  0  3.687454  0  0  0.010256  0  3.921999  0  0  0.008254  0  3.947063  0  -0.031619  0  -0.008828  0.011583  0  3.904805  0
C  C60  1  0.48938906  0.31690426  0.48400444  1  0  -0.095343  0  3.740327  0  0  -0.117918  0  3.992361  0  0  -0.119502  0  4.012892  0  -0.027997  0  -0.089918  -0.116581  0  3.978213  0
C  C61  1  0.51061085  0.68309659  0.51599642  1  0  -0.095421  0  3.740281  0  0  -0.117994  0  3.992324  0  0  -0.11958  0  4.012856  0  -0.027999  0  -0.089956  -0.116657  0  3.978177  0
C  C62  1  0.39871779  0.35996381  0.55119704  1  0  -0.067519  0  3.761223  0  0  -0.08186  0  4.015242  0  0  -0.083807  0  4.036329  0  -0.031628  0  -0.092072  -0.080463  0  4.000575  0
C  C63  1  0.60128256  0.64003506  0.44880330  1  0  -0.06744  0  3.761164  0  0  -0.081776  0  4.015173  0  0  -0.083719  0  4.036259  0  -0.031645  0  -0.092056  -0.080375  0  4.000504  0
C  C64  1  0.27412132  0.36210647  0.51419697  1  0  -0.084059  0  3.788959  0  0  -0.098761  0  4.043721  0  0  -0.101261  0  4.066907  0  -0.040757  0  -0.09591  -0.096761  0  4.027626  0
C  C65  1  0.72587590  0.63789141  0.48580307  1  0  -0.084156  0  3.789029  0  0  -0.098862  0  4.043802  0  0  -0.101364  0  4.066988  0  -0.040762  0  -0.095939  -0.096863  0  4.027706  0
C  C66  1  0.23624322  0.31898668  0.40949269  1  0  -0.111852  0  3.747654  0  0  -0.127369  0  3.991472  0  0  -0.130019  0  4.011987  0  -0.089559  0  -0.092371  -0.125546  0  3.977442  0
C  C67  1  0.76375566  0.68101021  0.59050711  1  0  -0.111834  0  3.74772  0  0  -0.127361  0  3.991535  0  0  -0.130011  0  4.012049  0  -0.089556  0  -0.09236  -0.125539  0  3.977505  0
C  C68  1  0.32555090  0.27306860  0.34214140  1  0  0.012493  0  3.801062  0  0  0.020987  0  4.03378  0  0  0.020383  0  4.058278  0  -0.104943  0  -0.012816  0.021427  0  4.017127  0
C  C69  1  0.67445232  0.72693026  0.65785970  1  0  0.01258  0  3.800815  0  0  0.021091  0  4.033557  0  0  0.020487  0  4.058054  0  -0.104944  0  -0.01277  0.021531  0  4.016902  0
C  C70  1  0.31350605  0.22034437  0.23059963  1  0  0.015883  0  3.800502  0  0  0.02371  0  4.03172  0  0  0.023322  0  4.055666  0  -0.014897  0  -0.012196  0.023983  0  4.015536  0
C  C71  1  0.68649430  0.77965450  0.76940001  1  0  0.015961  0  3.800536  0  0  0.023724  0  4.031841  0  0  0.023337  0  4.055787  0  -0.014918  0  -0.01214  0.024005  0  4.015661  0
C  C72  1  0.20707406  0.19509160  0.15868542  1  0  -0.110331  0  3.753908  0  0  -0.127844  0  4.001679  0  0  -0.130299  0  4.022541  0  -0.014142  0  -0.096102  -0.126088  0  3.987174  0
C  C73  1  0.79292559  0.80490825  0.84131446  1  0  -0.11024  0  3.753905  0  0  -0.127728  0  4.00168  0  0  -0.130182  0  4.022543  0  -0.014164  0  -0.096068  -0.125973  0  3.987175  0
C  C74  1  0.22321376  0.14344561  0.05534232  1  0  -0.07524  0  3.796112  0  0  -0.089174  0  4.045599  0  0  -0.091738  0  4.069667  0  -0.076237  0  -0.100159  -0.087367  0  4.029197  0
C  C75  1  0.77678736  0.85655622  0.94465740  1  0  -0.075335  0  3.796197  0  0  -0.089272  0  4.045687  0  0  -0.091837  0  4.069752  0  -0.076068  0  -0.100208  -0.087463  0  4.029285  0
C  C76  1  0.34391840  0.11904793  0.02411539  1  0  -0.083776  0  3.797361  0  0  -0.093298  0  4.042911  0  0  -0.096479  0  4.065852  0  -0.067852  0  -0.099526  -0.091194  0  4.027504  0
C  C77  1  0.65608246  0.88095291  0.97588478  1  0  -0.083815  0  3.797383  0  0  -0.093336  0  4.042936  0  0  -0.096516  0  4.065876  0  -0.067871  0  -0.099535  -0.09123  0  4.027527  0
C  C78  1  0.45019683  0.14210867  0.09590031  1  0  -0.102696  0  3.754808  0  0  -0.123812  0  3.998917  0  0  -0.125314  0  4.020107  0  -0.025932  0  -0.095647  -0.122658  0  3.984372  0
C  C79  1  0.54980525  0.85789316  0.90410013  1  0  -0.102686  0  3.754865  0  0  -0.123795  0  3.998959  0  0  -0.1253  0  4.020148  0  -0.026  0  -0.095643  -0.122633  0  3.984421  0
C  C80  1  0.43402815  0.19197240  0.19897425  1  0  0.002252  0  3.687796  0  0  0.017717  0  3.916567  0  0  0.01596  0  3.940984  0  -0.077572  0  -0.009693  0.018711  0  3.900076  0
C  C81  1  0.56597297  0.80802943  0.80102618  1  0  0.002232  0  3.687836  0  0  0.017678  0  3.916611  0  0  0.015924  0  3.941024  0  -0.077552  0  -0.009703  0.018644  0  3.900157  0
C  C82  1  0.65596131  0.33244397  0.29962914  1  0  0.058186  0  3.544439  0  0  -0.012286  0  3.812292  0  0  -0.00298  0  3.816048  0  0.367849  0  -0.059839  -0.018581  0  3.809706  0
C  C83  1  0.34403955  0.66755688  0.70037103  1  0  0.058188  0  3.544426  0  0  -0.012351  0  3.812275  0  0  -0.003041  0  3.816027  0  0.3679  0  -0.05984  -0.018642  0  3.809686  0
C  C84  1  0.85370973  0.36170558  0.21947472  1  0  0.592187  0  3.804354  0  0  0.538414  0  4.107309  0  0  0.572178  0  4.097356  0  1.513047  0  0.237092  0.514812  0  4.115382  0
C  C85  1  0.14629062  0.63829328  0.78052634  1  0  0.592073  0  3.804442  0  0  0.53831  0  4.107396  0  0  0.572068  0  4.097454  0  1.513016  0  0.237057  0.514709  0  4.115469  0
C  C86  1  0.90936103  0.32700240  0.11918230  1  0  -0.011885  0  3.748367  0  0  0.001742  0  3.988781  0  0  -0.001386  0  4.009025  0  -0.050066  0  0.00569  0.003834  0  3.975671  0
C  C87  1  0.09063766  0.67299745  0.88081829  1  0  -0.011831  0  3.748264  0  0  0.001798  0  3.988671  0  0  -0.00133  0  4.008919  0  -0.050041  0  0.00571  0.00389  0  3.97556  0
C  C88  1  0.85122591  0.21098678  0.03750454  1  0  -0.105425  0  3.68518  0  0  -0.129587  0  3.931715  0  0  -0.13352  0  3.951817  0  0.004799  0  -0.072242  -0.126892  0  3.918151  0
C  C89  1  0.14877399  0.78901407  0.96249632  1  0  -0.105433  0  3.685153  0  0  -0.129585  0  3.931691  0  0  -0.133519  0  3.951795  0  0.004806  0  -0.072215  -0.12689  0  3.918127  0
C  C90  1  0.91021679  0.18523339  0.94700373  1  0  0.121651  0  3.708236  0  0  0.09734  0  3.956362  0  0  0.102707  0  3.974662  0  0.482864  0  0.047239  0.093798  0  3.94383  0
C  C91  1  0.08978216  0.81476745  0.05299641  1  0  0.121674  0  3.708222  0  0  0.097365  0  3.956345  0  0  0.102734  0  3.974644  0  0.482786  0  0.047234  0.093824  0  3.943812  0
C  C92  1  0.07476707  0.38075452  0.01278325  1  0  0.118795  0  3.716644  0  0  0.091638  0  3.971247  0  0  0.096528  0  3.991069  0  0.51218  0  0.047178  0.088567  0  3.95723  0
C  C93  1  0.92523353  0.61924534  0.98721736  1  0  0.118811  0  3.716628  0  0  0.091654  0  3.971237  0  0  0.096544  0  3.991058  0  0.512176  0  0.047205  0.088582  0  3.957222  0
C  C94  1  0.02365618  0.41322617  0.10651493  1  0  -0.105831  0  3.691514  0  0  -0.128196  0  3.938384  0  0  -0.132907  0  3.959337  0  -0.018301  0  -0.06814  -0.12493  0  3.92375  0
C  C95  1  0.97634372  0.58677467  0.89348594  1  0  -0.105819  0  3.691475  0  0  -0.128186  0  3.938349  0  0  -0.132898  0  3.959303  0  -0.018286  0  -0.068142  -0.12492  0  3.923714  0
N  N96  1  0.97732585  0.14283441  0.65122244  1  0  -0.293463  0  3.245333  0  0  -0.221199  0  3.5093  0  0  -0.239694  0  3.52979  0  -1.209026  0  -0.307593  -0.208325  0  3.494826  0
N  N97  1  0.02267207  0.85716248  0.34877877  1  0  -0.29348  0  3.245629  0  0  -0.221211  0  3.50958  0  0  -0.239708  0  3.530081  0  -1.209144  0  -0.307617  -0.208338  0  3.495106  0
N  N98  1  0.01929785  0.26880007  0.93469022  1  0  -0.307315  0  3.238041  0  0  -0.241058  0  3.504366  0  0  -0.258439  0  3.523787  0  -1.19585  0  -0.311624  -0.228841  0  3.490586  0
N  N99  1  0.98070180  0.73119978  0.06531038  1  0  -0.307313  0  3.238031  0  0  -0.241054  0  3.504355  0  0  -0.258435  0  3.523777  0  -1.195934  0  -0.311627  -0.228837  0  3.490575  0
Cl  Cl100  1  0.11356467  0.96965703  0.78194125  1  0  -0.468923  0  0.966505  0  0  -0.408068  0  1.240257  0  0  -0.42561  0  1.223344  0  -0.520977  0  -0.260754  -0.396118  0  1.252377  0
Cl  Cl101  1  0.88643715  0.03034381  0.21805822  1  0  -0.468904  0  0.966488  0  0  -0.408054  0  1.240242  0  0  -0.425594  0  1.223329  0  -0.520971  0  -0.260741  -0.396103  0  1.252361  0
Cl  Cl102  1  0.29091354  0.41143799  0.81523269  1  0  -0.457889  0  0.935949  0  0  -0.400036  0  1.184467  0  0  -0.417116  0  1.166167  0  -0.489177  0  -0.277353  -0.388014  0  1.197329  0
Cl  Cl103  1  0.70908445  0.58856285  0.18476816  1  0  -0.457906  0  0.935973  0  0  -0.400045  0  1.184483  0  0  -0.417126  0  1.166186  0  -0.489174  0  -0.277354  -0.388022  0  1.197342  0
O  O104  1  0.62267603  0.91002495  0.35479431  1  0  -0.513412  0  1.934253  0  0  -0.475061  0  2.142765  0  0  -0.493785  0  2.134582  0  -1.123216  0  -0.278673  -0.462323  0  2.148308  0
O  O105  1  0.37732553  0.08997491  0.64520417  1  0  -0.513509  0  1.934164  0  0  -0.475121  0  2.142714  0  0  -0.493849  0  2.134531  0  -1.123154  0  -0.278699  -0.462375  0  2.148268  0
O  O106  1  0.65791661  0.12837590  0.37817327  1  0  -0.317109  0  2.340937  0  0  -0.243754  0  2.582928  0  0  -0.266656  0  2.583298  0  -1.063755  0  -0.158618  -0.227976  0  2.582294  0
O  O107  1  0.34208425  0.87162494  0.62182689  1  0  -0.317111  0  2.340988  0  0  -0.243715  0  2.583006  0  0  -0.266618  0  2.583376  0  -1.063788  0  -0.158603  -0.227913  0  2.58237  0
O  O108  1  0.72692650  0.29188254  0.21115613  1  0  -0.311136  0  2.311908  0  0  -0.234966  0  2.549884  0  0  -0.258393  0  2.550735  0  -1.06111  0  -0.156525  -0.218912  0  2.549682  0
O  O109  1  0.27307411  0.70811732  0.78884306  1  0  -0.311099  0  2.311885  0  0  -0.234945  0  2.549898  0  0  -0.258366  0  2.550748  0  -1.061069  0  -0.156561  -0.218894  0  2.549699  0
O  O110  1  0.91599203  0.44413971  0.29863693  1  0  -0.52314  0  1.931938  0  0  -0.485765  0  2.145044  0  0  -0.504834  0  2.135951  0  -1.142512  0  -0.278885  -0.472534  0  2.15182  0
O  O111  1  0.08400876  0.55585718  0.70136361  1  0  -0.523087  0  1.93199  0  0  -0.485717  0  2.14509  0  0  -0.504777  0  2.135996  0  -1.1425  0  -0.278846  -0.472485  0  2.151867  0
