# generated using pymatgen
data_CdH18PdC18(N3O)2
_symmetry_space_group_name_H-M   'P 1'
_cell_length_a   8.89861579
_cell_length_b   10.43927308
_cell_length_c   10.69170675
_cell_angle_alpha   93.88796380
_cell_angle_beta   90.00005948
_cell_angle_gamma   90.00019803
_symmetry_Int_Tables_number   1
_chemical_formula_structural   CdH18PdC18(N3O)2
_chemical_formula_sum   'Cd2 H36 Pd2 C36 N12 O4'
_cell_volume   990.92113529
_cell_formula_units_Z   2
loop_
 _symmetry_equiv_pos_site_id
 _symmetry_equiv_pos_as_xyz
  1  'x, y, z'
loop_
 _atom_site_type_symbol
 _atom_site_label
 _atom_site_symmetry_multiplicity
 _atom_site_fract_x
 _atom_site_fract_y
 _atom_site_fract_z
 _atom_site_occupancy
 _atom_site_hle17_bader_spin_density
 _atom_site_hle17_ddec_charge
 _atom_site_hle17_ddec_spin_density
 _atom_site_hle17_ddec_sum_bond_order
 _atom_site_hle17_magmom
 _atom_site_hse06_10hf_bader_spin_density
 _atom_site_hse06_10hf_ddec_charge
 _atom_site_hse06_10hf_ddec_spin_density
 _atom_site_hse06_10hf_ddec_sum_bond_order
 _atom_site_hse06_10hf_magmom
 _atom_site_hse06_bader_spin_density
 _atom_site_hse06_ddec_charge
 _atom_site_hse06_ddec_spin_density
 _atom_site_hse06_ddec_sum_bond_order
 _atom_site_hse06_magmom
 _atom_site_pbe_bader_spin_density
 _atom_site_pbe_cm5_charge
 _atom_site_pbe_ddec_charge
 _atom_site_pbe_ddec_spin_density
 _atom_site_pbe_ddec_sum_bond_order
 _atom_site_pbe_magmom
Cd  Cd0  1  0.00000132  0.50000056  0.50000009  1  0  1.114027  0  1.805849  0  0  0.920739  0  2.265164  0  0  0.970403  0  2.218982  0  0  0.819913  0.886135  0  2.296363  0
Cd  Cd1  1  0.50000114  0.99999987  0.00000008  1  0  1.114044  0  1.80581  0  0  0.920751  0  2.265123  0  0  0.970417  0  2.218942  0  0  0.819921  0.886146  0  2.296324  0
H  H2  1  0.06954243  0.55780089  0.24078241  1  0  0.374618  0  0.938476  0  0  0.342488  0  1.014662  0  0  0.353838  0  0.998498  0  0  0.290177  0.334879  0  1.02542  0
H  H3  1  0.56954121  0.94219975  0.25921784  1  0  0.374556  0  0.938444  0  0  0.342431  0  1.014714  0  0  0.353779  0  0.998553  0  0  0.290144  0.334821  0  1.025473  0
H  H4  1  0.93045844  0.44220078  0.75921825  1  0  0.374602  0  0.938405  0  0  0.342467  0  1.01467  0  0  0.353816  0  0.998508  0  0  0.290153  0.334856  0  1.025431  0
H  H5  1  0.43045853  0.05780097  0.74078276  1  0  0.374574  0  0.93842  0  0  0.342437  0  1.014706  0  0  0.353787  0  0.998543  0  0  0.290139  0.334828  0  1.025465  0
H  H6  1  0.84205232  0.51849137  0.12821619  1  0  0.041125  0  0.93313  0  0  0.053351  0  1.003265  0  0  0.053326  0  1.003515  0  0  0.090681  0.053219  0  1.003255  0
H  H7  1  0.34204980  0.98151009  0.37178529  1  0  0.0411  0  0.933203  0  0  0.053333  0  1.003315  0  0  0.053307  0  1.003565  0  0  0.090666  0.053202  0  1.003306  0
H  H8  1  0.15794855  0.48150934  0.87178441  1  0  0.041083  0  0.933151  0  0  0.053315  0  1.003283  0  0  0.053287  0  1.003536  0  0  0.090656  0.053184  0  1.003275  0
H  H9  1  0.65794995  0.01849254  0.62821543  1  0  0.041103  0  0.93312  0  0  0.053335  0  1.003252  0  0  0.053309  0  1.003501  0  0  0.090671  0.053202  0  1.003244  0
H  H10  1  0.83570225  0.66342373  0.22749577  1  0  0.047073  0  0.928445  0  0  0.063227  0  0.99031  0  0  0.063563  0  0.990578  0  0  0.095156  0.062795  0  0.990458  0
H  H11  1  0.33570126  0.83657772  0.27250663  1  0  0.047098  0  0.928444  0  0  0.063222  0  0.990326  0  0  0.063556  0  0.990596  0  0  0.095162  0.06279  0  0.990473  0
H  H12  1  0.16429750  0.33657699  0.77250576  1  0  0.047084  0  0.928472  0  0  0.063215  0  0.990358  0  0  0.063548  0  0.990627  0  0  0.095149  0.062784  0  0.990505  0
H  H13  1  0.66429848  0.16342491  0.72749409  1  0  0.047097  0  0.928508  0  0  0.063221  0  0.990394  0  0  0.063556  0  0.990663  0  0  0.095154  0.062791  0  0.990541  0
H  H14  1  0.61283804  0.49886646  0.23056992  1  0  0.079697  0  0.976925  0  0  0.083919  0  1.063445  0  0  0.086616  0  1.060156  0  0  0.078875  0.082351  0  1.065093  0
H  H15  1  0.11283570  0.00113232  0.26943132  1  0  0.079706  0  0.976862  0  0  0.083934  0  1.06338  0  0  0.086631  0  1.06009  0  0  0.078901  0.082367  0  1.065028  0
H  H16  1  0.38716395  0.50113041  0.76942950  1  0  0.079731  0  0.976856  0  0  0.083965  0  1.063345  0  0  0.086661  0  1.060055  0  0  0.078918  0.0824  0  1.064991  0
H  H17  1  0.88716517  0.99887031  0.73056847  1  0  0.079695  0  0.976864  0  0  0.083921  0  1.06337  0  0  0.086615  0  1.060083  0  0  0.078899  0.082355  0  1.065019  0
H  H18  1  0.73558059  0.40550343  0.31723293  1  0  0.10134  0  0.944474  0  0  0.117834  0  1.006347  0  0  0.118821  0  1.006887  0  0  0.101506  0.117032  0  1.006118  0
H  H19  1  0.23557964  0.09449572  0.18276656  1  0  0.101321  0  0.944422  0  0  0.117814  0  1.006314  0  0  0.118801  0  1.006854  0  0  0.101504  0.117011  0  1.006085  0
H  H20  1  0.26442140  0.59449537  0.68276848  1  0  0.101299  0  0.944557  0  0  0.11778  0  1.006439  0  0  0.118766  0  1.006979  0  0  0.101487  0.116979  0  1.00621  0
H  H21  1  0.76442235  0.90550787  0.81723235  1  0  0.101274  0  0.94447  0  0  0.117765  0  1.006351  0  0  0.118751  0  1.006892  0  0  0.101479  0.116964  0  1.006121  0
H  H22  1  0.45164928  0.64103528  0.33758368  1  0  0.107535  0  0.95953  0  0  0.11749  0  1.021362  0  0  0.119804  0  1.02199  0  0  0.104177  0.115796  0  1.021057  0
H  H23  1  0.95164648  0.85896364  0.16241774  1  0  0.107513  0  0.959486  0  0  0.117464  0  1.021333  0  0  0.119778  0  1.02196  0  0  0.104167  0.11577  0  1.021028  0
H  H24  1  0.54835046  0.35896351  0.66241493  1  0  0.107517  0  0.95959  0  0  0.117488  0  1.021399  0  0  0.119803  0  1.022026  0  0  0.104175  0.115793  0  1.021097  0
H  H25  1  0.04835327  0.14103900  0.83758299  1  0  0.107519  0  0.959574  0  0  0.117493  0  1.021396  0  0  0.119806  0  1.022024  0  0  0.104181  0.115797  0  1.021095  0
H  H26  1  0.38038577  0.77236902  0.53246465  1  0  0.093352  0  0.949013  0  0  0.105634  0  1.006545  0  0  0.107466  0  1.005848  0  0  0.106565  0.104508  0  1.006576  0
H  H27  1  0.88038394  0.72763072  0.96753606  1  0  0.093352  0  0.94899  0  0  0.10564  0  1.0065  0  0  0.107474  0  1.005798  0  0  0.106581  0.104512  0  1.006539  0
H  H28  1  0.61961734  0.22763264  0.46753320  1  0  0.093338  0  0.94896  0  0  0.105598  0  1.00653  0  0  0.107428  0  1.005839  0  0  0.106568  0.104471  0  1.006562  0
H  H29  1  0.11961693  0.27236903  0.03246635  1  0  0.093333  0  0.949061  0  0  0.105623  0  1.006583  0  0  0.107454  0  1.005888  0  0  0.106576  0.104497  0  1.006615  0
H  H30  1  0.55775393  0.77918455  0.71712926  1  0  0.105821  0  0.975977  0  0  0.112676  0  1.04164  0  0  0.11566  0  1.041223  0  0  0.103619  0.110257  0  1.042573  0
H  H31  1  0.05775250  0.72081518  0.78287022  1  0  0.105808  0  0.975957  0  0  0.112679  0  1.041618  0  0  0.115652  0  1.041213  0  0  0.103613  0.110261  0  1.042551  0
H  H32  1  0.44224806  0.22081711  0.28286672  1  0  0.105796  0  0.975972  0  0  0.112633  0  1.04166  0  0  0.115616  0  1.041248  0  0  0.103613  0.110213  0  1.042591  0
H  H33  1  0.94224837  0.27918362  0.21713212  1  0  0.105819  0  0.975944  0  0  0.112656  0  1.041629  0  0  0.115641  0  1.041211  0  0  0.10362  0.110237  0  1.042561  0
H  H34  1  0.79825512  0.65642421  0.69491800  1  0  0.073973  0  0.941968  0  0  0.084648  0  1.004095  0  0  0.08654  0  1.002908  0  0  0.114677  0.083175  0  1.005242  0
H  H35  1  0.29825308  0.84357433  0.80508162  1  0  0.07398  0  0.942006  0  0  0.084634  0  1.00414  0  0  0.086525  0  1.002956  0  0  0.114663  0.08316  0  1.005287  0
H  H36  1  0.20174462  0.34357554  0.30507973  1  0  0.073962  0  0.942046  0  0  0.084637  0  1.004168  0  0  0.086528  0  1.002983  0  0  0.114678  0.083163  0  1.005315  0
H  H37  1  0.70174553  0.15642447  0.19491979  1  0  0.074031  0  0.942138  0  0  0.084713  0  1.004244  0  0  0.086606  0  1.003056  0  0  0.114713  0.083239  0  1.005391  0
Pd  Pd38  1  0.99999741  0.00000060  0.50000107  1  0  0.148105  0  3.596821  0  0  0.161696  0  4.1258  0  0  0.162281  0  4.092288  0  0  0.652369  0.164223  0  4.147943  0
Pd  Pd39  1  0.50000012  0.49999936  0.00000339  1  0  0.148184  0  3.596736  0  0  0.161729  0  4.125788  0  0  0.162346  0  4.092228  0  0  0.652398  0.164255  0  4.147931  0
C  C40  1  0.17543115  0.05926685  0.60196858  1  0  0.044872  0  3.531521  0  0  0.018603  0  3.87857  0  0  0.027389  0  3.886514  0  0  -0.028724  0.012256  0  3.872931  0
C  C41  1  0.67543121  0.44073702  0.89803701  1  0  0.044993  0  3.53069  0  0  0.018753  0  3.87773  0  0  0.027518  0  3.885693  0  0  -0.028657  0.012404  0  3.872092  0
C  C42  1  0.82456522  0.94073387  0.39803201  1  0  0.044935  0  3.531287  0  0  0.018682  0  3.878315  0  0  0.027454  0  3.886277  0  0  -0.028695  0.012334  0  3.872676  0
C  C43  1  0.32456291  0.55926755  0.10197132  1  0  0.044824  0  3.53164  0  0  0.018564  0  3.878701  0  0  0.027342  0  3.88663  0  0  -0.02871  0.012219  0  3.873062  0
C  C44  1  0.05923366  0.81984072  0.51673556  1  0  0.085998  0  3.499093  0  0  0.05931  0  3.835435  0  0  0.070172  0  3.843927  0  0  -0.016581  0.050956  0  3.829584  0
C  C45  1  0.55923615  0.68016382  0.98326517  1  0  0.085977  0  3.499771  0  0  0.05931  0  3.836087  0  0  0.070159  0  3.844579  0  0  -0.016485  0.050961  0  3.830232  0
C  C46  1  0.94075934  0.18016383  0.48326342  1  0  0.085944  0  3.499627  0  0  0.059262  0  3.835944  0  0  0.070119  0  3.844439  0  0  -0.016529  0.050913  0  3.83009  0
C  C47  1  0.44076921  0.31983881  0.01673461  1  0  0.085933  0  3.499049  0  0  0.059253  0  3.8354  0  0  0.070109  0  3.843884  0  0  -0.016598  0.050898  0  3.829549  0
C  C48  1  0.84319645  0.55796187  0.22646313  1  0  0.169917  0  3.607609  0  0  0.111072  0  3.879575  0  0  0.118765  0  3.885857  0  0  -0.074474  0.105857  0  3.875409  0
C  C49  1  0.34319478  0.94203960  0.27353928  1  0  0.16986  0  3.607745  0  0  0.111051  0  3.879683  0  0  0.118749  0  3.885958  0  0  -0.074468  0.105836  0  3.875517  0
C  C50  1  0.15680666  0.44203788  0.77353740  1  0  0.169896  0  3.607749  0  0  0.111064  0  3.879699  0  0  0.118762  0  3.885976  0  0  -0.074459  0.105851  0  3.875532  0
C  C51  1  0.65680609  0.05796304  0.72646331  1  0  0.169885  0  3.607781  0  0  0.11106  0  3.879715  0  0  0.118754  0  3.885997  0  0  -0.07446  0.105846  0  3.875549  0
C  C52  1  0.70902833  0.50437928  0.29526674  1  0  -0.237601  0  3.708171  0  0  -0.281174  0  3.957282  0  0  -0.284926  0  3.96917  0  0  -0.167919  -0.278834  0  3.949392  0
C  C53  1  0.20902566  0.99561890  0.20473254  1  0  -0.237565  0  3.708072  0  0  -0.281155  0  3.957198  0  0  -0.284907  0  3.969087  0  0  -0.167945  -0.278818  0  3.94931  0
C  C54  1  0.29097478  0.49561855  0.70473274  1  0  -0.237608  0  3.708161  0  0  -0.281188  0  3.957298  0  0  -0.284937  0  3.969182  0  0  -0.167939  -0.278853  0  3.949413  0
C  C55  1  0.79097520  0.00438277  0.79526625  1  0  -0.237532  0  3.708027  0  0  -0.281104  0  3.957134  0  0  -0.284853  0  3.969021  0  0  -0.167934  -0.27877  0  3.949247  0
C  C56  1  0.66326751  0.58185942  0.41255194  1  0  0.276493  0  3.701088  0  0  0.280161  0  3.940503  0  0  0.28858  0  3.962592  0  0  0.124378  0.274541  0  3.925963  0
C  C57  1  0.16326551  0.91813862  0.08744916  1  0  0.276424  0  3.701024  0  0  0.280099  0  3.94045  0  0  0.288519  0  3.96254  0  0  0.124389  0.27448  0  3.925909  0
C  C58  1  0.33672886  0.41814032  0.58744579  1  0  0.276419  0  3.701201  0  0  0.280096  0  3.940587  0  0  0.288514  0  3.962678  0  0  0.124323  0.274477  0  3.926048  0
C  C59  1  0.83673086  0.08186114  0.91255325  1  0  0.276415  0  3.701146  0  0  0.280099  0  3.940529  0  0  0.288517  0  3.962618  0  0  0.124394  0.27448  0  3.925986  0
C  C60  1  0.52630140  0.64785468  0.41852753  1  0  -0.15423  0  3.681971  0  0  -0.172453  0  3.927645  0  0  -0.18057  0  3.949649  0  0  -0.082104  -0.167766  0  3.913362  0
C  C61  1  0.02630249  0.85214583  0.08147361  1  0  -0.154167  0  3.681947  0  0  -0.172409  0  3.92763  0  0  -0.180527  0  3.949634  0  0  -0.082099  -0.167721  0  3.913344  0
C  C62  1  0.47369834  0.35214987  0.58147238  1  0  -0.154176  0  3.681808  0  0  -0.172423  0  3.927519  0  0  -0.180541  0  3.949525  0  0  -0.08207  -0.167734  0  3.913238  0
C  C63  1  0.97369837  0.14785296  0.91852313  1  0  -0.15416  0  3.681793  0  0  -0.172421  0  3.927487  0  0  -0.180539  0  3.949492  0  0  -0.082121  -0.167734  0  3.913204  0
C  C64  1  0.48672805  0.72054136  0.52738958  1  0  0.014355  0  3.712952  0  0  -0.004661  0  3.961046  0  0  1.3e-05  0  3.978995  0  0  -0.064123  -0.006885  0  3.947881  0
C  C65  1  0.98672755  0.77945585  0.97261574  1  0  0.014308  0  3.712789  0  0  -0.004682  0  3.96087  0  0  -5e-06  0  3.978816  0  0  -0.064172  -0.006906  0  3.947704  0
C  C66  1  0.51327170  0.27945839  0.47260721  1  0  0.014465  0  3.712676  0  0  -0.004551  0  3.960807  0  0  0.000125  0  3.978752  0  0  -0.064069  -0.006774  0  3.947642  0
C  C67  1  0.01327556  0.22054393  0.02739229  1  0  0.014442  0  3.712739  0  0  -0.004588  0  3.96085  0  0  9e-05  0  3.978792  0  0  -0.064089  -0.006811  0  3.947682  0
C  C68  1  0.58438151  0.72461685  0.62957197  1  0  -0.128421  0  3.732762  0  0  -0.138911  0  3.981078  0  0  -0.147344  0  4.004269  0  0  -0.087651  -0.133374  0  3.965465  0
C  C69  1  0.08438264  0.77538296  0.87042755  1  0  -0.128383  0  3.732728  0  0  -0.13892  0  3.981052  0  0  -0.147342  0  4.004251  0  0  -0.087642  -0.133383  0  3.96544  0
C  C70  1  0.41562048  0.27538770  0.37042794  1  0  -0.128506  0  3.732775  0  0  -0.138967  0  3.981103  0  0  -0.147398  0  4.004288  0  0  -0.087708  -0.133428  0  3.965488  0
C  C71  1  0.91561934  0.22461294  0.12956994  1  0  -0.128516  0  3.732788  0  0  -0.138985  0  3.981126  0  0  -0.147414  0  4.004314  0  0  -0.087712  -0.133446  0  3.96551  0
C  C72  1  0.71845502  0.65673670  0.61755888  1  0  0.133858  0  3.725375  0  0  0.102905  0  3.976334  0  0  0.109564  0  3.997432  0  0  0.043835  0.098829  0  3.9618  0
C  C73  1  0.21845308  0.84326064  0.88244340  1  0  0.13386  0  3.725677  0  0  0.102946  0  3.976634  0  0  0.109605  0  3.99773  0  0  0.043921  0.09887  0  3.962101  0
C  C74  1  0.28154359  0.34326305  0.38243885  1  0  0.13392  0  3.725291  0  0  0.102973  0  3.976242  0  0  0.109632  0  3.997339  0  0  0.043866  0.098897  0  3.96171  0
C  C75  1  0.78154217  0.15673816  0.11756082  1  0  0.133818  0  3.72546  0  0  0.102855  0  3.976419  0  0  0.109513  0  3.997513  0  0  0.043823  0.098778  0  3.961885  0
N  N76  1  0.27819105  0.09266192  0.66435225  1  0  -0.418561  0  2.889391  0  0  -0.367609  0  3.142479  0  0  -0.383126  0  3.156085  0  0  -0.349329  -0.357028  0  3.132761  0
N  N77  1  0.77819990  0.40733840  0.83564479  1  0  -0.418731  0  2.888565  0  0  -0.367793  0  3.141665  0  0  -0.383303  0  3.155267  0  0  -0.349411  -0.357209  0  3.131948  0
N  N78  1  0.72180532  0.90733591  0.33564630  1  0  -0.41863  0  2.889164  0  0  -0.367698  0  3.142256  0  0  -0.383207  0  3.155857  0  0  -0.349374  -0.357118  0  3.13254  0
N  N79  1  0.22181108  0.59266134  0.16434920  1  0  -0.418535  0  2.889565  0  0  -0.367587  0  3.142622  0  0  -0.383103  0  3.156231  0  0  -0.349369  -0.357008  0  3.132905  0
N  N80  1  0.09097996  0.71219503  0.52744066  1  0  -0.461205  0  2.965694  0  0  -0.398844  0  3.254516  0  0  -0.417469  0  3.265176  0  0  -0.377044  -0.385522  0  3.246761  0
N  N81  1  0.59097388  0.78779809  0.97256125  1  0  -0.461162  0  2.966446  0  0  -0.398807  0  3.25525  0  0  -0.41743  0  3.265919  0  0  -0.37712  -0.385488  0  3.247494  0
N  N82  1  0.90902203  0.28779992  0.47255864  1  0  -0.461114  0  2.966317  0  0  -0.398756  0  3.255126  0  0  -0.417377  0  3.265789  0  0  -0.377066  -0.385437  0  3.247371  0
N  N83  1  0.40902249  0.21219015  0.02744043  1  0  -0.461155  0  2.965641  0  0  -0.398797  0  3.254459  0  0  -0.417422  0  3.265122  0  0  -0.377035  -0.385474  0  3.246703  0
N  N84  1  0.75777104  0.58724220  0.51191236  1  0  -0.383863  0  3.211693  0  0  -0.309162  0  3.467875  0  0  -0.330354  0  3.487889  0  0  -0.329696  -0.29521  0  3.453729  0
N  N85  1  0.25777064  0.91275334  0.98808610  1  0  -0.383844  0  3.211654  0  0  -0.309154  0  3.467808  0  0  -0.330345  0  3.487824  0  0  -0.329745  -0.295201  0  3.45366  0
N  N86  1  0.24222757  0.41275852  0.48808824  1  0  -0.383817  0  3.211662  0  0  -0.309115  0  3.467838  0  0  -0.330305  0  3.487852  0  0  -0.329671  -0.295162  0  3.453691  0
N  N87  1  0.74222798  0.08724257  0.01191045  1  0  -0.383825  0  3.21169  0  0  -0.309117  0  3.467858  0  0  -0.330307  0  3.487873  0  0  -0.329693  -0.295165  0  3.453712  0
O  O88  1  0.98046158  0.52030214  0.28444731  1  0  -0.597223  0  2.176978  0  0  -0.52172  0  2.427306  0  0  -0.542672  0  2.410721  0  0  -0.41215  -0.507011  0  2.438197  0
O  O89  1  0.48045999  0.97969879  0.21555613  1  0  -0.597132  0  2.176952  0  0  -0.521629  0  2.427326  0  0  -0.542585  0  2.410754  0  0  -0.412117  -0.506917  0  2.438216  0
O  O90  1  0.01954153  0.47969665  0.71555410  1  0  -0.597175  0  2.176916  0  0  -0.521679  0  2.427344  0  0  -0.542623  0  2.410737  0  0  -0.412132  -0.506965  0  2.438235  0
O  O91  1  0.51954088  0.02030481  0.78444559  1  0  -0.597154  0  2.176983  0  0  -0.521655  0  2.427406  0  0  -0.542599  0  2.410805  0  0  -0.412106  -0.506944  0  2.438296  0
