# generated using pymatgen
data_CuH18C22S4(N5O7)2
_symmetry_space_group_name_H-M   'P 1'
_cell_length_a   8.35817780
_cell_length_b   9.96256150
_cell_length_c   10.37965873
_cell_angle_alpha   109.54773170
_cell_angle_beta   98.28610595
_cell_angle_gamma   102.35057127
_symmetry_Int_Tables_number   1
_chemical_formula_structural   CuH18C22S4(N5O7)2
_chemical_formula_sum   'Cu1 H18 C22 S4 N10 O14'
_cell_volume   773.49060019
_cell_formula_units_Z   1
loop_
 _symmetry_equiv_pos_site_id
 _symmetry_equiv_pos_as_xyz
  1  'x, y, z'
loop_
 _atom_site_type_symbol
 _atom_site_label
 _atom_site_symmetry_multiplicity
 _atom_site_fract_x
 _atom_site_fract_y
 _atom_site_fract_z
 _atom_site_occupancy
 _atom_site_hle17_ddec_charge
 _atom_site_hle17_ddec_spin_density
 _atom_site_hle17_ddec_sum_bond_order
 _atom_site_hle17_magmom
 _atom_site_hse06_10hf_ddec_charge
 _atom_site_hse06_10hf_ddec_spin_density
 _atom_site_hse06_10hf_ddec_sum_bond_order
 _atom_site_hse06_10hf_magmom
 _atom_site_hse06_ddec_charge
 _atom_site_hse06_ddec_spin_density
 _atom_site_hse06_ddec_sum_bond_order
 _atom_site_hse06_magmom
 _atom_site_pbe_cm5_charge
 _atom_site_pbe_ddec_charge
 _atom_site_pbe_ddec_spin_density
 _atom_site_pbe_ddec_sum_bond_order
 _atom_site_pbe_magmom
Cu  Cu0  1  0.99999724  0.99999897  0.99999934  1  0.893793  0.683345  1.782235  0.505  0.878659  0.773087  2.166846  0.621  0.962263  0.842872  2.106191  0.711  0.789026  0.826992  0.719355  2.210923  0.557
H  H1  1  0.70362067  0.40402067  0.08891973  1  0.147831  0.000427  0.942779  0.001  0.145554  0.000281  1.017953  0.0  0.150472  0.000173  1.011839  0.0  0.126184  0.142122  0.000402  1.022035  0.001
H  H2  1  0.29638056  0.59597939  0.91107947  1  0.147831  0.000425  0.942761  0.001  0.14556  0.000281  1.01793  0.0  0.15048  0.000173  1.011813  0.0  0.126177  0.14213  0.000402  1.022012  0.001
H  H3  1  0.20013362  0.68979183  0.31549064  1  0.132771  0.000131  0.965822  0.0  0.130391  4.9e-05  1.04495  0.0  0.135446  1.2e-05  1.038473  0.0  0.119745  0.12676  5.9e-05  1.049631  0.0
H  H4  1  0.79986555  0.31020935  0.68450769  1  0.132783  0.00013  0.9658  0.0  0.130405  4.9e-05  1.044918  0.0  0.135465  1.2e-05  1.038428  0.0  0.119728  0.126775  5.9e-05  1.049596  0.0
H  H5  1  0.67199052  0.91235162  0.06018157  1  0.149469  -0.000137  0.942763  0.0  0.165701  -0.000188  1.006182  0.0  0.168491  -0.000214  1.003811  0.0  0.105612  0.163594  -0.000163  1.008029  0.0
H  H6  1  0.32800829  0.08764847  0.93981927  1  0.149462  -0.000135  0.942757  0.0  0.1657  -0.000187  1.006162  0.0  0.168487  -0.000214  1.003797  0.0  0.105619  0.16359  -0.000163  1.008009  0.0
H  H7  1  0.60604785  0.05396225  0.17868926  1  0.156132  -0.00071  0.905239  -0.001  0.179821  -0.000382  0.954511  0.0  0.182324  -0.000409  0.953093  0.0  0.110555  0.178069  -0.000348  0.955491  0.0
H  H8  1  0.39395216  0.94603784  0.82131269  1  0.156185  -0.000709  0.905207  -0.001  0.17985  -0.000382  0.954503  0.0  0.182352  -0.000409  0.953086  0.0  0.110575  0.178098  -0.000348  0.955485  0.0
H  H9  1  0.61071216  0.89166254  0.21193124  1  0.1357  -0.000486  0.953258  0.0  0.150099  -0.000255  1.023375  0.0  0.152744  -0.000266  1.022069  0.0  0.094552  0.148309  -0.000233  1.024221  0.0
H  H10  1  0.38928870  0.10833643  0.78806949  1  0.135703  -0.000484  0.953243  0.0  0.150101  -0.000254  1.023364  0.0  0.152746  -0.000266  1.02206  0.0  0.094553  0.14831  -0.000233  1.024209  0.0
H  H11  1  0.56653915  0.31732869  0.58040270  1  0.092324  -2.6e-05  0.943856  0.0  0.1109  5e-06  1.003308  0.0  0.111328  1e-06  1.003073  0.0  0.09702  0.110625  1.6e-05  1.003469  0.0
H  H12  1  0.43346136  0.68266915  0.41959571  1  0.092341  -2.4e-05  0.943843  0.0  0.110903  5e-06  1.003309  0.0  0.111342  0.0  1.003062  0.0  0.097024  0.110636  1.6e-05  1.003457  0.0
H  H13  1  0.44747868  0.19001525  0.41009553  1  0.107291  0.000195  0.936909  0.0  0.119226  5.4e-05  0.999707  0.0  0.120362  2e-05  0.999099  0.0  0.102286  0.118539  8.3e-05  0.999918  0.0
H  H14  1  0.55252605  0.80998812  0.58990417  1  0.107314  0.000196  0.936958  0.0  0.11925  5.4e-05  0.999746  0.0  0.120387  2e-05  0.99914  0.0  0.102314  0.118565  8.3e-05  0.999957  0.0
H  H15  1  0.36813967  0.40265516  0.36134363  1  0.080778  -1.1e-05  0.946801  0.0  0.094162  -9e-06  1.014334  0.0  0.095134  -5e-06  1.014659  0.0  0.086637  0.093402  -0.0  1.01427  0.0
H  H16  1  0.63186661  0.59734933  0.63865853  1  0.080804  -8e-06  0.946772  0.0  0.094205  -8e-06  1.014286  0.0  0.095164  -6e-06  1.014622  0.0  0.086639  0.09345  -0.0  1.014221  0.0
H  H17  1  0.58586411  0.41894789  0.38854925  1  0.079127  4.9e-05  0.944342  0.0  0.093773  2.6e-05  1.011522  0.0  0.094128  1.2e-05  1.012175  0.0  0.087467  0.093627  4.3e-05  1.011008  0.0
H  H18  1  0.41413819  0.58105552  0.61145402  1  0.079133  5.1e-05  0.944311  0.0  0.093783  2.6e-05  1.011493  0.0  0.094141  1.2e-05  1.012136  0.0  0.087464  0.093642  4.3e-05  1.010972  0.0
C  C19  1  0.79690986  0.58741846  0.02870220  1  -0.028187  0.008296  3.625004  0.009  -0.041121  0.004204  3.875884  0.005  -0.053227  0.002745  3.895845  0.004  0.068006  -0.033159  0.00628  3.861798  0.007
C  C20  1  0.20309185  0.41257938  0.97129636  1  -0.028171  0.008265  3.62491  0.009  -0.041069  0.004204  3.875785  0.005  -0.053179  0.002742  3.895754  0.004  0.068061  -0.03311  0.006281  3.861691  0.007
C  C21  1  0.80731767  0.50020443  0.10662069  1  -0.086703  -0.003223  3.724857  -0.002  -0.13755  -8.8e-05  4.00885  0.0  -0.127252  -0.000216  4.021941  0.0  -0.064309  -0.143046  -0.000131  3.998461  0.0
C  C22  1  0.19268234  0.49979565  0.89338126  1  -0.086752  -0.003186  3.724838  -0.002  -0.137595  -8.9e-05  4.008786  0.0  -0.127302  -0.000211  4.021887  0.0  -0.064337  -0.143096  -0.000131  3.998391  0.0
C  C23  1  0.95184760  0.54082818  0.21292385  1  0.038331  0.002487  3.750055  0.003  0.030071  0.00015  4.019671  0.0  0.019673  4.1e-05  4.042673  0.0  0.059961  0.036603  0.001042  4.004277  0.001
C  C24  1  0.04815193  0.45917413  0.78707778  1  0.038417  0.002486  3.749935  0.003  0.030156  0.000153  4.019561  0.0  0.01976  3.9e-05  4.042563  0.0  0.059966  0.036688  0.001042  4.00416  0.001
C  C25  1  0.08592504  0.66227808  0.23590852  1  -0.098429  -0.003743  3.761872  -0.003  -0.147329  -0.000793  4.044532  -0.001  -0.137065  -0.000717  4.058314  -0.001  -0.072346  -0.154221  -0.000987  4.036319  -0.001
C  C26  1  0.91407583  0.33772087  0.76408931  1  -0.098509  -0.003731  3.761869  -0.003  -0.147441  -0.000795  4.04453  -0.001  -0.137175  -0.000714  4.058307  -0.001  -0.072344  -0.154329  -0.000988  4.036312  -0.001
C  C27  1  0.07739149  0.74657027  0.15364910  1  -0.053111  0.006469  3.628226  0.007  -0.062116  0.002551  3.891216  0.003  -0.075977  0.001449  3.913456  0.002  0.059849  -0.054126  0.002722  3.877846  0.003
C  C28  1  0.92260916  0.25342421  0.84634442  1  -0.053173  0.006462  3.628378  0.007  -0.062096  0.002551  3.891251  0.003  -0.075952  0.001449  3.913489  0.002  0.059842  -0.054116  0.002722  3.877888  0.003
C  C29  1  0.92916644  0.71686941  0.04587700  1  0.327685  -0.006399  3.827807  -0.007  0.308849  0.001146  4.101305  0.0  0.33428  0.000592  4.115197  0.0  0.119701  0.292375  0.001817  4.090945  0.0
C  C30  1  0.07082754  0.28313069  0.95412134  1  0.327719  -0.006377  3.827844  -0.007  0.308906  0.001147  4.101286  0.0  0.334332  0.000593  4.115186  0.0  0.119689  0.292432  0.001817  4.090917  0.0
C  C31  1  0.67567216  0.97075624  0.17107591  1  -0.377157  4.7e-05  3.69312  0.001  -0.458526  -0.00011  3.933884  0.0  -0.463019  -0.000142  3.938671  0.0  -0.23846  -0.455068  -9.1e-05  3.930199  0.0
C  C32  1  0.32432870  0.02924273  0.82892482  1  -0.377173  4.1e-05  3.693084  0.001  -0.458539  -0.00011  3.933895  0.0  -0.463026  -0.000142  3.938668  0.0  -0.238481  -0.455085  -9.1e-05  3.930208  0.0
C  C33  1  0.85202673  0.04332114  0.25304148  1  0.255737  -0.01204  3.676208  -0.007  0.250182  -0.003646  3.968869  -0.001  0.265749  -0.006057  3.982473  -0.003  0.137061  0.239958  -0.001659  3.960541  0.001
C  C34  1  0.14797414  0.95667781  0.74695829  1  0.255695  -0.012051  3.676265  -0.007  0.250144  -0.003645  3.968917  -0.001  0.265711  -0.006057  3.982522  -0.003  0.137028  0.239924  -0.001659  3.960583  0.001
C  C35  1  0.11788221  0.17630609  0.42368754  1  0.078704  0.004131  3.811924  0.006  0.0722  0.002454  4.130455  0.004  0.084787  0.001906  4.142161  0.003  0.119047  0.063705  0.002898  4.121832  0.004
C  C36  1  0.88211780  0.82369400  0.57631537  1  0.078718  0.00414  3.811853  0.006  0.072184  0.002454  4.130438  0.004  0.084771  0.001907  4.142143  0.003  0.11904  0.063687  0.002898  4.121822  0.004
C  C37  1  0.45984135  0.29644766  0.49413557  1  -0.109884  0.000332  3.581344  0.0  -0.144792  0.000224  3.840642  0.0  -0.142556  0.000107  3.851542  0.0  -0.135893  -0.146089  0.000351  3.832483  0.0
C  C38  1  0.54016097  0.70355572  0.50586384  1  -0.109913  0.00033  3.581339  0.0  -0.144828  0.000224  3.840687  0.0  -0.1426  0.000108  3.851579  0.0  -0.135931  -0.14613  0.000351  3.83253  0.0
C  C39  1  0.48118685  0.42361242  0.44194107  1  -0.112491  9.9e-05  3.691557  0.0  -0.151218  1.4e-05  3.94794  0.0  -0.152893  2e-06  3.96314  0.0  -0.17472  -0.149686  5.4e-05  3.936976  0.0
C  C40  1  0.51881702  0.57639208  0.55806177  1  -0.112478  8.7e-05  3.691513  0.0  -0.151184  1.3e-05  3.947818  0.0  -0.152858  2e-06  3.963044  0.0  -0.174685  -0.149675  5.4e-05  3.936894  0.0
S  S41  1  0.90962849  0.11676724  0.43424477  1  0.094234  0.005489  2.497919  0.008  0.096124  0.00436  2.824052  0.006  0.09391  0.002616  2.823016  0.005  0.124228  0.096815  0.005864  2.825091  0.007
S  S42  1  0.09037080  0.88323062  0.56575542  1  0.094249  0.005487  2.497971  0.008  0.096157  0.004361  2.824096  0.006  0.093942  0.002617  2.823062  0.005  0.124268  0.096852  0.005864  2.825136  0.007
S  S43  1  0.27977451  0.26765778  0.57317794  1  0.043236  0.003851  2.418414  0.004  0.034897  0.00079  2.768339  0.001  0.025029  0.000536  2.771747  0.001  0.036132  0.041562  0.001149  2.766984  0.001
S  S44  1  0.72022791  0.73234230  0.42682429  1  0.043192  0.003851  2.418487  0.004  0.03487  0.000791  2.768425  0.001  0.025001  0.000535  2.771837  0.001  0.036124  0.041539  0.00115  2.76708  0.001
N  N45  1  0.64288184  0.54253003  0.91988632  1  0.494014  -8.7e-05  3.926859  0.0  0.549679  0.000316  4.177172  0.0  0.573206  0.000147  4.183572  0.0  0.055468  0.533478  0.000841  4.173173  0.001
N  N46  1  0.35711709  0.45746672  0.08011349  1  0.494227  -7.9e-05  3.926637  0.0  0.549772  0.000315  4.177128  0.0  0.573298  0.000148  4.18353  0.0  0.055495  0.533568  0.00084  4.173132  0.001
N  N47  1  0.96309241  0.45249279  0.29863927  1  0.506367  -0.000589  3.898537  -0.001  0.530724  -0.000181  4.206081  0.0  0.553236  -0.000139  4.214298  0.0  0.04993  0.515775  -2e-05  4.200216  0.0
N  N48  1  0.03691123  0.54750726  0.70136021  1  0.506365  -0.000599  3.898512  -0.001  0.530716  -0.000182  4.20606  0.0  0.553227  -0.000139  4.214278  0.0  0.049952  0.515772  -2e-05  4.200195  0.0
N  N49  1  0.23027571  0.86202864  0.17657508  1  0.521515  -0.001587  3.897496  -0.001  0.5453  -0.000718  4.203856  -0.001  0.569086  -0.000692  4.211072  -0.001  0.048786  0.529197  -0.000842  4.199614  -0.001
N  N50  1  0.76972154  0.13797032  0.82342233  1  0.521505  -0.001572  3.897666  -0.001  0.545244  -0.00072  4.204054  -0.001  0.569029  -0.00069  4.211275  -0.001  0.048735  0.529145  -0.000842  4.199808  -0.001
N  N51  1  0.98468086  0.06445206  0.19943733  1  -0.254077  0.070978  3.328591  0.09  -0.222578  0.049001  3.64872  0.066  -0.249576  0.040638  3.670365  0.059  -0.259762  -0.206882  0.052293  3.636989  0.067
N  N52  1  0.01532036  0.93554801  0.80056379  1  -0.254117  0.070991  3.328606  0.09  -0.222613  0.049002  3.648727  0.066  -0.249613  0.040639  3.670374  0.059  -0.259781  -0.206918  0.052293  3.636996  0.067
N  N53  1  0.13517919  0.14019465  0.29359983  1  -0.190398  0.004011  3.025801  0.005  -0.181197  0.00243  3.322978  0.003  -0.1897  0.000588  3.340438  0.001  -0.221484  -0.174682  0.004468  3.311397  0.005
N  N54  1  0.86482117  0.85980655  0.70640348  1  -0.190315  0.003998  3.025648  0.005  -0.18111  0.002428  3.322839  0.003  -0.189611  0.000587  3.340297  0.001  -0.221442  -0.174591  0.004467  3.311259  0.005
O  O55  1  0.90838667  0.78878110  0.96663824  1  -0.496996  0.079445  2.186128  0.108  -0.493309  0.052708  2.483738  0.078  -0.534647  0.038181  2.482997  0.061  -0.304835  -0.464826  0.063281  2.482958  0.089
O  O56  1  0.09160647  0.21122011  0.03336034  1  -0.496982  0.079438  2.186105  0.108  -0.493303  0.052707  2.483676  0.078  -0.534635  0.03818  2.482927  0.061  -0.304787  -0.464829  0.063284  2.482912  0.089
O  O57  1  0.58147933  0.63946184  0.90270334  1  -0.303814  -0.000263  1.781515  0.0  -0.292495  -0.000304  1.970592  0.0  -0.304158  -0.00067  1.966465  -0.001  -0.095852  -0.284677  0.000342  1.973771  0.0
O  O58  1  0.41851840  0.36053491  0.09729536  1  -0.303939  -0.000297  1.78144  0.0  -0.292548  -0.000306  1.970573  0.0  -0.304197  -0.000667  1.966431  -0.001  -0.095866  -0.28471  0.000342  1.973725  0.0
O  O59  1  0.58047610  0.40649630  0.85102942  1  -0.361554  0.001667  1.763211  0.002  -0.355047  0.0008  1.965565  0.001  -0.371098  0.000582  1.964362  0.001  -0.132723  -0.344038  0.001728  1.966438  0.002
O  O60  1  0.41951920  0.59350049  0.14897382  1  -0.361603  0.001687  1.763156  0.002  -0.355112  0.000801  1.965599  0.001  -0.371165  0.000579  1.964398  0.001  -0.132745  -0.344094  0.001728  1.966447  0.002
O  O61  1  0.83624113  0.35072265  0.28071390  1  -0.349157  -0.00028  1.759493  0.0  -0.333327  -0.000335  1.973611  0.0  -0.346167  -0.000354  1.971029  0.0  -0.124379  -0.324465  5.5e-05  1.975492  0.0
O  O62  1  0.16376010  0.64927741  0.71928530  1  -0.349191  -0.000304  1.759531  0.0  -0.333365  -0.00033  1.973644  0.0  -0.346206  -0.000368  1.971061  0.0  -0.124403  -0.324501  5.5e-05  1.975524  0.0
O  O63  1  0.09873216  0.48405385  0.38442607  1  -0.347523  0.000485  1.760861  0.001  -0.335084  0.000227  1.983267  0.0  -0.347338  0.000192  1.981009  0.0  -0.126167  -0.326781  0.000213  1.984307  0.0
O  O64  1  0.90127148  0.51594619  0.61557341  1  -0.347504  0.000504  1.760796  0.001  -0.335065  0.000225  1.983215  0.0  -0.347319  0.000199  1.980955  0.0  -0.126174  -0.326768  0.000213  1.984263  0.0
O  O65  1  0.33500114  0.90810846  0.29061471  1  -0.349638  -0.002776  1.74579  -0.002  -0.33149  -0.00203  1.955847  -0.002  -0.34249  -0.002542  1.951561  -0.002  -0.122798  -0.324583  -0.001549  1.958865  -0.001
O  O66  1  0.66499561  0.09189273  0.70938431  1  -0.34965  -0.002757  1.745858  -0.002  -0.331468  -0.002034  1.955894  -0.002  -0.342476  -0.002535  1.951621  -0.002  -0.122802  -0.324562  -0.001549  1.95891  -0.001
O  O67  1  0.25053997  0.90680197  0.07955042  1  -0.369064  0.002094  1.769947  0.004  -0.359868  0.000704  1.998454  0.003  -0.373422  0.000449  1.99109  0.002  -0.129047  -0.351752  0.000344  2.004467  0.002
O  O68  1  0.74945800  0.09319921  0.92044874  1  -0.369029  0.002071  1.769945  0.004  -0.359835  0.000708  1.998481  0.003  -0.373384  0.000444  1.991106  0.002  -0.128995  -0.351718  0.000343  2.004492  0.002
