# generated using pymatgen
data_TbCu4H19C21I7N4O7
_symmetry_space_group_name_H-M   'P 1'
_cell_length_a   8.00350729
_cell_length_b   15.09231777
_cell_length_c   29.28188909
_cell_angle_alpha   99.73015366
_cell_angle_beta   90.00013097
_cell_angle_gamma   89.99948017
_symmetry_Int_Tables_number   1
_chemical_formula_structural   TbCu4H19C21I7N4O7
_chemical_formula_sum   'Tb4 Cu16 H76 C84 I28 N16 O28'
_cell_volume   3486.12159612
_cell_formula_units_Z   4
loop_
 _symmetry_equiv_pos_site_id
 _symmetry_equiv_pos_as_xyz
  1  'x, y, z'
loop_
 _atom_site_type_symbol
 _atom_site_label
 _atom_site_symmetry_multiplicity
 _atom_site_fract_x
 _atom_site_fract_y
 _atom_site_fract_z
 _atom_site_occupancy
 _atom_site_pbe_bader_charge
 _atom_site_pbe_bader_spin_density
 _atom_site_pbe_cm5_charge
 _atom_site_pbe_ddec_charge
 _atom_site_pbe_ddec_spin_density
 _atom_site_pbe_ddec_sum_bond_order
 _atom_site_pbe_magmom
Tb  Tb0  1  0.25629902  0.95066181  0.49079748  1  2.206436  0  1.510769  2.110896  0  2.124802  0
Tb  Tb1  1  0.75630125  0.54933577  0.00920187  1  2.206522  0  1.51073  2.110837  0  2.124819  0
Tb  Tb2  1  0.74370315  0.04934300  0.50922304  1  2.206534  0  1.510776  2.11095  0  2.124772  0
Tb  Tb3  1  0.24370342  0.45065848  0.99077640  1  2.206475  0  1.510814  2.111085  0  2.124563  0
Cu  Cu4  1  0.43001010  0.42642393  0.24745501  1  0.402527  0  0.247672  0.143658  0  2.675985  0
Cu  Cu5  1  0.93000895  0.07357815  0.25254935  1  0.402549  0  0.247626  0.143575  0  2.676109  0
Cu  Cu6  1  0.56994459  0.57360113  0.75254750  1  0.402846  0  0.247591  0.143628  0  2.676032  0
Cu  Cu7  1  0.06993700  0.92640054  0.74744838  1  0.402344  0  0.247658  0.143698  0  2.675989  0
Cu  Cu8  1  0.68904229  0.35673491  0.28403627  1  0.276127  0  0.143861  0.11942  0  2.826283  0
Cu  Cu9  1  0.18904554  0.14326293  0.21596824  1  0.276182  0  0.143857  0.119399  0  2.826364  0
Cu  Cu10  1  0.31091740  0.64325923  0.71596487  1  0.276206  0  0.143847  0.119334  0  2.826259  0
Cu  Cu11  1  0.81090540  0.85673727  0.78403002  1  0.276257  0  0.143847  0.11933  0  2.826286  0
Cu  Cu12  1  0.56926372  0.50341217  0.32678230  1  0.39685  0  0.253347  0.144323  0  2.759315  0
Cu  Cu13  1  0.06925680  0.99658425  0.17322161  1  0.396857  0  0.253387  0.144392  0  2.759187  0
Cu  Cu14  1  0.43073970  0.49659944  0.67322140  1  0.396551  0  0.253394  0.144413  0  2.759246  0
Cu  Cu15  1  0.93073413  0.00339915  0.82677551  1  0.396449  0  0.253393  0.144382  0  2.759247  0
Cu  Cu16  1  0.38625398  0.35029585  0.31725675  1  0.408196  0  0.251338  0.149917  0  2.720447  0
Cu  Cu17  1  0.88625218  0.14970978  0.18275130  1  0.408031  0  0.251307  0.149937  0  2.720468  0
Cu  Cu18  1  0.61370946  0.64970701  0.68274857  1  0.407912  0  0.251377  0.150137  0  2.719982  0
Cu  Cu19  1  0.11369126  0.85028908  0.81724615  1  0.40813  0  0.251284  0.149937  0  2.720222  0
H  H20  1  0.61643397  0.14241973  0.40594127  1  0.129145  0  0.115982  0.126943  0  0.998577  0
H  H21  1  0.11644002  0.35757376  0.09406145  1  0.129176  0  0.11597  0.126988  0  0.99846  0
H  H22  1  0.38362318  0.85756561  0.59407207  1  0.129296  0  0.116012  0.12701  0  0.998561  0
H  H23  1  0.88362462  0.64243524  0.90592666  1  0.129387  0  0.115999  0.127011  0  0.998463  0
H  H24  1  0.76200424  0.91136820  0.27279649  1  0.123872  0  0.090669  0.065548  0  1.070698  0
H  H25  1  0.26199603  0.58863135  0.22720646  1  0.123819  0  0.090648  0.065444  0  1.070749  0
H  H26  1  0.23798294  0.08859560  0.72722007  1  0.123595  0  0.090634  0.06535  0  1.070974  0
H  H27  1  0.73799364  0.41140793  0.77277852  1  0.123611  0  0.090649  0.065367  0  1.071099  0
H  H28  1  0.58284091  0.86791891  0.33445967  1  0.111205  0  0.095463  0.103949  0  1.051512  0
H  H29  1  0.08284144  0.63207880  0.16554197  1  0.111217  0  0.095483  0.103975  0  1.051475  0
H  H30  1  0.41716125  0.13206838  0.66556716  1  0.111584  0  0.095475  0.104131  0  1.051411  0
H  H31  1  0.91717072  0.36793296  0.83442999  1  0.111584  0  0.095501  0.104154  0  1.051396  0
H  H32  1  0.90602706  0.55264883  0.36322979  1  0.110087  0  0.090101  0.076041  0  1.049986  0
H  H33  1  0.40602692  0.94735141  0.13676614  1  0.110241  0  0.090039  0.075964  0  1.050167  0
H  H34  1  0.09397511  0.44735743  0.63676730  1  0.110139  0  0.090061  0.075981  0  1.050084  0
H  H35  1  0.59396900  0.05264071  0.86323414  1  0.110055  0  0.090133  0.076067  0  1.050111  0
H  H36  1  0.78697988  0.17640083  0.33975070  1  0.115  0  0.091838  0.069598  0  1.069884  0
H  H37  1  0.28698582  0.32359923  0.16025475  1  0.115022  0  0.091778  0.069617  0  1.069857  0
H  H38  1  0.21305352  0.82357512  0.66025634  1  0.114566  0  0.091841  0.06975  0  1.069959  0
H  H39  1  0.71305883  0.67642722  0.83974070  1  0.114622  0  0.09182  0.069736  0  1.069955  0
H  H40  1  0.25481903  0.71400831  0.45075643  1  0.098098  0  0.127541  0.054779  0  0.998098  0
H  H41  1  0.75482128  0.78599060  0.04924646  1  0.098384  0  0.12752  0.054748  0  0.998123  0
H  H42  1  0.74516565  0.28599912  0.54927731  1  0.097975  0  0.127555  0.054769  0  0.998006  0
H  H43  1  0.24515590  0.21400303  0.95072082  1  0.097948  0  0.127539  0.054749  0  0.998074  0
H  H44  1  0.04842209  0.68554431  0.40838829  1  0.102262  0  0.097643  0.103048  0  1.044765  0
H  H45  1  0.54841920  0.81445224  0.09160880  1  0.102257  0  0.097651  0.103073  0  1.044681  0
H  H46  1  0.95160007  0.31444982  0.59161524  1  0.101929  0  0.097616  0.102905  0  1.044836  0
H  H47  1  0.45159796  0.18554594  0.90838963  1  0.101897  0  0.097678  0.103028  0  1.044879  0
H  H48  1  0.45646923  0.68946851  0.36468906  1  0.086053  0  0.09625  0.061426  0  1.059842  0
H  H49  1  0.95647677  0.81052876  0.13531620  1  0.085793  0  0.096249  0.061378  0  1.059884  0
H  H50  1  0.54353669  0.31053696  0.63533255  1  0.085792  0  0.096242  0.061468  0  1.05987  0
H  H51  1  0.04352040  0.18946078  0.86466165  1  0.085894  0  0.096152  0.061332  0  1.059971  0
H  H52  1  0.96112307  0.27622779  0.43455272  1  0.108142  0  0.094728  0.107932  0  1.045143  0
H  H53  1  0.46113743  0.22376810  0.06544940  1  0.108298  0  0.094701  0.107951  0  1.045241  0
H  H54  1  0.03887035  0.72378307  0.56546697  1  0.107448  0  0.094726  0.108089  0  1.045267  0
H  H55  1  0.53887223  0.77621945  0.93452383  1  0.107615  0  0.094684  0.108062  0  1.045284  0
H  H56  1  0.11277647  0.37294581  0.38682784  1  0.122656  0  0.087613  0.060766  0  1.079937  0
H  H57  1  0.61278948  0.12705575  0.11317662  1  0.122688  0  0.087617  0.060811  0  1.079909  0
H  H58  1  0.88718197  0.62707047  0.61318448  1  0.123261  0  0.087544  0.06082  0  1.080022  0
H  H59  1  0.38718021  0.87292974  0.88680566  1  0.123429  0  0.087582  0.060828  0  1.07996  0
H  H60  1  0.57856473  0.82562532  0.41264855  1  0.148621  0  0.111144  0.118338  0  1.065336  0
H  H61  1  0.07857512  0.67437105  0.08735741  1  0.148449  0  0.111153  0.118387  0  1.065291  0
H  H62  1  0.42143994  0.17436871  0.58737477  1  0.148045  0  0.111123  0.118554  0  1.064969  0
H  H63  1  0.92142705  0.32562926  0.91262105  1  0.148244  0  0.111043  0.118435  0  1.065162  0
H  H64  1  0.25520295  0.05232482  0.36750433  1  0.135805  0  0.103242  0.116712  0  1.030409  0
H  H65  1  0.75519437  0.44767809  0.13249897  1  0.135803  0  0.103274  0.116764  0  1.030298  0
H  H66  1  0.74481546  0.94769342  0.63251943  1  0.089263  0  0.103465  0.11704  0  1.030575  0
H  H67  1  0.24481030  0.55230609  0.86747534  1  0.089296  0  0.103449  0.117039  0  1.030522  0
H  H68  1  0.39334754  0.15744061  0.32171065  1  0.115979  0  0.095801  0.07681  0  1.047609  0
H  H69  1  0.89333990  0.34256366  0.17829422  1  0.115724  0  0.095788  0.076754  0  1.047657  0
H  H70  1  0.60662339  0.84257297  0.67830211  1  0.115335  0  0.095727  0.076778  0  1.047622  0
H  H71  1  0.10661854  0.65742852  0.82169480  1  0.11521  0  0.095769  0.076818  0  1.047737  0
H  H72  1  0.51579254  0.52865017  0.46937004  1  0.07276  0  0.095002  0.117369  0  1.039783  0
H  H73  1  0.01579611  0.97134919  0.03063411  1  0.072585  0  0.094985  0.11732  0  1.03984  0
H  H74  1  0.48419839  0.47136531  0.53066885  1  0.072732  0  0.09493  0.117247  0  1.039854  0
H  H75  1  0.98419732  0.02863772  0.96933088  1  0.072755  0  0.094943  0.117253  0  1.039856  0
H  H76  1  0.30194978  0.55489521  0.46088830  1  0.085657  0  0.082711  0.09932  0  1.070452  0
H  H77  1  0.80195046  0.94510752  0.03911290  1  0.085664  0  0.08272  0.099339  0  1.070448  0
H  H78  1  0.69805989  0.44512977  0.53913298  1  0.08517  0  0.08274  0.099265  0  1.07049  0
H  H79  1  0.19805546  0.05487328  0.96086520  1  0.085278  0  0.082738  0.099294  0  1.070467  0
H  H80  1  0.45649297  0.56931629  0.41860085  1  0.065035  0  0.08337  0.100509  0  1.078682  0
H  H81  1  0.95648801  0.93068369  0.08140157  1  0.064894  0  0.083386  0.100585  0  1.078723  0
H  H82  1  0.54356292  0.43068981  0.58143037  1  0.063888  0  0.083398  0.100513  0  1.07861  0
H  H83  1  0.04355414  0.06931194  0.91856896  1  0.064317  0  0.083431  0.100574  0  1.078685  0
H  H84  1  0.67388009  0.62426183  0.51316878  1  0.081277  0  0.095325  0.112903  0  1.039671  0
H  H85  1  0.17387411  0.87573865  0.98683286  1  0.080942  0  0.095301  0.112863  0  1.039668  0
H  H86  1  0.32614582  0.37575372  0.48685338  1  0.080645  0  0.095308  0.112857  0  1.039733  0
H  H87  1  0.82614305  0.12424955  0.01314590  1  0.080657  0  0.095342  0.112913  0  1.039746  0
H  H88  1  0.69264337  0.73265597  0.49683852  1  0.065936  0  0.103897  0.125219  0  0.997636  0
H  H89  1  0.19264521  0.76734325  0.00316264  1  0.06593  0  0.103896  0.125244  0  0.997551  0
H  H90  1  0.30739254  0.26735760  0.50317765  1  0.066273  0  0.104025  0.12533  0  0.997822  0
H  H91  1  0.80738819  0.23264760  0.99682318  1  0.066188  0  0.104027  0.125326  0  0.997777  0
H  H92  1  0.56723991  0.71924051  0.54541392  1  0.069503  0  0.099617  0.121258  0  1.005066  0
H  H93  1  0.06723655  0.78076048  0.95458804  1  0.069529  0  0.099627  0.121275  0  1.004991  0
H  H94  1  0.43280474  0.28078647  0.45461095  1  0.069203  0  0.099628  0.12129  0  1.005133  0
H  H95  1  0.93280310  0.21921562  0.04538897  1  0.06932  0  0.099618  0.121278  0  1.005153  0
C  C96  1  0.48343138  0.97910710  0.41509097  1  1.531688  0  0.222356  0.600126  0  4.171953  0
C  C97  1  0.98343098  0.52089208  0.08491106  1  1.531646  0  0.222506  0.600424  0  4.171764  0
C  C98  1  0.51656829  0.02089300  0.58492777  1  1.531573  0  0.222572  0.600417  0  4.171978  0
C  C99  1  0.01656994  0.47910417  0.91507114  1  1.532079  0  0.222732  0.60058  0  4.172039  0
C  C100  1  0.10052128  0.15672073  0.40578693  1  -0.014453  0  0.004888  0.014494  0  3.904369  0
C  C101  1  0.60051792  0.34327955  0.09421604  1  -0.014237  0  0.004905  0.01462  0  3.904297  0
C  C102  1  0.89949339  0.84329214  0.59423431  1  -0.011774  0  0.004716  0.014804  0  3.904318  0
C  C103  1  0.39949799  0.65670932  0.90576209  1  -0.011633  0  0.004918  0.01492  0  3.904078  0
C  C104  1  0.58618831  0.00187915  0.37600244  1  -0.048907  0  0.003754  0.004929  0  3.920128  0
C  C105  1  0.08618970  0.49811918  0.12400103  1  -0.049006  0  0.003753  0.004953  0  3.919942  0
C  C106  1  0.41382135  0.99811155  0.62401547  1  -0.048722  0  0.003828  0.004825  0  3.920532  0
C  C107  1  0.91382871  0.50188782  0.87598212  1  -0.047839  0  0.003814  0.004749  0  3.920433  0
C  C108  1  0.64506300  0.08949314  0.37696039  1  -0.027213  0  -0.069819  -0.113775  0  3.923858  0
C  C109  1  0.14506464  0.41050357  0.12304263  1  -0.02624  0  -0.069819  -0.113832  0  3.923622  0
C  C110  1  0.35496915  0.91049018  0.62305243  1  -0.026481  0  -0.069939  -0.113697  0  3.923928  0
C  C111  1  0.85496877  0.58951013  0.87694589  1  -0.027276  0  -0.069923  -0.113706  0  3.923824  0
C  C112  1  0.02458520  0.09809267  0.43683158  1  1.611633  0  0.241636  0.663027  0  4.131245  0
C  C113  1  0.52458808  0.40190529  0.06316976  1  1.611487  0  0.241673  0.663053  0  4.130876  0
C  C114  1  0.97543071  0.90192558  0.56319047  1  1.608433  0  0.241478  0.662894  0  4.131022  0
C  C115  1  0.47542284  0.59807081  0.93680553  1  1.608757  0  0.241458  0.663021  0  4.131182  0
C  C116  1  0.72686059  0.96089417  0.30278860  1  0.463052  0  0.032311  0.086429  0  3.919421  0
C  C117  1  0.22686048  0.53910420  0.19721286  1  0.46304  0  0.032411  0.086686  0  3.919498  0
C  C118  1  0.27313783  0.03908780  0.69722513  1  0.461357  0  0.032392  0.086907  0  3.919082  0
C  C119  1  0.77314918  0.46091490  0.80277136  1  0.461377  0  0.032328  0.086783  0  3.9194  0
C  C120  1  0.82507716  0.76811618  0.41465361  1  -0.039837  0  -0.001435  -0.000719  0  3.912389  0
C  C121  1  0.32508655  0.73188039  0.08534809  1  -0.039401  0  -0.001369  -0.000566  0  3.912189  0
C  C122  1  0.17492501  0.23188125  0.58536250  1  -0.036184  0  -0.001318  -0.000532  0  3.912349  0
C  C123  1  0.67491687  0.26811450  0.91463741  1  -0.036564  0  -0.001281  -0.000496  0  3.912444  0
C  C124  1  0.62642623  0.93697856  0.33751171  1  0.001224  0  -0.082131  -0.131951  0  3.932394  0
C  C125  1  0.12642417  0.56302029  0.16249109  1  0.001235  0  -0.082283  -0.132231  0  3.932467  0
C  C126  1  0.37357594  0.06300406  0.66250788  1  0.00236  0  -0.082112  -0.132213  0  3.932631  0
C  C127  1  0.87358675  0.43699749  0.83748925  1  0.001893  0  -0.082184  -0.132228  0  3.932667  0
C  C128  1  0.83764905  0.61491104  0.37460200  1  0.446072  0  0.028171  0.081275  0  3.932986  0
C  C129  1  0.33765364  0.88508817  0.12539789  1  0.445932  0  0.028208  0.081366  0  3.933367  0
C  C130  1  0.16235562  0.38509452  0.62540220  1  0.445507  0  0.02804  0.081113  0  3.933163  0
C  C131  1  0.66234853  0.11490263  0.87459817  1  0.456464  0  0.028007  0.08101  0  3.933518  0
C  C132  1  0.74148541  0.10849765  0.34034402  1  0.486035  0  0.036238  0.085302  0  3.897289  0
C  C133  1  0.24148893  0.39150330  0.15966114  1  0.485706  0  0.036224  0.085124  0  3.897122  0
C  C134  1  0.25854050  0.89148097  0.65966702  1  0.486511  0  0.036215  0.084988  0  3.89745  0
C  C135  1  0.75854822  0.60852249  0.84033084  1  0.486808  0  0.036216  0.085028  0  3.897443  0
C  C136  1  0.36433844  0.73323282  0.47306948  1  1.400366  0  0.189791  0.335534  0  4.063666  0
C  C137  1  0.86433959  0.76676624  0.02693281  1  1.400006  0  0.189777  0.335448  0  4.063808  0
C  C138  1  0.63566747  0.26677394  0.52696215  1  1.399408  0  0.189863  0.335644  0  4.064194  0
C  C139  1  0.13566133  0.23322805  0.97303693  1  1.399541  0  0.189904  0.335665  0  4.064304  0
C  C140  1  0.91661139  0.68951122  0.40007127  1  -0.011518  0  -0.08514  -0.140669  0  3.978076  0
C  C141  1  0.41661206  0.81048762  0.09992761  1  -0.012071  0  -0.085155  -0.140761  0  3.977986  0
C  C142  1  0.08339702  0.31049096  0.59993638  1  -0.013286  0  -0.085029  -0.140386  0  3.977692  0
C  C143  1  0.58339011  0.18950588  0.90006562  1  -0.023842  0  -0.085147  -0.14062  0  3.978101  0
C  C144  1  0.58733189  0.69109086  0.37547321  1  0.443927  0  0.033527  0.081592  0  3.921603  0
C  C145  1  0.08733903  0.80890749  0.12453089  1  0.444158  0  0.033466  0.081583  0  3.921602  0
C  C146  1  0.41266778  0.30891665  0.62454346  1  0.443505  0  0.033634  0.081643  0  3.921211  0
C  C147  1  0.91265689  0.19108069  0.87545196  1  0.443911  0  0.033666  0.081633  0  3.921295  0
C  C148  1  0.05720326  0.24749607  0.41016131  1  -0.04349  0  -0.085308  -0.138983  0  3.947197  0
C  C149  1  0.55721267  0.25250241  0.08984045  1  -0.043533  0  -0.085306  -0.13905  0  3.947164  0
C  C150  1  0.94279267  0.75251011  0.58985285  1  -0.042  0  -0.085266  -0.13937  0  3.947579  0
C  C151  1  0.44279700  0.74749183  0.91014055  1  -0.042087  0  -0.085285  -0.139364  0  3.947647  0
C  C152  1  0.14139327  0.30155627  0.38377928  1  0.477363  0  0.029012  0.085151  0  3.930397  0
C  C153  1  0.64139883  0.19844449  0.11622478  1  0.477169  0  0.029013  0.085143  0  3.930283  0
C  C154  1  0.85858016  0.69845396  0.61623216  1  0.476734  0  0.029148  0.085259  0  3.930495  0
C  C155  1  0.35857710  0.80154367  0.88376081  1  0.476723  0  0.029036  0.085149  0  3.930766  0
C  C156  1  0.65688210  0.76747954  0.40159468  1  -0.01183  0  -0.082955  -0.132571  0  3.936024  0
C  C157  1  0.15689158  0.73251444  0.09840941  1  -0.011455  0  -0.083005  -0.132584  0  3.935652  0
C  C158  1  0.34311008  0.23251989  0.59842468  1  -0.010797  0  -0.083067  -0.132908  0  3.935826  0
C  C159  1  0.84309809  0.26747710  0.90157169  1  -0.010764  0  -0.082977  -0.132664  0  3.935931  0
C  C160  1  0.90028859  0.85115258  0.44374867  1  1.609769  0  0.235614  0.649879  0  4.134316  0
C  C161  1  0.40029417  0.64884431  0.05625242  1  1.609731  0  0.235626  0.649886  0  4.134485  0
C  C162  1  0.09972607  0.14883808  0.55627641  1  1.608709  0  0.235465  0.649737  0  4.134629  0
C  C163  1  0.59971925  0.35116072  0.94372304  1  1.608784  0  0.2355  0.649786  0  4.134627  0
C  C164  1  0.22232678  0.12325317  0.37327494  1  -0.069613  0  -0.080578  -0.127489  0  3.923305  0
C  C165  1  0.72232312  0.37674654  0.12672874  1  -0.070951  0  -0.080565  -0.127591  0  3.923425  0
C  C166  1  0.77767414  0.87676377  0.62674119  1  -0.024856  0  -0.080733  -0.128243  0  3.924403  0
C  C167  1  0.27767530  0.62323694  0.87325131  1  -0.024761  0  -0.080742  -0.12834  0  3.92449  0
C  C168  1  0.29910376  0.18137090  0.34771080  1  0.467852  0  0.030288  0.081764  0  3.936617  0
C  C169  1  0.79910131  0.31863381  0.15229371  1  0.469162  0  0.030326  0.081835  0  3.936805  0
C  C170  1  0.70087467  0.81864135  0.65230013  1  0.4708  0  0.030552  0.082152  0  3.936675  0
C  C171  1  0.20087337  0.68135836  0.84769565  1  0.470642  0  0.030519  0.082134  0  3.937176  0
C  C172  1  0.43147530  0.57490775  0.45582153  1  0.214022  0  -0.151521  -0.289404  0  3.89862  0
C  C173  1  0.93147637  0.92509234  0.04418089  1  0.214336  0  -0.151585  -0.28948  0  3.898787  0
C  C174  1  0.56854561  0.42510978  0.54420934  1  0.216034  0  -0.151633  -0.289066  0  3.898512  0
C  C175  1  0.06853955  0.07489320  0.95578943  1  0.215447  0  -0.151656  -0.289145  0  3.898798  0
C  C176  1  0.60764483  0.68667396  0.51077811  1  0.248241  0  -0.137118  -0.264022  0  3.870006  0
C  C177  1  0.10764120  0.81332616  0.98922380  1  0.248687  0  -0.137059  -0.263947  0  3.86977  0
C  C178  1  0.39237483  0.31334026  0.48924154  1  0.248213  0  -0.137364  -0.264171  0  3.870182  0
C  C179  1  0.89237222  0.18666337  0.01075781  1  0.248149  0  -0.137373  -0.264197  0  3.870233  0
I  I180  1  0.66366367  0.37096457  0.37538757  1  -0.314742  0  -0.116232  -0.17652  0  2.134367  0
I  I181  1  0.16367141  0.12903675  0.12461758  1  -0.314835  0  -0.116242  -0.176555  0  2.134311  0
I  I182  1  0.33631476  0.62904103  0.62460843  1  -0.314552  0  -0.116238  -0.176562  0  2.134144  0
I  I183  1  0.83630203  0.87096140  0.87538802  1  -0.314534  0  -0.116226  -0.176538  0  2.134164  0
I  I184  1  0.45619014  0.24441253  0.23598740  1  -0.324515  0  -0.134863  -0.186703  0  2.513194  0
I  I185  1  0.95619345  0.25559279  0.26401726  1  -0.324416  0  -0.134844  -0.186733  0  2.513305  0
I  I186  1  0.54374206  0.75561252  0.76401749  1  -0.324661  0  -0.134784  -0.186697  0  2.513257  0
I  I187  1  0.04374375  0.74438524  0.73597699  1  -0.324648  0  -0.134762  -0.186676  0  2.513196  0
I  I188  1  0.73393996  0.50039753  0.24673534  1  -0.338225  0  -0.162539  -0.23683  0  2.212519  0
I  I189  1  0.23393991  0.99960147  0.25326788  1  -0.33819  0  -0.162514  -0.236772  0  2.212587  0
I  I190  1  0.26606346  0.49959256  0.75326681  1  -0.338192  0  -0.162506  -0.236766  0  2.212596  0
I  I191  1  0.76604977  0.00040546  0.74673097  1  -0.338133  0  -0.162556  -0.236841  0  2.212647  0
I  I192  1  0.24114125  0.50916529  0.32319180  1  -0.371853  0  -0.161525  -0.250175  0  2.01548  0
I  I193  1  0.74113605  0.99084445  0.17681066  1  -0.371786  0  -0.161468  -0.250118  0  2.015518  0
I  I194  1  0.75886341  0.49083696  0.67680015  1  -0.371688  0  -0.161497  -0.250193  0  2.015011  0
I  I195  1  0.25885612  0.00915909  0.82319404  1  -0.371797  0  -0.161496  -0.250188  0  2.014982  0
I  I196  1  0.31814248  0.32229060  0.83429203  1  0.044006  0  0.074479  0.079831  0  1.802303  0
I  I197  1  0.81813382  0.17770449  0.66570382  1  0.043969  0  0.074513  0.079873  0  1.802333  0
I  I198  1  0.68185719  0.67768886  0.16568561  1  0.043849  0  0.07441  0.079738  0  1.80218  0
I  I199  1  0.18183961  0.82231714  0.33431375  1  0.043822  0  0.074391  0.07971  0  1.802192  0
I  I200  1  0.53450314  0.23185854  0.77068802  1  -0.058115  0  -0.003245  -0.063103  0  1.707885  0
I  I201  1  0.03448937  0.26814799  0.72930559  1  -0.057983  0  -0.003265  -0.063129  0  1.707851  0
I  I202  1  0.46552152  0.76816939  0.22927922  1  -0.057917  0  -0.003261  -0.063133  0  1.70772  0
I  I203  1  0.96551155  0.73183998  0.27071926  1  -0.057863  0  -0.00326  -0.063151  0  1.707834  0
I  I204  1  0.60191552  0.97137659  0.95969506  1  -0.173448  0  -0.040217  -0.128467  0  1.74939  0
I  I205  1  0.10192553  0.52861683  0.54030625  1  -0.173441  0  -0.040179  -0.128417  0  1.749387  0
I  I206  1  0.39804167  0.02860810  0.04031241  1  -0.172274  0  -0.040222  -0.128501  0  1.749462  0
I  I207  1  0.89804166  0.47139481  0.45969166  1  -0.172275  0  -0.040194  -0.128449  0  1.749466  0
N  N208  1  0.26224669  0.26968496  0.35327231  1  -1.256576  0  -0.364996  -0.167308  0  3.635395  0
N  N209  1  0.76225195  0.23031926  0.14673179  1  -1.25642  0  -0.365038  -0.167334  0  3.635286  0
N  N210  1  0.73771925  0.73032463  0.64673361  1  -1.257753  0  -0.365282  -0.1676  0  3.635194  0
N  N211  1  0.23771523  0.76967424  0.85326144  1  -1.258272  0  -0.365233  -0.167415  0  3.635237  0
N  N212  1  0.78473309  0.04531062  0.30393156  1  -1.240088  0  -0.354483  -0.150603  0  3.59323  0
N  N213  1  0.28473083  0.45469215  0.19607311  1  -1.240568  0  -0.354362  -0.15039  0  3.593144  0
N  N214  1  0.21526533  0.95466667  0.69607799  1  -1.240625  0  -0.354507  -0.150729  0  3.592944  0
N  N215  1  0.71527633  0.54533633  0.80391980  1  -1.241151  0  -0.35443  -0.150679  0  3.592778  0
N  N216  1  0.67491409  0.61464518  0.36260173  1  -1.226882  0  -0.361629  -0.164827  0  3.623406  0
N  N217  1  0.17492003  0.88535478  0.13740051  1  -1.226841  0  -0.36158  -0.16492  0  3.623632  0
N  N218  1  0.32508433  0.38536842  0.63740898  1  -1.226508  0  -0.361595  -0.16497  0  3.623446  0
N  N219  1  0.82506715  0.11462932  0.86258881  1  -1.227072  0  -0.361535  -0.164766  0  3.623483  0
N  N220  1  0.46242355  0.66609324  0.48056528  1  -1.212073  0  -0.273131  0.038452  0  3.680511  0
N  N221  1  0.96242223  0.83390670  0.01943748  1  -1.212156  0  -0.273116  0.038499  0  3.680555  0
N  N222  1  0.53759361  0.33391960  0.51946176  1  -1.211091  0  -0.272861  0.038258  0  3.680226  0
N  N223  1  0.03758868  0.16608353  0.98053701  1  -1.211085  0  -0.272896  0.038239  0  3.68043  0
O  O224  1  0.50519147  0.02323628  0.45626195  1  -1.19618  0  -0.40479  -0.718241  0  2.352997  0
O  O225  1  0.00519756  0.47676781  0.04374061  1  -1.196066  0  -0.404905  -0.718425  0  2.35305  0
O  O226  1  0.49480945  0.97676720  0.54375367  1  -1.195862  0  -0.405115  -0.718609  0  2.352914  0
O  O227  1  0.99480336  0.52322842  0.95624501  1  -1.196268  0  -0.405229  -0.718732  0  2.353  0
O  O228  1  0.05507545  0.84913739  0.45315990  1  -1.184785  0  -0.383411  -0.662996  0  2.326351  0
O  O229  1  0.55508125  0.65085911  0.04684231  1  -1.184928  0  -0.383434  -0.663004  0  2.326372  0
O  O230  1  0.94493671  0.15085462  0.54686394  1  -1.184627  0  -0.383464  -0.662968  0  2.326163  0
O  O231  1  0.44492966  0.34914724  0.95313669  1  -1.184722  0  -0.383516  -0.663013  0  2.326199  0
O  O232  1  0.11664667  0.03629922  0.44762376  1  -1.205001  0  -0.41783  -0.70468  0  2.407961  0
O  O233  1  0.61664964  0.46369696  0.05237613  1  -1.204878  0  -0.417793  -0.704658  0  2.407767  0
O  O234  1  0.88335175  0.96372035  0.55240149  1  -1.204498  0  -0.417713  -0.70457  0  2.407852  0
O  O235  1  0.38333504  0.53628522  0.94759561  1  -1.204752  0  -0.417788  -0.704725  0  2.407948  0
O  O236  1  0.87682274  0.11435287  0.45129015  1  -1.179155  0  -0.379637  -0.641574  0  2.309918  0
O  O237  1  0.37682294  0.38564881  0.04871073  1  -1.179119  0  -0.379708  -0.641698  0  2.30976  0
O  O238  1  0.12317318  0.88566538  0.54873156  1  -1.179398  0  -0.379514  -0.641372  0  2.310018  0
O  O239  1  0.62316799  0.61433132  0.95126766  1  -1.179246  0  -0.379506  -0.641417  0  2.30991  0
O  O240  1  0.37392114  0.91722695  0.40820232  1  -1.156384  0  -0.325364  -0.553262  0  2.274297  0
O  O241  1  0.87392099  0.58277140  0.09179991  1  -1.156467  0  -0.325362  -0.553331  0  2.274266  0
O  O242  1  0.62606728  0.08278257  0.59181554  1  -1.156562  0  -0.325334  -0.553279  0  2.274518  0
O  O243  1  0.12606744  0.41721475  0.90818379  1  -1.156637  0  -0.325383  -0.553318  0  2.274609  0
O  O244  1  0.39310146  0.81401588  0.48999243  1  -1.172011  0  -0.379335  -0.553782  0  2.390119  0
O  O245  1  0.89310010  0.68598507  0.01000902  1  -1.171978  0  -0.379309  -0.553702  0  2.390149  0
O  O246  1  0.60690321  0.18600302  0.51003412  1  -1.171472  0  -0.379432  -0.553699  0  2.390263  0
O  O247  1  0.10690082  0.31399978  0.98996637  1  -1.171553  0  -0.379432  -0.553698  0  2.390284  0
O  O248  1  0.80171755  0.91672350  0.45697054  1  -1.206337  0  -0.387754  -0.675794  0  2.312054  0
O  O249  1  0.30172789  0.58327587  0.04302934  1  -1.206325  0  -0.387748  -0.675828  0  2.312111  0
O  O250  1  0.19828587  0.08326981  0.54306092  1  -1.206391  0  -0.387615  -0.675789  0  2.312673  0
O  O251  1  0.69828178  0.41672919  0.95693827  1  -1.206357  0  -0.387605  -0.675776  0  2.312623  0
