# generated using pymatgen
data_ZnH30C28N4O5
_symmetry_space_group_name_H-M   'P 1'
_cell_length_a   10.64989662
_cell_length_b   10.64986867
_cell_length_c   13.69071646
_cell_angle_alpha   104.81345458
_cell_angle_beta   104.81356254
_cell_angle_gamma   108.00568913
_symmetry_Int_Tables_number   1
_chemical_formula_structural   ZnH30C28N4O5
_chemical_formula_sum   'Zn2 H60 C56 N8 O10'
_cell_volume   1329.70863538
_cell_formula_units_Z   2
loop_
 _symmetry_equiv_pos_site_id
 _symmetry_equiv_pos_as_xyz
  1  'x, y, z'
loop_
 _atom_site_type_symbol
 _atom_site_label
 _atom_site_symmetry_multiplicity
 _atom_site_fract_x
 _atom_site_fract_y
 _atom_site_fract_z
 _atom_site_occupancy
 _atom_site_hle17_bader_spin_density
 _atom_site_hle17_ddec_charge
 _atom_site_hle17_ddec_spin_density
 _atom_site_hle17_ddec_sum_bond_order
 _atom_site_hle17_magmom
 _atom_site_hse06_10hf_bader_spin_density
 _atom_site_hse06_10hf_ddec_charge
 _atom_site_hse06_10hf_ddec_spin_density
 _atom_site_hse06_10hf_ddec_sum_bond_order
 _atom_site_hse06_10hf_magmom
 _atom_site_hse06_bader_spin_density
 _atom_site_hse06_ddec_charge
 _atom_site_hse06_ddec_spin_density
 _atom_site_hse06_ddec_sum_bond_order
 _atom_site_hse06_magmom
 _atom_site_pbe_bader_spin_density
 _atom_site_pbe_cm5_charge
 _atom_site_pbe_ddec_charge
 _atom_site_pbe_ddec_spin_density
 _atom_site_pbe_ddec_sum_bond_order
 _atom_site_pbe_magmom
Zn  Zn0  1  0.64505780  0.35494385  0.75000018  1  0  0.989535  0  1.86026  0  0  0.804829  0  2.320743  0  0  0.854835  0  2.266626  0  0  0.677961  0.769605  0  2.358191  0
Zn  Zn1  1  0.35494360  0.64505746  0.25000035  1  0  0.989513  0  1.860259  0  0  0.804817  0  2.32074  0  0  0.854803  0  2.266616  0  0  0.677958  0.769591  0  2.358178  0
H  H2  1  0.69545204  0.06167414  0.00669667  1  0  0.114301  0  0.965651  0  0  0.123277  0  1.028656  0  0  0.125806  0  1.028047  0  0  0.119902  0.12133  0  1.029248  0
H  H3  1  0.93832569  0.30454638  0.49330124  1  0  0.114316  0  0.965568  0  0  0.123238  0  1.028633  0  0  0.125769  0  1.028023  0  0  0.119892  0.121296  0  1.029224  0
H  H4  1  0.30454741  0.93832717  0.99330275  1  0  0.114344  0  0.965578  0  0  0.123276  0  1.028629  0  0  0.125806  0  1.02802  0  0  0.1199  0.121335  0  1.029217  0
H  H5  1  0.06167486  0.69545282  0.50669725  1  0  0.114289  0  0.965665  0  0  0.12326  0  1.028675  0  0  0.125789  0  1.028066  0  0  0.119896  0.121317  0  1.029269  0
H  H6  1  0.68725086  0.31422642  0.98665219  1  0  0.099413  0  0.967402  0  0  0.109054  0  1.030116  0  0  0.111452  0  1.029065  0  0  0.116589  0.107134  0  1.0313  0
H  H7  1  0.68576992  0.31274679  0.51334494  1  0  0.099424  0  0.967339  0  0  0.109053  0  1.030079  0  0  0.111453  0  1.029025  0  0  0.116592  0.107138  0  1.031263  0
H  H8  1  0.31274914  0.68577383  0.01334712  1  0  0.099439  0  0.967398  0  0  0.109077  0  1.030112  0  0  0.111476  0  1.029062  0  0  0.116604  0.107164  0  1.031298  0
H  H9  1  0.31422911  0.68725347  0.48665418  1  0  0.099441  0  0.967343  0  0  0.109075  0  1.030071  0  0  0.111475  0  1.029018  0  0  0.116599  0.107158  0  1.031257  0
H  H10  1  0.20620384  0.05948049  0.51916476  1  0  0.102034  0  0.944422  0  0  0.111137  0  1.004845  0  0  0.114881  0  1.001939  0  0  0.104704  0.108493  0  1.006823  0
H  H11  1  0.94051929  0.79379456  0.98083518  1  0  0.101999  0  0.944424  0  0  0.111118  0  1.00483  0  0  0.11486  0  1.001928  0  0  0.104701  0.108475  0  1.006805  0
H  H12  1  0.79379574  0.94051870  0.48083572  1  0  0.101982  0  0.944437  0  0  0.111097  0  1.004854  0  0  0.11484  0  1.00195  0  0  0.104685  0.108458  0  1.006826  0
H  H13  1  0.05948223  0.20620464  0.01916423  1  0  0.101977  0  0.944455  0  0  0.11109  0  1.004868  0  0  0.114837  0  1.001962  0  0  0.104684  0.108448  0  1.006837  0
H  H14  1  0.96925414  0.96822513  0.37027234  1  0  0.109829  0  0.960489  0  0  0.120364  0  1.022049  0  0  0.123346  0  1.021683  0  0  0.103872  0.118179  0  1.022613  0
H  H15  1  0.03177800  0.03074377  0.12972770  1  0  0.109823  0  0.960489  0  0  0.120363  0  1.022045  0  0  0.123344  0  1.021678  0  0  0.10388  0.118179  0  1.022601  0
H  H16  1  0.03074490  0.03177513  0.62972898  1  0  0.109809  0  0.96048  0  0  0.120341  0  1.022053  0  0  0.123322  0  1.021686  0  0  0.103869  0.118159  0  1.022614  0
H  H17  1  0.96822449  0.96925542  0.87027117  1  0  0.109803  0  0.960488  0  0  0.120336  0  1.022059  0  0  0.123319  0  1.021691  0  0  0.103871  0.118154  0  1.022619  0
H  H18  1  0.10392793  0.35113570  0.30189254  1  0  0.124901  0  0.938912  0  0  0.134402  0  0.997985  0  0  0.138293  0  0.99609  0  0  0.109129  0.131755  0  0.999244  0
H  H19  1  0.64886752  0.89607353  0.19810798  1  0  0.12489  0  0.938953  0  0  0.134425  0  0.997989  0  0  0.138315  0  0.996093  0  0  0.109148  0.131784  0  0.999247  0
H  H20  1  0.89607110  0.64886456  0.69810877  1  0  0.124903  0  0.93892  0  0  0.134417  0  0.997978  0  0  0.138307  0  0.996082  0  0  0.109141  0.131773  0  0.999238  0
H  H21  1  0.35113582  0.10392778  0.80189221  1  0  0.124927  0  0.938887  0  0  0.134434  0  0.997953  0  0  0.138326  0  0.996056  0  0  0.109143  0.131792  0  0.999208  0
H  H22  1  0.72341318  0.85355895  0.76678672  1  0  0.068428  0  0.933395  0  0  0.084369  0  0.997186  0  0  0.083969  0  0.998544  0  0  0.106885  0.084641  0  0.99612  0
H  H23  1  0.14643860  0.27658677  0.73321355  1  0  0.06845  0  0.933355  0  0  0.084379  0  0.997151  0  0  0.08398  0  0.998506  0  0  0.106899  0.084661  0  0.996077  0
H  H24  1  0.27658597  0.14643918  0.23321420  1  0  0.068508  0  0.933294  0  0  0.084421  0  0.997123  0  0  0.084023  0  0.99848  0  0  0.106909  0.084697  0  0.996045  0
H  H25  1  0.85356183  0.72341455  0.26678752  1  0  0.068463  0  0.933354  0  0  0.084385  0  0.997155  0  0  0.083985  0  0.998513  0  0  0.106895  0.084659  0  0.996085  0
H  H26  1  0.68746134  0.84798476  0.88522528  1  0  0.068669  0  0.966622  0  0  0.083651  0  1.031788  0  0  0.083287  0  1.033826  0  0  0.106926  0.083765  0  1.030417  0
H  H27  1  0.15201413  0.31253750  0.61477501  1  0  0.068666  0  0.966611  0  0  0.083641  0  1.031773  0  0  0.083276  0  1.033811  0  0  0.106917  0.083759  0  1.030402  0
H  H28  1  0.31253532  0.15201443  0.11477463  1  0  0.068682  0  0.966642  0  0  0.08367  0  1.031804  0  0  0.083307  0  1.033843  0  0  0.106931  0.083782  0  1.030431  0
H  H29  1  0.84798685  0.68746276  0.38522596  1  0  0.068682  0  0.966577  0  0  0.083659  0  1.031734  0  0  0.083295  0  1.03377  0  0  0.106918  0.083773  0  1.030365  0
H  H30  1  0.34047216  0.44030015  0.45005918  1  0  0.122852  0  0.97293  0  0  0.127562  0  1.040474  0  0  0.131551  0  1.037208  0  0  0.107655  0.124612  0  1.043058  0
H  H31  1  0.55970149  0.65952935  0.04994118  1  0  0.12283  0  0.972996  0  0  0.127596  0  1.040473  0  0  0.131585  0  1.037208  0  0  0.107657  0.124645  0  1.043061  0
H  H32  1  0.65952687  0.55970010  0.54994141  1  0  0.122846  0  0.972943  0  0  0.127562  0  1.040479  0  0  0.13155  0  1.037213  0  0  0.107657  0.124616  0  1.043063  0
H  H33  1  0.44029991  0.34047196  0.95005935  1  0  0.122862  0  0.972921  0  0  0.127569  0  1.040465  0  0  0.131558  0  1.037201  0  0  0.107661  0.124623  0  1.043043  0
H  H34  1  0.67281675  0.96472414  0.62882390  1  0  0.12445  0  0.968328  0  0  0.141713  0  1.033491  0  0  0.142895  0  1.034719  0  0  0.094942  0.140836  0  1.032661  0
H  H35  1  0.03527531  0.32718282  0.87117432  1  0  0.124456  0  0.968318  0  0  0.141717  0  1.033477  0  0  0.1429  0  1.034705  0  0  0.094944  0.140843  0  1.032647  0
H  H36  1  0.32718228  0.03527612  0.37117522  1  0  0.12443  0  0.96833  0  0  0.141691  0  1.033493  0  0  0.142873  0  1.034722  0  0  0.094929  0.140813  0  1.032665  0
H  H37  1  0.96472512  0.67281849  0.12882529  1  0  0.124438  0  0.968334  0  0  0.141702  0  1.033494  0  0  0.142885  0  1.034722  0  0  0.094928  0.140825  0  1.032664  0
H  H38  1  0.59847138  0.08945270  0.60970816  1  0  0.136155  0  0.964438  0  0  0.155692  0  1.024018  0  0  0.157446  0  1.023812  0  0  0.102823  0.154526  0  1.023967  0
H  H39  1  0.91054534  0.40152986  0.89029089  1  0  0.136162  0  0.964405  0  0  0.155676  0  1.024009  0  0  0.157432  0  1.023803  0  0  0.102829  0.154515  0  1.023952  0
H  H40  1  0.40152777  0.91054543  0.39029130  1  0  0.136152  0  0.964421  0  0  0.155669  0  1.024022  0  0  0.157424  0  1.023816  0  0  0.102823  0.154503  0  1.023971  0
H  H41  1  0.08945272  0.59847040  0.10970804  1  0  0.136158  0  0.964436  0  0  0.155678  0  1.024034  0  0  0.157434  0  1.023828  0  0  0.102816  0.154512  0  1.023981  0
H  H42  1  0.49079398  0.92361460  0.60633901  1  0  0.124298  0  0.941897  0  0  0.144466  0  1.002835  0  0  0.14648  0  1.001812  0  0  0.099773  0.142993  0  1.003629  0
H  H43  1  0.07638514  0.50920953  0.89366065  1  0  0.124277  0  0.941906  0  0  0.144443  0  1.002841  0  0  0.146458  0  1.001817  0  0  0.099756  0.142973  0  1.003632  0
H  H44  1  0.50920797  0.07638565  0.39366216  1  0  0.124285  0  0.941892  0  0  0.144452  0  1.002826  0  0  0.146466  0  1.001802  0  0  0.099756  0.142979  0  1.003617  0
H  H45  1  0.92361474  0.49079285  0.10633979  1  0  0.124291  0  0.941924  0  0  0.144469  0  1.002843  0  0  0.146484  0  1.001819  0  0  0.099775  0.142996  0  1.003633  0
H  H46  1  0.47288846  0.73912285  0.65380930  1  0  0.058782  0  0.953666  0  0  0.078651  0  1.014337  0  0  0.078837  0  1.01524  0  0  0.087597  0.078428  0  1.013919  0
H  H47  1  0.26087837  0.52711117  0.84619005  1  0  0.058799  0  0.953677  0  0  0.07868  0  1.014333  0  0  0.078874  0  1.015241  0  0  0.087605  0.07846  0  1.013914  0
H  H48  1  0.52711099  0.26087847  0.34618939  1  0  0.058791  0  0.953669  0  0  0.078661  0  1.014338  0  0  0.078848  0  1.015242  0  0  0.087605  0.078438  0  1.01392  0
H  H49  1  0.73912163  0.47288908  0.15380927  1  0  0.058779  0  0.953678  0  0  0.078657  0  1.014346  0  0  0.07885  0  1.015253  0  0  0.087598  0.078437  0  1.013923  0
H  H50  1  0.51354051  0.64182328  0.73246027  1  0  0.097694  0  0.943247  0  0  0.116933  0  0.998927  0  0  0.117614  0  1.000034  0  0  0.100825  0.116444  0  0.998255  0
H  H51  1  0.35817750  0.48645840  0.76754043  1  0  0.097638  0  0.943277  0  0  0.116816  0  0.999056  0  0  0.117502  0  1.000174  0  0  0.100801  0.116329  0  0.99838  0
H  H52  1  0.48645938  0.35817910  0.26754090  1  0  0.09767  0  0.943249  0  0  0.116905  0  0.998949  0  0  0.117588  0  1.000057  0  0  0.10081  0.116417  0  0.998275  0
H  H53  1  0.64182390  0.51354291  0.23246010  1  0  0.097642  0  0.943295  0  0  0.116868  0  0.999016  0  0  0.117555  0  1.000128  0  0  0.100814  0.11638  0  0.998341  0
H  H54  1  0.36120474  0.84317756  0.77059443  1  0  0.060401  0  0.944041  0  0  0.075476  0  1.009575  0  0  0.07659  0  1.009463  0  0  0.083636  0.074741  0  1.009472  0
H  H55  1  0.15682528  0.63879721  0.72940695  1  0  0.060409  0  0.944062  0  0  0.075488  0  1.009586  0  0  0.076602  0  1.009473  0  0  0.08365  0.074755  0  1.009485  0
H  H56  1  0.63879430  0.15682270  0.22940542  1  0  0.060417  0  0.944042  0  0  0.07549  0  1.009583  0  0  0.076605  0  1.009471  0  0  0.083645  0.074758  0  1.009481  0
H  H57  1  0.84317472  0.36120304  0.27059383  1  0  0.060406  0  0.94402  0  0  0.075477  0  1.009556  0  0  0.076591  0  1.009442  0  0  0.083641  0.074746  0  1.00945  0
H  H58  1  0.42014243  0.77203622  0.86741319  1  0  0.057429  0  0.936011  0  0  0.07998  0  0.994553  0  0  0.079887  0  0.996308  0  0  0.08632  0.08001  0  0.993364  0
H  H59  1  0.22796396  0.57985846  0.63258758  1  0  0.057437  0  0.935982  0  0  0.07998  0  0.994539  0  0  0.079887  0  0.996293  0  0  0.086317  0.080011  0  0.993353  0
H  H60  1  0.57985661  0.22796404  0.13258740  1  0  0.05744  0  0.936001  0  0  0.079987  0  0.994546  0  0  0.079894  0  0.9963  0  0  0.086326  0.08002  0  0.993352  0
H  H61  1  0.77203465  0.42014073  0.36741198  1  0  0.057383  0  0.936011  0  0  0.079927  0  0.994565  0  0  0.079834  0  0.996318  0  0  0.086297  0.079945  0  0.993391  0
C  C62  1  0.02376873  0.15594571  0.32945861  1  0  0.263684  0  3.818279  0  0  0.254023  0  4.084588  0  0  0.264967  0  4.09985  0  0  0.079311  0.2468  0  4.073988  0
C  C63  1  0.84405627  0.97623265  0.17054103  1  0  0.263883  0  3.818039  0  0  0.25421  0  4.084365  0  0  0.265154  0  4.099627  0  0  0.079425  0.246982  0  4.073774  0
C  C64  1  0.97623127  0.84405455  0.67054217  1  0  0.263769  0  3.818264  0  0  0.254068  0  4.084623  0  0  0.26501  0  4.099888  0  0  0.079354  0.24684  0  4.074033  0
C  C65  1  0.15594567  0.02376761  0.82945867  1  0  0.263766  0  3.818202  0  0  0.254084  0  4.084535  0  0  0.265027  0  4.099799  0  0  0.079337  0.246851  0  4.073953  0
C  C66  1  0.63185765  0.07304038  0.76456726  1  0  0.373402  0  3.662734  0  0  0.353415  0  3.920412  0  0  0.369239  0  3.9348  0  0  0.220529  0.342806  0  3.910788  0
C  C67  1  0.92695966  0.36814506  0.73543326  1  0  0.373507  0  3.66268  0  0  0.353514  0  3.920372  0  0  0.369341  0  3.934758  0  0  0.220565  0.342907  0  3.910751  0
C  C68  1  0.36814514  0.92696199  0.23543376  1  0  0.373587  0  3.662613  0  0  0.353539  0  3.920368  0  0  0.369362  0  3.934757  0  0  0.220585  0.342935  0  3.910738  0
C  C69  1  0.07303980  0.63185625  0.26456689  1  0  0.37352  0  3.66271  0  0  0.35352  0  3.920413  0  0  0.369346  0  3.9348  0  0  0.220558  0.342912  0  3.910787  0
C  C70  1  0.42592532  0.31327765  0.58547667  1  0  0.61319  0  3.948242  0  0  0.56749  0  4.236708  0  0  0.601065  0  4.231064  0  0  0.189936  0.544495  0  4.24028  0
C  C71  1  0.68672123  0.57407335  0.91452239  1  0  0.613013  0  3.948447  0  0  0.567371  0  4.236838  0  0  0.600952  0  4.231199  0  0  0.189882  0.54438  0  4.240398  0
C  C72  1  0.57407329  0.68672155  0.41452362  1  0  0.613164  0  3.94843  0  0  0.567446  0  4.236914  0  0  0.601033  0  4.231275  0  0  0.189896  0.544439  0  4.240493  0
C  C73  1  0.31327835  0.42592585  0.08547810  1  0  0.613111  0  3.948346  0  0  0.567384  0  4.236845  0  0  0.60096  0  4.231202  0  0  0.189891  0.544393  0  4.240404  0
C  C74  1  0.67796052  0.09430268  0.93739554  1  0  -0.072235  0  3.706013  0  0  -0.115428  0  3.969491  0  0  -0.113651  0  3.988485  0  0  -0.004499  -0.116305  0  3.956351  0
C  C75  1  0.90569460  0.32203783  0.56260359  1  0  -0.072339  0  3.706025  0  0  -0.115475  0  3.96952  0  0  -0.1137  0  3.988518  0  0  -0.004526  -0.116349  0  3.95638  0
C  C76  1  0.32203894  0.90569864  0.06260388  1  0  -0.072288  0  3.705912  0  0  -0.115433  0  3.969386  0  0  -0.113657  0  3.98838  0  0  -0.004489  -0.116312  0  3.956257  0
C  C77  1  0.09430540  0.67796242  0.43739719  1  0  -0.072266  0  3.706073  0  0  -0.115447  0  3.969555  0  0  -0.113671  0  3.988553  0  0  -0.004501  -0.116328  0  3.956428  0
C  C78  1  0.67469963  0.21796782  0.92651860  1  0  -0.004737  0  3.796705  0  0  -0.043552  0  4.075029  0  0  -0.042006  0  4.095663  0  0  -0.008175  -0.044494  0  4.060994  0
C  C79  1  0.78203310  0.32529899  0.57348045  1  0  -0.004734  0  3.796718  0  0  -0.043529  0  4.075035  0  0  -0.041983  0  4.095672  0  0  -0.00819  -0.044477  0  4.061005  0
C  C80  1  0.32530134  0.78203244  0.07348018  1  0  -0.004805  0  3.796615  0  0  -0.043606  0  4.074933  0  0  -0.042059  0  4.095564  0  0  -0.008213  -0.044558  0  4.060919  0
C  C81  1  0.21796690  0.67470126  0.42651887  1  0  -0.004774  0  3.796768  0  0  -0.043571  0  4.07509  0  0  -0.042026  0  4.095726  0  0  -0.00819  -0.044519  0  4.061068  0
C  C82  1  0.18232530  0.12234137  0.47119648  1  0  -0.062312  0  3.780157  0  0  -0.08314  0  4.02863  0  0  -0.08028  0  4.046181  0  0  -0.086737  -0.084662  0  4.016638  0
C  C83  1  0.87765796  0.81767478  0.02880329  1  0  -0.062283  0  3.780168  0  0  -0.083118  0  4.028643  0  0  -0.080254  0  4.046199  0  0  -0.086762  -0.084651  0  4.016653  0
C  C84  1  0.81767482  0.87765676  0.52880390  1  0  -0.062232  0  3.78018  0  0  -0.083086  0  4.028643  0  0  -0.080214  0  4.046203  0  0  -0.086718  -0.08461  0  4.016647  0
C  C85  1  0.12234355  0.18232441  0.97119685  1  0  -0.06225  0  3.780227  0  0  -0.083097  0  4.028693  0  0  -0.080245  0  4.046243  0  0  -0.086725  -0.084622  0  4.016694  0
C  C86  1  0.05115933  0.07159014  0.38873267  1  0  -0.201863  0  3.773863  0  0  -0.22269  0  4.027307  0  0  -0.229498  0  4.047944  0  0  -0.108048  -0.218464  0  4.013768  0
C  C87  1  0.92840882  0.94883850  0.11126650  1  0  -0.201916  0  3.773958  0  0  -0.222746  0  4.027415  0  0  -0.229553  0  4.048052  0  0  -0.10807  -0.218509  0  4.013866  0
C  C88  1  0.94883982  0.92840799  0.61126752  1  0  -0.201865  0  3.773928  0  0  -0.222676  0  4.027386  0  0  -0.229484  0  4.048025  0  0  -0.108051  -0.218446  0  4.013846  0
C  C89  1  0.07159270  0.05116069  0.88873363  1  0  -0.201852  0  3.773882  0  0  -0.222672  0  4.027334  0  0  -0.22948  0  4.047976  0  0  -0.108047  -0.218443  0  4.013797  0
C  C90  1  0.28611748  0.25669126  0.49488996  1  0  -0.088006  0  3.778446  0  0  -0.065964  0  4.010146  0  0  -0.075342  0  4.032793  0  0  -0.027502  -0.060077  0  3.99535  0
C  C91  1  0.74330886  0.71388296  0.00510927  1  0  -0.088011  0  3.778461  0  0  -0.065991  0  4.010161  0  0  -0.07539  0  4.032834  0  0  -0.027513  -0.060098  0  3.995358  0
C  C92  1  0.71388307  0.74330793  0.50511071  1  0  -0.088092  0  3.778524  0  0  -0.066008  0  4.010181  0  0  -0.075429  0  4.032886  0  0  -0.027502  -0.060118  0  3.995388  0
C  C93  1  0.25669308  0.28611729  0.99489043  1  0  -0.088016  0  3.77851  0  0  -0.065922  0  4.010146  0  0  -0.075302  0  4.032799  0  0  -0.027478  -0.060036  0  3.995349  0
C  C94  1  0.12592143  0.28906529  0.35111656  1  0  -0.183697  0  3.734259  0  0  -0.205817  0  3.992725  0  0  -0.211398  0  4.010511  0  0  -0.099178  -0.202026  0  3.980148  0
C  C95  1  0.71093629  0.87407875  0.14888347  1  0  -0.183816  0  3.734137  0  0  -0.20597  0  3.992646  0  0  -0.21155  0  4.01043  0  0  -0.099244  -0.202187  0  3.980085  0
C  C96  1  0.87407815  0.71093391  0.64888466  1  0  -0.183758  0  3.734191  0  0  -0.205886  0  3.992689  0  0  -0.211466  0  4.010473  0  0  -0.09923  -0.20209  0  3.980118  0
C  C97  1  0.28906565  0.12592150  0.85111696  1  0  -0.183752  0  3.734239  0  0  -0.205876  0  3.99272  0  0  -0.211457  0  4.010506  0  0  -0.099191  -0.202084  0  3.980148  0
C  C98  1  0.64787347  0.86029675  0.80763468  1  0  0.012469  0  3.622207  0  0  -0.049028  0  3.879679  0  0  -0.044151  0  3.890989  0  0  -0.053673  -0.052033  0  3.871694  0
C  C99  1  0.13970223  0.35212655  0.69236507  1  0  0.012433  0  3.622164  0  0  -0.048997  0  3.879576  0  0  -0.044107  0  3.890889  0  0  -0.053654  -0.052013  0  3.871597  0
C  C100  1  0.35212513  0.13970244  0.19236487  1  0  0.012371  0  3.622181  0  0  -0.049127  0  3.879691  0  0  -0.044255  0  3.89101  0  0  -0.053714  -0.052126  0  3.871692  0
C  C101  1  0.86029832  0.64787265  0.30763487  1  0  0.012391  0  3.622175  0  0  -0.049039  0  3.879592  0  0  -0.044152  0  3.890907  0  0  -0.05366  -0.052045  0  3.87161  0
C  C102  1  0.25719034  0.33893545  0.43408165  1  0  -0.044546  0  3.70843  0  0  -0.067598  0  3.957417  0  0  -0.064971  0  3.975431  0  0  -0.076716  -0.068924  0  3.945121  0
C  C103  1  0.66106533  0.74280888  0.06591810  1  0  -0.044475  0  3.708449  0  0  -0.067572  0  3.957431  0  0  -0.06494  0  3.975449  0  0  -0.076713  -0.068899  0  3.945136  0
C  C104  1  0.74280827  0.66106374  0.56591791  1  0  -0.044494  0  3.708432  0  0  -0.067562  0  3.95742  0  0  -0.064922  0  3.975443  0  0  -0.076702  -0.068887  0  3.945122  0
C  C105  1  0.33893521  0.25719031  0.93408185  1  0  -0.044542  0  3.708501  0  0  -0.067605  0  3.957481  0  0  -0.064979  0  3.975495  0  0  -0.07672  -0.068931  0  3.94518  0
C  C106  1  0.59736745  0.00940417  0.64627501  1  0  -0.381977  0  3.701954  0  0  -0.462166  0  3.938184  0  0  -0.465728  0  3.943866  0  0  -0.23293  -0.459544  0  3.934265  0
C  C107  1  0.99059572  0.40263398  0.85372379  1  0  -0.38201  0  3.701963  0  0  -0.462175  0  3.938199  0  0  -0.465739  0  3.943881  0  0  -0.232922  -0.459557  0  3.934276  0
C  C108  1  0.40263353  0.99059608  0.35372450  1  0  -0.382023  0  3.701966  0  0  -0.462171  0  3.938218  0  0  -0.465733  0  3.943901  0  0  -0.232923  -0.459546  0  3.934293  0
C  C109  1  0.00940471  0.59736734  0.14627655  1  0  -0.382046  0  3.70206  0  0  -0.462218  0  3.938285  0  0  -0.465783  0  3.943969  0  0  -0.232947  -0.459598  0  3.934364  0
C  C110  1  0.50201486  0.74223138  0.73775690  1  0  -0.135377  0  3.67641  0  0  -0.174904  0  3.933968  0  0  -0.176874  0  3.948531  0  0  -0.165675  -0.173449  0  3.923853  0
C  C111  1  0.25776846  0.49798577  0.76224312  1  0  -0.135401  0  3.67641  0  0  -0.174943  0  3.93401  0  0  -0.176951  0  3.94862  0  0  -0.165681  -0.173487  0  3.923897  0
C  C112  1  0.49798514  0.25776887  0.26224314  1  0  -0.135366  0  3.676399  0  0  -0.174894  0  3.933968  0  0  -0.176869  0  3.94854  0  0  -0.165679  -0.173444  0  3.923858  0
C  C113  1  0.74223057  0.50201448  0.23775673  1  0  -0.135376  0  3.676407  0  0  -0.174946  0  3.933999  0  0  -0.17695  0  3.948605  0  0  -0.165703  -0.173489  0  3.923877  0
C  C114  1  0.38403351  0.75184520  0.77961374  1  0  -0.100953  0  3.686109  0  0  -0.140786  0  3.950034  0  0  -0.141483  0  3.964369  0  0  -0.168445  -0.14012  0  3.939911  0
C  C115  1  0.24815520  0.61596808  0.72038646  1  0  -0.100875  0  3.686019  0  0  -0.140696  0  3.949959  0  0  -0.141381  0  3.964301  0  0  -0.168417  -0.140042  0  3.939847  0
C  C116  1  0.61596552  0.24815505  0.22038611  1  0  -0.100985  0  3.686113  0  0  -0.140816  0  3.950034  0  0  -0.141511  0  3.964369  0  0  -0.168459  -0.140161  0  3.939917  0
C  C117  1  0.75184383  0.38403218  0.27961339  1  0  -0.100807  0  3.685963  0  0  -0.140619  0  3.949886  0  0  -0.141305  0  3.964229  0  0  -0.168377  -0.139957  0  3.939772  0
N  N118  1  0.64671515  0.20386158  0.81925411  1  0  -0.433026  0  3.257771  0  0  -0.358665  0  3.54028  0  0  -0.379969  0  3.554138  0  0  -0.353332  -0.344344  0  3.530848  0
N  N119  1  0.79613670  0.35328464  0.68074318  1  0  -0.433059  0  3.257832  0  0  -0.35873  0  3.54039  0  0  -0.380036  0  3.554251  0  0  -0.353289  -0.344404  0  3.530953  0
N  N120  1  0.35328679  0.79613867  0.18074560  1  0  -0.433004  0  3.257676  0  0  -0.358656  0  3.540244  0  0  -0.379956  0  3.554095  0  0  -0.35331  -0.344338  0  3.530822  0
N  N121  1  0.20386373  0.64671667  0.31925570  1  0  -0.433026  0  3.257828  0  0  -0.358686  0  3.540369  0  0  -0.379987  0  3.554224  0  0  -0.35329  -0.344353  0  3.530921  0
N  N122  1  0.65143368  0.00408131  0.83474858  1  0  -0.113431  0  3.518146  0  0  -0.021134  0  3.731217  0  0  -0.036666  0  3.756184  0  0  -0.241278  -0.010994  0  3.714333  0
N  N123  1  0.99591983  0.34856675  0.66524959  1  0  -0.113371  0  3.518019  0  0  -0.021094  0  3.731087  0  0  -0.036625  0  3.75605  0  0  -0.241319  -0.010954  0  3.714212  0
N  N124  1  0.34856632  0.99591895  0.16525073  1  0  -0.113491  0  3.518146  0  0  -0.021167  0  3.731219  0  0  -0.036695  0  3.756187  0  0  -0.241303  -0.01103  0  3.714338  0
N  N125  1  0.00408115  0.65143350  0.33474992  1  0  -0.113409  0  3.51804  0  0  -0.021139  0  3.731124  0  0  -0.03667  0  3.756088  0  0  -0.241318  -0.010999  0  3.714244  0
O  O126  1  0.51622971  0.43646395  0.61047250  1  0  -0.607482  0  1.937779  0  0  -0.556728  0  2.167865  0  0  -0.580041  0  2.158133  0  0  -0.313604  -0.540597  0  2.174597  0
O  O127  1  0.56353319  0.48377090  0.88952437  1  0  -0.607413  0  1.937864  0  0  -0.556675  0  2.167924  0  0  -0.579988  0  2.158195  0  0  -0.313563  -0.540542  0  2.174648  0
O  O128  1  0.48377084  0.56353524  0.38952671  1  0  -0.607478  0  1.937837  0  0  -0.556728  0  2.167951  0  0  -0.580039  0  2.158213  0  0  -0.31359  -0.540587  0  2.174679  0
O  O129  1  0.43646584  0.51622935  0.11047475  1  0  -0.607454  0  1.937703  0  0  -0.556706  0  2.16781  0  0  -0.580018  0  2.158078  0  0  -0.313599  -0.540573  0  2.174536  0
O  O130  1  0.44819572  0.23079320  0.63653129  1  0  -0.640251  0  2.00408  0  0  -0.571912  0  2.257903  0  0  -0.600499  0  2.245727  0  0  -0.337353  -0.55194  0  2.265423  0
O  O131  1  0.76920798  0.55180246  0.86347261  1  0  -0.640155  0  2.004147  0  0  -0.571843  0  2.257971  0  0  -0.600428  0  2.245796  0  0  -0.337333  -0.551875  0  2.265491  0
O  O132  1  0.55180525  0.76920706  0.36347260  1  0  -0.640194  0  2.004216  0  0  -0.571857  0  2.258047  0  0  -0.600436  0  2.245866  0  0  -0.337322  -0.551878  0  2.265566  0
O  O133  1  0.23079408  0.44819567  0.13653035  1  0  -0.640194  0  2.004202  0  0  -0.571849  0  2.258036  0  0  -0.60043  0  2.245859  0  0  -0.337331  -0.551879  0  2.265551  0
O  O134  1  0.89077180  0.10922826  0.24999921  1  0  -0.314577  0  2.31663  0  0  -0.24911  0  2.542776  0  0  -0.264924  0  2.541961  0  0  -0.166431  -0.237659  0  2.542808  0
O  O135  1  0.10922777  0.89077093  0.75000054  1  0  -0.314592  0  2.316669  0  0  -0.249112  0  2.54283  0  0  -0.264925  0  2.542019  0  0  -0.166424  -0.237659  0  2.542866  0
