# generated using pymatgen
data_H15PbC20N3O5
_symmetry_space_group_name_H-M   'P 1'
_cell_length_a   8.22418268
_cell_length_b   9.91015266
_cell_length_c   11.66025120
_cell_angle_alpha   95.84074976
_cell_angle_beta   101.93749196
_cell_angle_gamma   96.48584980
_symmetry_Int_Tables_number   1
_chemical_formula_structural   H15PbC20N3O5
_chemical_formula_sum   'H30 Pb2 C40 N6 O10'
_cell_volume   916.15594584
_cell_formula_units_Z   2
loop_
 _symmetry_equiv_pos_site_id
 _symmetry_equiv_pos_as_xyz
  1  'x, y, z'
loop_
 _atom_site_type_symbol
 _atom_site_label
 _atom_site_symmetry_multiplicity
 _atom_site_fract_x
 _atom_site_fract_y
 _atom_site_fract_z
 _atom_site_occupancy
 _atom_site_hle17_bader_spin_density
 _atom_site_hle17_ddec_charge
 _atom_site_hle17_ddec_spin_density
 _atom_site_hle17_ddec_sum_bond_order
 _atom_site_hle17_magmom
 _atom_site_hse06_10hf_bader_spin_density
 _atom_site_hse06_10hf_ddec_charge
 _atom_site_hse06_10hf_ddec_spin_density
 _atom_site_hse06_10hf_ddec_sum_bond_order
 _atom_site_hse06_10hf_magmom
 _atom_site_hse06_bader_spin_density
 _atom_site_hse06_ddec_charge
 _atom_site_hse06_ddec_spin_density
 _atom_site_hse06_ddec_sum_bond_order
 _atom_site_hse06_magmom
 _atom_site_pbe_bader_spin_density
 _atom_site_pbe_cm5_charge
 _atom_site_pbe_ddec_charge
 _atom_site_pbe_ddec_spin_density
 _atom_site_pbe_ddec_sum_bond_order
 _atom_site_pbe_magmom
H  H0  1  0.98456744  0.85007477  0.65108505  1  0  0.085107  0  0.964936  0  0  0.094099  0  1.0327  0  0  0.096737  0  1.031367  0  0  0.101998  0.09228  0  1.033498  0
H  H1  1  0.01543016  0.14992526  0.34891188  1  0  0.085104  0  0.965053  0  0  0.094089  0  1.032816  0  0  0.096715  0  1.031502  0  0  0.101986  0.09227  0  1.033616  0
H  H2  1  0.97458474  0.09400951  0.72464885  1  0  0.084427  0  0.958447  0  0  0.095233  0  1.021193  0  0  0.098068  0  1.020244  0  0  0.097468  0.093366  0  1.021759  0
H  H3  1  0.02541800  0.90599152  0.27534720  1  0  0.084455  0  0.958411  0  0  0.095261  0  1.021155  0  0  0.098097  0  1.020201  0  0  0.097434  0.093393  0  1.021727  0
H  H4  1  0.18838121  0.27797909  0.69148377  1  0  0.097999  0  0.956517  0  0  0.107482  0  1.018292  0  0  0.110979  0  1.015551  0  0  0.104356  0.104723  0  1.020591  0
H  H5  1  0.81162366  0.72201988  0.30851498  1  0  0.097946  0  0.956343  0  0  0.107391  0  1.01819  0  0  0.110883  0  1.015445  0  0  0.104324  0.104639  0  1.020478  0
H  H6  1  0.40633801  0.21635686  0.58325948  1  0  0.114584  0  0.972633  0  0  0.117364  0  1.046158  0  0  0.121426  0  1.043808  0  0  0.109722  0.115165  0  1.045922  0
H  H7  1  0.59366970  0.78364414  0.41673985  1  0  0.114578  0  0.972708  0  0  0.117367  0  1.046192  0  0  0.12143  0  1.043845  0  0  0.109704  0.11517  0  1.045956  0
H  H8  1  0.63776594  0.78172847  0.68551714  1  0  0.089282  0  0.963655  0  0  0.097395  0  1.030896  0  0  0.099986  0  1.030341  0  0  0.101448  0.095679  0  1.030892  0
H  H9  1  0.36223148  0.21827054  0.31448311  1  0  0.089248  0  0.963648  0  0  0.097344  0  1.030923  0  0  0.099938  0  1.03036  0  0  0.101431  0.095628  0  1.030921  0
H  H10  1  0.85821416  0.93050629  0.83953929  1  0  0.079807  0  0.961268  0  0  0.091869  0  1.022413  0  0  0.094103  0  1.021864  0  0  0.097479  0.090279  0  1.023052  0
H  H11  1  0.14178256  0.06949579  0.16046027  1  0  0.079857  0  0.961367  0  0  0.091924  0  1.022503  0  0  0.094159  0  1.021954  0  0  0.097503  0.090339  0  1.023131  0
H  H12  1  0.91105444  0.88094890  0.04804625  1  0  0.082917  0  0.953913  0  0  0.096049  0  1.011926  0  0  0.098539  0  1.011309  0  0  0.09875  0.094437  0  1.012185  0
H  H13  1  0.08893926  0.11905012  0.95195174  1  0  0.082938  0  0.953707  0  0  0.096051  0  1.011765  0  0  0.098538  0  1.01115  0  0  0.098755  0.094443  0  1.012013  0
H  H14  1  0.74200853  0.68013603  0.10196200  1  0  0.105846  0  0.959828  0  0  0.110422  0  1.031546  0  0  0.11415  0  1.028727  0  0  0.1058  0.107887  0  1.033311  0
H  H15  1  0.25798907  0.31986399  0.89803408  1  0  0.105818  0  0.959614  0  0  0.110386  0  1.031369  0  0  0.114114  0  1.02855  0  0  0.105808  0.107853  0  1.033125  0
H  H16  1  0.92133666  0.48551208  0.26571934  1  0  0.438256  0  0.852718  0  0  0.408133  0  0.914701  0  0  0.418812  0  0.899068  0  0  0.296292  0.400476  0  0.925887  0
H  H17  1  0.07866362  0.51448896  0.73428235  1  0  0.438285  0  0.852676  0  0  0.408163  0  0.914656  0  0  0.418842  0  0.899024  0  0  0.296305  0.400505  0  0.925841  0
H  H18  1  0.07486537  0.55153352  0.20864395  1  0  0.379664  0  0.948307  0  0  0.334483  0  1.034447  0  0  0.346763  0  1.017335  0  0  0.273349  0.325919  0  1.046378  0
H  H19  1  0.92513453  0.44846548  0.79135494  1  0  0.379648  0  0.948327  0  0  0.334475  0  1.034457  0  0  0.346754  0  1.017345  0  0  0.273347  0.325908  0  1.046391  0
H  H20  1  0.29970191  0.75981822  0.29567500  1  0  0.078867  0  0.968147  0  0  0.078334  0  1.048082  0  0  0.081667  0  1.044879  0  0  0.110136  0.075868  0  1.050517  0
H  H21  1  0.70029143  0.24017875  0.70432363  1  0  0.078869  0  0.968232  0  0  0.078373  0  1.04814  0  0  0.081709  0  1.04493  0  0  0.110138  0.075904  0  1.050574  0
H  H22  1  0.46486639  0.93238392  0.21323647  1  0  0.100761  0  0.972402  0  0  0.110769  0  1.034023  0  0  0.113267  0  1.034587  0  0  0.102568  0.10871  0  1.034404  0
H  H23  1  0.53512874  0.06761611  0.78676525  1  0  0.100758  0  0.972398  0  0  0.110741  0  1.034037  0  0  0.113217  0  1.034624  0  0  0.102569  0.108681  0  1.034416  0
H  H24  1  0.20240061  0.73815155  0.86387472  1  0  0.113667  0  0.945547  0  0  0.122887  0  1.007754  0  0  0.126827  0  1.005874  0  0  0.106572  0.120075  0  1.009194  0
H  H25  1  0.79760251  0.26185153  0.13612756  1  0  0.113692  0  0.94554  0  0  0.12291  0  1.007765  0  0  0.126846  0  1.005889  0  0  0.106608  0.120103  0  1.00919  0
H  H26  1  0.04157627  0.57831688  0.96056523  1  0  0.06968  0  0.977531  0  0  0.078571  0  1.04398  0  0  0.08081  0  1.041982  0  0  0.111752  0.076904  0  1.045756  0
H  H27  1  0.95842772  0.42168415  0.03943357  1  0  0.069631  0  0.977512  0  0  0.078571  0  1.04391  0  0  0.080805  0  1.041911  0  0  0.111761  0.076904  0  1.045687  0
H  H28  1  0.40336192  0.93406632  0.87545526  1  0  0.09074  0  0.946617  0  0  0.10405  0  1.005227  0  0  0.106268  0  1.005143  0  0  0.103627  0.102442  0  1.005487  0
H  H29  1  0.59663995  0.06593676  0.12454599  1  0  0.09068  0  0.946651  0  0  0.10401  0  1.005236  0  0  0.106226  0  1.005154  0  0  0.103636  0.102402  0  1.005498  0
Pb  Pb30  1  0.23132655  0.46174689  0.45400165  1  0  1.362877  0  1.396602  0  0  1.184921  0  1.796256  0  0  1.245905  0  1.751791  0  0  0.648423  1.143185  0  1.824385  0
Pb  Pb31  1  0.76867530  0.53824902  0.54599811  1  0  1.362878  0  1.396629  0  0  1.184912  0  1.796279  0  0  1.245895  0  1.751816  0  0  0.648423  1.143172  0  1.824408  0
C  C32  1  0.19738998  0.74929242  0.53001276  1  0  0.662072  0  3.898606  0  0  0.608361  0  4.187884  0  0  0.644823  0  4.180584  0  0  0.212763  0.583715  0  4.192113  0
C  C33  1  0.80261012  0.25070760  0.46998968  1  0  0.662129  0  3.898485  0  0  0.608404  0  4.187764  0  0  0.64487  0  4.18046  0  0  0.212799  0.583757  0  4.191993  0
C  C34  1  0.19556320  0.89600555  0.57372191  1  0  -0.127969  0  3.718118  0  0  -0.109589  0  3.949302  0  0  -0.118609  0  3.970496  0  0  -0.0148  -0.103487  0  3.93467  0
C  C35  1  0.80444558  0.10399443  0.42628006  1  0  -0.128124  0  3.718028  0  0  -0.109672  0  3.949223  0  0  -0.118696  0  3.970415  0  0  -0.014852  -0.103569  0  3.934588  0
C  C36  1  0.07560624  0.93166095  0.63649105  1  0  -0.056874  0  3.75113  0  0  -0.079227  0  3.998363  0  0  -0.078152  0  4.019206  0  0  -0.080483  -0.079605  0  3.98369  0
C  C37  1  0.92439793  0.06834109  0.36350786  1  0  -0.056808  0  3.751163  0  0  -0.079169  0  3.998394  0  0  -0.078086  0  4.019225  0  0  -0.080435  -0.07955  0  3.983726  0
C  C38  1  0.07191422  0.06775879  0.67887229  1  0  -0.072526  0  3.750779  0  0  -0.088045  0  4.003942  0  0  -0.091786  0  4.025551  0  0  -0.090394  -0.085396  0  3.988832  0
C  C39  1  0.92808853  0.93224223  0.32112804  1  0  -0.072508  0  3.750837  0  0  -0.088004  0  4.003947  0  0  -0.091743  0  4.025549  0  0  -0.09034  -0.085354  0  3.988841  0
C  C40  1  0.19068411  0.17085227  0.66015273  1  0  -0.033708  0  3.744737  0  0  -0.048732  0  3.995869  0  0  -0.047798  0  4.015307  0  0  -0.080482  -0.048608  0  3.982045  0
C  C41  1  0.80932290  0.82915181  0.33984763  1  0  -0.033725  0  3.74464  0  0  -0.048748  0  3.995814  0  0  -0.047807  0  4.015245  0  0  -0.08048  -0.048624  0  3.98199  0
C  C42  1  0.31258368  0.13757060  0.59918503  1  0  -0.160724  0  3.73328  0  0  -0.179541  0  3.985335  0  0  -0.185384  0  4.007283  0  0  -0.085103  -0.175732  0  3.968912  0
C  C43  1  0.68741872  0.86242837  0.40081851  1  0  -0.160721  0  3.733314  0  0  -0.179485  0  3.985403  0  0  -0.185333  0  4.007355  0  0  -0.085096  -0.175679  0  3.968984  0
C  C44  1  0.31503058  0.00079924  0.55526353  1  0  0.151528  0  3.781851  0  0  0.149507  0  4.03254  0  0  0.153835  0  4.053195  0  0  0.091552  0.146236  0  4.019235  0
C  C45  1  0.68497464  0.99919460  0.44473739  1  0  0.151629  0  3.781752  0  0  0.149478  0  4.032615  0  0  0.153805  0  4.053274  0  0  0.091602  0.146208  0  4.019306  0
C  C46  1  0.44817869  0.54774039  0.71162847  1  0  0.681366  0  3.911646  0  0  0.621132  0  4.218382  0  0  0.657544  0  4.208117  0  0  0.218844  0.596363  0  4.224426  0
C  C47  1  0.55181803  0.45226170  0.28836937  1  0  0.681409  0  3.911504  0  0  0.621142  0  4.218291  0  0  0.657555  0  4.208027  0  0  0.218855  0.59637  0  4.224336  0
C  C48  1  0.57188108  0.64428762  0.80594221  1  0  -0.091515  0  3.688537  0  0  -0.074744  0  3.920635  0  0  -0.080482  0  3.940885  0  0  -0.000816  -0.071177  0  3.907378  0
C  C49  1  0.42810978  0.35570937  0.19405520  1  0  -0.091747  0  3.688946  0  0  -0.074917  0  3.92102  0  0  -0.080658  0  3.941272  0  0  -0.000878  -0.071343  0  3.907753  0
C  C50  1  0.66401941  0.75838924  0.77656591  1  0  -0.110629  0  3.776984  0  0  -0.128505  0  4.023064  0  0  -0.131434  0  4.045706  0  0  -0.090589  -0.125894  0  4.007707  0
C  C51  1  0.33598548  0.24161690  0.22343432  1  0  -0.11042  0  3.776685  0  0  -0.128288  0  4.022767  0  0  -0.131214  0  4.045413  0  0  -0.090488  -0.125679  0  4.007411  0
C  C52  1  0.78558618  0.84295321  0.86335471  1  0  -0.052655  0  3.766344  0  0  -0.067837  0  4.016479  0  0  -0.069421  0  4.038688  0  0  -0.086143  -0.067404  0  4.002203  0
C  C53  1  0.21440343  0.15704378  0.13664081  1  0  -0.052779  0  3.766062  0  0  -0.067981  0  4.01623  0  0  -0.069563  0  4.038431  0  0  -0.086181  -0.067548  0  4.001966  0
C  C54  1  0.81471883  0.81550482  0.98066659  1  0  -0.058205  0  3.785322  0  0  -0.070966  0  4.033649  0  0  -0.072851  0  4.05573  0  0  -0.088973  -0.069829  0  4.019074  0
C  C55  1  0.18528411  0.18449723  0.01933558  1  0  -0.058244  0  3.78534  0  0  -0.070986  0  4.033676  0  0  -0.072869  0  4.055756  0  0  -0.088993  -0.069851  0  4.019098  0
C  C56  1  0.72165566  0.70452726  0.01156015  1  0  -0.114274  0  3.701561  0  0  -0.137524  0  3.953475  0  0  -0.139643  0  3.973655  0  0  -0.079953  -0.136296  0  3.940748  0
C  C57  1  0.27834303  0.29547173  0.98844543  1  0  -0.114128  0  3.701429  0  0  -0.137382  0  3.953417  0  0  -0.139497  0  3.973594  0  0  -0.07989  -0.136153  0  3.94069  0
C  C58  1  0.59955158  0.61880768  0.92442882  1  0  0.143931  0  3.782048  0  0  0.142412  0  4.032799  0  0  0.143324  0  4.055668  0  0  0.090425  0.141232  0  4.018771  0
C  C59  1  0.40044405  0.38118826  0.07556833  1  0  0.143909  0  3.782041  0  0  0.142328  0  4.032853  0  0  0.143238  0  4.055724  0  0  0.090333  0.141146  0  4.018827  0
C  C60  1  0.27983564  0.75885369  0.20003389  1  0  0.11391  0  3.730705  0  0  0.083782  0  3.991576  0  0  0.089881  0  4.008738  0  0  0.037863  0.079491  0  3.98047  0
C  C61  1  0.72015539  0.24114432  0.79996278  1  0  0.113874  0  3.730699  0  0  0.083724  0  3.991559  0  0  0.089822  0  4.008719  0  0  0.037838  0.079433  0  3.980451  0
C  C62  1  0.37325457  0.85554009  0.15304951  1  0  -0.160531  0  3.704608  0  0  -0.176755  0  3.950516  0  0  -0.184894  0  3.973132  0  0  -0.083817  -0.171909  0  3.93623  0
C  C63  1  0.62674198  0.14446097  0.84695251  1  0  -0.160615  0  3.704631  0  0  -0.176808  0  3.950556  0  0  -0.18493  0  3.973186  0  0  -0.083856  -0.171959  0  3.936265  0
C  C64  1  0.34828428  0.85197949  0.02953692  1  0  0.129223  0  3.813711  0  0  0.143156  0  4.044169  0  0  0.148204  0  4.06718  0  0  0.005511  0.140449  0  4.028598  0
C  C65  1  0.65171049  0.14801850  0.97046371  1  0  0.129284  0  3.813455  0  0  0.14319  0  4.043957  0  0  0.14824  0  4.066963  0  0  0.005433  0.140478  0  4.028388  0
C  C66  1  0.22700706  0.74827382  0.96012065  1  0  -0.158035  0  3.684544  0  0  -0.176373  0  3.933589  0  0  -0.184582  0  3.954641  0  0  -0.082478  -0.171409  0  3.919892  0
C  C67  1  0.77299357  0.25172927  0.03988127  1  0  -0.158085  0  3.684321  0  0  -0.176429  0  3.93339  0  0  -0.184636  0  3.954442  0  0  -0.082512  -0.171461  0  3.919701  0
C  C68  1  0.13783606  0.65665380  0.01469051  1  0  0.128691  0  3.739767  0  0  0.09638  0  3.998075  0  0  0.10299  0  4.016365  0  0  0.041602  0.091874  0  3.986818  0
C  C69  1  0.86216330  0.34334212  0.98530631  1  0  0.128687  0  3.73985  0  0  0.096367  0  3.998151  0  0  0.102984  0  4.016437  0  0  0.0416  0.091858  0  3.986897  0
C  C70  1  0.43935199  0.94876556  0.97199487  1  0  -0.091355  0  3.722777  0  0  -0.109637  0  3.968862  0  0  -0.112715  0  3.9898  0  0  -0.077819  -0.107492  0  3.954773  0
C  C71  1  0.56064883  0.05123855  0.02800889  1  0  -0.091221  0  3.722738  0  0  -0.109476  0  3.968802  0  0  -0.112555  0  3.989741  0  0  -0.077728  -0.107328  0  3.954714  0
N  N72  1  0.42573518  0.97111833  0.48066797  1  0  -0.107411  0  2.993592  0  0  -0.084509  0  3.276866  0  0  -0.085138  0  3.284366  0  0  -0.122938  -0.084307  0  3.272237  0
N  N73  1  0.57426988  0.02888166  0.51933432  1  0  -0.107233  0  2.993496  0  0  -0.084331  0  3.276831  0  0  -0.084957  0  3.28433  0  0  -0.122893  -0.084129  0  3.272199  0
N  N74  1  0.50599113  0.49979861  0.94686253  1  0  -0.134113  0  3.008454  0  0  -0.112823  0  3.295806  0  0  -0.112487  0  3.304726  0  0  -0.137575  -0.111204  0  3.288847  0
N  N75  1  0.49400560  0.50020347  0.05313703  1  0  -0.133894  0  3.008174  0  0  -0.112578  0  3.29551  0  0  -0.112239  0  3.304427  0  0  -0.137457  -0.11096  0  3.288553  0
N  N76  1  0.16218766  0.66059004  0.13260393  1  0  -0.326175  0  3.175455  0  0  -0.261052  0  3.423639  0  0  -0.27645  0  3.440124  0  0  -0.313676  -0.250826  0  3.413474  0
N  N77  1  0.83781226  0.33940895  0.86739753  1  0  -0.326063  0  3.175439  0  0  -0.260969  0  3.423648  0  0  -0.276367  0  3.440134  0  0  -0.313617  -0.250741  0  3.41348  0
O  O78  1  0.06520886  0.66354095  0.51808907  1  0  -0.703457  0  2.034275  0  0  -0.62483  0  2.276228  0  0  -0.65859  0  2.270836  0  0  -0.299214  -0.602673  0  2.279392  0
O  O79  1  0.93479514  0.33646006  0.48191573  1  0  -0.703471  0  2.034095  0  0  -0.624853  0  2.276072  0  0  -0.658612  0  2.270674  0  0  -0.299256  -0.602697  0  2.279238  0
O  O80  1  0.33193355  0.71321090  0.50521903  1  0  -0.618488  0  1.960008  0  0  -0.551765  0  2.194975  0  0  -0.582371  0  2.188457  0  0  -0.286721  -0.531012  0  2.198615  0
O  O81  1  0.66806778  0.28678911  0.49478015  1  0  -0.618491  0  1.960105  0  0  -0.551763  0  2.195109  0  0  -0.58237  0  2.188588  0  0  -0.286712  -0.53101  0  2.198746  0
O  O82  1  0.29359703  0.53321186  0.71054306  1  0  -0.64893  0  1.967741  0  0  -0.592488  0  2.202807  0  0  -0.620584  0  2.193397  0  0  -0.302187  -0.572354  0  2.208038  0
O  O83  1  0.70640393  0.46678611  0.28945418  1  0  -0.648931  0  1.967616  0  0  -0.592455  0  2.202661  0  0  -0.62055  0  2.193249  0  0  -0.302177  -0.572319  0  2.207895  0
O  O84  1  0.50976451  0.48549144  0.63174604  1  0  -0.699307  0  2.024012  0  0  -0.615565  0  2.265502  0  0  -0.650835  0  2.25946  0  0  -0.295015  -0.590878  0  2.268295  0
O  O85  1  0.49023239  0.51451166  0.36825192  1  0  -0.699299  0  2.023961  0  0  -0.615573  0  2.265485  0  0  -0.650839  0  2.25944  0  0  -0.295023  -0.590907  0  2.26833  0
O  O86  1  0.03861367  0.48128169  0.26025590  1  0  -0.858553  0  1.853451  0  0  -0.786503  0  2.04981  0  0  -0.810925  0  2.018083  0  0  -0.569224  -0.76948  0  2.072105  0
O  O87  1  0.96138660  0.51871934  0.73974580  1  0  -0.85857  0  1.853467  0  0  -0.786513  0  2.049809  0  0  -0.810932  0  2.018075  0  0  -0.569226  -0.76949  0  2.072107  0
