# generated using pymatgen
data_Zn2H21C24N9O8
_symmetry_space_group_name_H-M   'P 1'
_cell_length_a   10.03604868
_cell_length_b   10.92358848
_cell_length_c   13.98537445
_cell_angle_alpha   90.10122830
_cell_angle_beta   81.32873717
_cell_angle_gamma   89.02968935
_symmetry_Int_Tables_number   1
_chemical_formula_structural   Zn2H21C24N9O8
_chemical_formula_sum   'Zn2 H21 C24 N9 O8'
_cell_volume   1515.45492893
_cell_formula_units_Z   1
loop_
 _symmetry_equiv_pos_site_id
 _symmetry_equiv_pos_as_xyz
  1  'x, y, z'
loop_
 _atom_site_type_symbol
 _atom_site_label
 _atom_site_symmetry_multiplicity
 _atom_site_fract_x
 _atom_site_fract_y
 _atom_site_fract_z
 _atom_site_occupancy
 _atom_site_pbe_bader_charge
 _atom_site_pbe_bader_spin_density
 _atom_site_pbe_cm5_charge
 _atom_site_pbe_ddec_charge
 _atom_site_pbe_ddec_spin_density
 _atom_site_pbe_ddec_sum_bond_order
 _atom_site_pbe_magmom
Zn  Zn0  1  0.64301876  0.51281476  0.49636974  1  1.298859  0  0.678635  0.853898  0  2.319738  0
Zn  Zn1  1  0.34314190  0.51918229  0.50394798  1  1.304853  0  0.68554  0.866704  0  2.318941  0
H  H2  1  0.17472814  0.41665485  0.29689927  1  0.107454  0  0.11246  0.090056  0  0.951751  0
H  H3  1  0.34819164  0.50131469  0.03412825  1  0.094221  0  0.11146  0.135901  0  0.994708  0
H  H4  1  0.29977420  0.90884984  0.59731989  1  0.078782  0  0.10155  0.105974  0  0.995134  0
H  H5  1  0.30047641  0.13597589  0.59170787  1  0.070727  0  0.102635  0.109276  0  0.998834  0
H  H6  1  0.81634733  0.12669882  0.40856458  1  0.059592  0  0.104844  0.063483  0  0.961718  0
H  H7  1  0.73327947  0.88378092  0.32835786  1  0.046461  0  0.096203  0.113348  0  0.979143  0
H  H8  1  0.82147859  0.89880261  0.42946790  1  0.042532  0  0.094974  0.107842  0  0.986275  0
H  H9  1  0.76745088  0.46314882  0.99740194  1  0.470172  0  0.322472  0.321669  0  0.922539  0
H  H10  1  0.69001918  0.45974998  0.89401269  1  0.486005  0  0.311882  0.311492  0  0.9436  0
H  H11  1  0.71716142  0.54064842  0.67382290  1  0.524892  0  0.295926  0.317032  0  1.008309  0
H  H12  1  0.84125436  0.62580568  0.71664369  1  0.443951  0  0.31652  0.308548  0  0.931753  0
H  H13  1  0.83075448  0.33794998  0.33787784  1  0.415452  0  0.279786  0.275499  0  0.995669  0
H  H14  1  0.92718756  0.33611480  0.23118360  1  0.378547  0  0.282005  0.280252  0  0.965648  0
H  H15  1  0.80325627  0.57232128  0.26487025  1  0.446563  0  0.268373  0.283662  0  1.024015  0
H  H16  1  0.94551168  0.64993786  0.25025305  1  0.384334  0  0.269818  0.252508  0  1.017793  0
H  H17  1  0.14935239  0.68679061  0.29003291  1  0.38686  0  0.286351  0.265138  0  0.973923  0
H  H18  1  0.18376390  0.59787110  0.19263307  1  0.398621  0  0.285411  0.269201  0  0.972323  0
H  H19  1  0.69081867  0.20790103  0.28682005  1  0.400121  0  0.27454  0.258111  0  0.995415  0
H  H20  1  0.64450353  0.07080779  0.26193223  1  0.404309  0  0.279102  0.26273  0  0.973626  0
H  H21  1  0.01921829  0.53971644  0.73320507  1  0.447787  0  0.310762  0.29714  0  0.956801  0
H  H22  1  0.18636581  0.55788132  0.68077670  1  0.516981  0  0.299807  0.327621  0  1.001237  0
C  C23  1  0.49476978  0.74837053  0.51260012  1  1.549766  0  0.218188  0.611794  0  4.169513  0
C  C24  1  0.54445066  0.50345280  0.21049003  1  -0.237728  0  -0.023709  -0.129162  0  3.934513  0
C  C25  1  0.60393414  0.94897472  0.46323978  1  -0.07748  0  -0.00993  0.056625  0  3.921285  0
C  C26  1  0.49683960  0.88465768  0.51304081  1  0.045394  0  -0.01219  -0.059268  0  3.971337  0
C  C27  1  0.38670873  0.95578559  0.55871654  1  -0.082386  0  -0.088966  -0.110004  0  3.995411  0
C  C28  1  0.38654384  0.08341175  0.55502304  1  0.006253  0  -0.086614  -0.098342  0  3.984963  0
C  C29  1  0.49500597  0.14789127  0.50344040  1  0.076452  0  -0.018354  -0.066625  0  3.984116  0
C  C30  1  0.60197979  0.07634980  0.45733554  1  -0.05096  0  -0.015008  -0.026958  0  3.892204  0
C  C31  1  0.73201480  0.07876352  0.38422618  1  0.379151  0  0.008489  0.15919  0  3.863815  0
C  C32  1  0.73681664  0.93470112  0.39579845  1  -0.043363  0  -0.15216  -0.251528  0  3.848637  0
C  C33  1  0.07921229  0.52208464  0.42473032  1  0.449135  0  0.104628  0.110132  0  3.974565  0
C  C34  1  0.52717622  0.51406173  0.31476887  1  1.712013  0  0.224342  0.650243  0  4.256616  0
C  C35  1  0.04519942  0.54798361  0.58774472  1  1.067928  0  0.241569  0.326598  0  4.017821  0
C  C36  1  0.89992847  0.54357187  0.58632988  1  1.059758  0  0.240982  0.325302  0  3.991762  0
C  C37  1  0.94345480  0.51219957  0.42420319  1  0.467274  0  0.093013  0.029737  0  3.943282  0
C  C38  1  0.95790163  0.48302912  0.31541960  1  0.74522  0  0.164176  0.35238  0  3.916937  0
C  C39  1  0.11895246  0.50279249  0.31678427  1  0.368154  0  0.016731  0.048046  0  3.84474  0
C  C40  1  0.49329890  0.28398149  0.49896783  1  1.511517  0  0.216143  0.603939  0  4.1645  0
C  C41  1  0.45804158  0.50303004  0.69314928  1  1.640406  0  0.21736  0.66839  0  4.2511  0
C  C42  1  0.44672247  0.49670031  0.79607448  1  0.063439  0  -0.067737  -0.256268  0  3.994361  0
C  C43  1  0.44169018  0.49388895  0.98349352  1  0.120499  0  -0.11456  -0.259372  0  4.07323  0
C  C44  1  0.56163958  0.48800290  0.02125257  1  0.579674  0  0.124509  0.349689  0  4.174419  0
C  C45  1  0.55687142  0.49546737  0.12274409  1  -0.064247  0  -0.031936  -0.105303  0  4.06416  0
C  C46  1  0.44021182  0.49468994  0.88436609  1  -0.403981  0  -0.041739  0.03793  0  4.234424  0
N  N47  1  0.13581664  0.53503259  0.50632820  1  -1.237926  0  -0.31143  -0.300599  0  3.421535  0
N  N48  1  0.84904769  0.52002549  0.50447311  1  -1.236548  0  -0.311205  -0.283395  0  3.433605  0
N  N49  1  0.68553008  0.48073295  0.96518975  1  -1.274953  0  -0.567829  -0.596468  0  3.30044  0
N  N50  1  0.81840060  0.55703811  0.67321957  1  -1.264829  0  -0.584633  -0.63325  0  3.324734  0
N  N51  1  0.92510688  0.35594178  0.30279158  1  -1.111088  0  -0.631552  -0.689824  0  3.194914  0
N  N52  1  0.90612935  0.56453151  0.24778358  1  -1.163734  0  -0.650645  -0.724658  0  3.238619  0
N  N53  1  0.18693967  0.60349780  0.26503567  1  -1.105982  0  -0.623239  -0.597461  0  3.259191  0
N  N54  1  0.72069794  0.11781575  0.28573826  1  -1.129001  0  -0.638355  -0.641127  0  3.170976  0
N  N55  1  0.08500867  0.56619327  0.67494541  1  -1.263836  0  -0.576774  -0.609305  0  3.319114  0
O  O56  1  0.60326145  0.69270085  0.52564013  1  -1.164238  0  -0.323022  -0.556836  0  2.319036  0
O  O57  1  0.38571201  0.69933691  0.49721387  1  -1.16325  0  -0.318741  -0.551101  0  2.320368  0
O  O58  1  0.62974687  0.54945100  0.35095549  1  -1.160715  0  -0.302512  -0.53889  0  2.292081  0
O  O59  1  0.41279892  0.48665210  0.35976513  1  -1.136135  0  -0.290634  -0.515785  0  2.332686  0
O  O60  1  0.60557340  0.33517882  0.46757849  1  -1.172477  0  -0.322333  -0.564334  0  2.322822  0
O  O61  1  0.38145604  0.33917764  0.52689603  1  -1.168978  0  -0.31642  -0.544854  0  2.327882  0
O  O62  1  0.57330776  0.47518187  0.64455462  1  -1.17224  0  -0.308568  -0.55341  0  2.318781  0
O  O63  1  0.35487874  0.53659938  0.65608094  1  -1.164034  0  -0.300391  -0.542949  0  2.327717  0
