# generated using pymatgen
data_ZnH18C24(N2O3)2
_symmetry_space_group_name_H-M   'P 1'
_cell_length_a   9.98075080
_cell_length_b   10.32408992
_cell_length_c   11.78875273
_cell_angle_alpha   76.47623336
_cell_angle_beta   72.54851108
_cell_angle_gamma   86.98501310
_symmetry_Int_Tables_number   1
_chemical_formula_structural   ZnH18C24(N2O3)2
_chemical_formula_sum   'Zn2 H36 C48 N8 O12'
_cell_volume   1126.49360844
_cell_formula_units_Z   2
loop_
 _symmetry_equiv_pos_site_id
 _symmetry_equiv_pos_as_xyz
  1  'x, y, z'
loop_
 _atom_site_type_symbol
 _atom_site_label
 _atom_site_symmetry_multiplicity
 _atom_site_fract_x
 _atom_site_fract_y
 _atom_site_fract_z
 _atom_site_occupancy
 _atom_site_hle17_bader_spin_density
 _atom_site_hle17_ddec_charge
 _atom_site_hle17_ddec_spin_density
 _atom_site_hle17_ddec_sum_bond_order
 _atom_site_hle17_magmom
 _atom_site_hse06_10hf_bader_spin_density
 _atom_site_hse06_10hf_ddec_charge
 _atom_site_hse06_10hf_ddec_spin_density
 _atom_site_hse06_10hf_ddec_sum_bond_order
 _atom_site_hse06_10hf_magmom
 _atom_site_hse06_bader_spin_density
 _atom_site_hse06_ddec_charge
 _atom_site_hse06_ddec_spin_density
 _atom_site_hse06_ddec_sum_bond_order
 _atom_site_hse06_magmom
 _atom_site_pbe_bader_spin_density
 _atom_site_pbe_cm5_charge
 _atom_site_pbe_ddec_charge
 _atom_site_pbe_ddec_spin_density
 _atom_site_pbe_ddec_sum_bond_order
 _atom_site_pbe_magmom
Zn  Zn0  1  0.64022590  0.15388892  0.14564837  1  0  1.062252  0  1.794575  0  0  0.877597  0  2.255964  0  0  0.926411  0  2.198786  0  0  0.685564  0.841266  0  2.297045  0
Zn  Zn1  1  0.35977502  0.84611013  0.85435254  1  0  1.062231  0  1.79461  0  0  0.877547  0  2.255998  0  0  0.926357  0  2.198823  0  0  0.685553  0.841216  0  2.297077  0
H  H2  1  0.68016674  0.51411928  0.00089332  1  0  0.395534  0  0.910409  0  0  0.364584  0  0.98911  0  0  0.37601  0  0.973084  0  0  0.299481  0.356859  0  0.996761  0
H  H3  1  0.31982998  0.48588174  0.99910404  1  0  0.395568  0  0.9104  0  0  0.364648  0  0.98902  0  0  0.376074  0  0.972994  0  0  0.299527  0.356919  0  0.996699  0
H  H4  1  0.43121129  0.28741773  0.06804188  1  0  0.419546  0  0.887276  0  0  0.386976  0  0.953151  0  0  0.397624  0  0.937741  0  0  0.29256  0.379724  0  0.963381  0
H  H5  1  0.56879069  0.71258132  0.93195875  1  0  0.419544  0  0.887279  0  0  0.386988  0  0.953146  0  0  0.397623  0  0.937745  0  0  0.292554  0.379739  0  0.963371  0
H  H6  1  0.44462733  0.15581943  0.01379100  1  0  0.430158  0  0.873964  0  0  0.397314  0  0.940532  0  0  0.408249  0  0.92471  0  0  0.287579  0.38945  0  0.951805  0
H  H7  1  0.55537466  0.84417962  0.98621048  1  0  0.430159  0  0.873962  0  0  0.397324  0  0.940512  0  0  0.408259  0  0.924692  0  0  0.287587  0.389459  0  0.951787  0
H  H8  1  0.66609210  0.65706305  0.12177498  1  0  0.093898  0  0.972907  0  0  0.099883  0  1.044215  0  0  0.104704  0  1.039876  0  0  0.105065  0.097404  0  1.045508  0
H  H9  1  0.33390987  0.34293501  0.87822670  1  0  0.093822  0  0.972957  0  0  0.099834  0  1.04425  0  0  0.104659  0  1.039901  0  0  0.105083  0.097354  0  1.045545  0
H  H10  1  0.40138022  0.38348481  0.43248223  1  0  0.114898  0  0.932877  0  0  0.124262  0  0.99458  0  0  0.128441  0  0.991094  0  0  0.112542  0.121331  0  0.996803  0
H  H11  1  0.59861854  0.61651024  0.56751836  1  0  0.114825  0  0.933038  0  0  0.124242  0  0.994681  0  0  0.128422  0  0.99119  0  0  0.112509  0.121307  0  0.996914  0
H  H12  1  0.36050873  0.80687252  0.40294615  1  0  0.113663  0  0.94034  0  0  0.118875  0  1.007815  0  0  0.123519  0  1.003517  0  0  0.109037  0.115623  0  1.010826  0
H  H13  1  0.63948900  0.19312253  0.59705725  1  0  0.113657  0  0.940377  0  0  0.118861  0  1.007858  0  0  0.123506  0  1.003559  0  0  0.10904  0.115609  0  1.010869  0
H  H14  1  0.13877049  0.52832288  0.76578580  1  0  0.104636  0  0.96314  0  0  0.109378  0  1.033626  0  0  0.111852  0  1.032143  0  0  0.103058  0.107776  0  1.034205  0
H  H15  1  0.86122524  0.47168013  0.23421565  1  0  0.104597  0  0.96321  0  0  0.109333  0  1.033704  0  0  0.111804  0  1.032224  0  0  0.103034  0.107731  0  1.034282  0
H  H16  1  0.91917506  0.49830944  0.94149499  1  0  0.119863  0  0.94822  0  0  0.131884  0  1.004651  0  0  0.135293  0  1.003462  0  0  0.106204  0.129597  0  1.00549  0
H  H17  1  0.08081754  0.50169555  0.05850517  1  0  0.119869  0  0.948246  0  0  0.131894  0  1.004671  0  0  0.135304  0  1.003481  0  0  0.106196  0.129607  0  1.005509  0
H  H18  1  0.67280319  0.24251686  0.86618946  1  0  0.076907  0  0.961682  0  0  0.083999  0  1.027093  0  0  0.085878  0  1.02626  0  0  0.113702  0.0826  0  1.027746  0
H  H19  1  0.32719882  0.75748419  0.13381076  1  0  0.076884  0  0.961722  0  0  0.083989  0  1.027114  0  0  0.085867  0  1.026284  0  0  0.113698  0.082593  0  1.027766  0
H  H20  1  0.68441098  0.69918122  0.70110281  1  0  0.122008  0  0.972148  0  0  0.131129  0  1.03145  0  0  0.134593  0  1.030041  0  0  0.105688  0.128514  0  1.032771  0
H  H21  1  0.31558466  0.30081880  0.29889334  1  0  0.121961  0  0.972092  0  0  0.13107  0  1.031436  0  0  0.134507  0  1.030058  0  0  0.105657  0.128455  0  1.032757  0
H  H22  1  0.90595155  0.72971964  0.52447559  1  0  0.093525  0  0.948403  0  0  0.10606  0  1.008175  0  0  0.108538  0  1.006772  0  0  0.103401  0.104307  0  1.009046  0
H  H23  1  0.09404720  0.27027742  0.47552035  1  0  0.093555  0  0.94845  0  0  0.106056  0  1.008243  0  0  0.108534  0  1.006841  0  0  0.103402  0.104321  0  1.009098  0
H  H24  1  0.17651483  0.11809084  0.05905370  1  0  0.124178  0  0.975565  0  0  0.131602  0  1.038426  0  0  0.135623  0  1.035952  0  0  0.109146  0.128871  0  1.040023  0
H  H25  1  0.82348604  0.88190523  0.94094613  1  0  0.124238  0  0.975522  0  0  0.131644  0  1.038388  0  0  0.135663  0  1.035918  0  0  0.109154  0.128914  0  1.039982  0
H  H26  1  0.87057195  0.29016607  0.66981537  1  0  0.101173  0  0.994857  0  0  0.097256  0  1.076422  0  0  0.100979  0  1.074999  0  0  0.101048  0.094591  0  1.077629  0
H  H27  1  0.12942803  0.70984094  0.33018416  1  0  0.10121  0  0.994839  0  0  0.097321  0  1.076376  0  0  0.101044  0  1.074949  0  0  0.101046  0.094653  0  1.077586  0
H  H28  1  0.15734074  0.18695817  0.88661758  1  0  0.109392  0  0.974027  0  0  0.118173  0  1.036815  0  0  0.12078  0  1.036677  0  0  0.107727  0.116549  0  1.036642  0
H  H29  1  0.84266132  0.81304687  0.11338181  1  0  0.109422  0  0.973965  0  0  0.118191  0  1.036769  0  0  0.120797  0  1.036634  0  0  0.107761  0.116568  0  1.036596  0
H  H30  1  0.11895754  0.26573889  0.68251604  1  0  0.09445  0  0.929521  0  0  0.105208  0  0.988708  0  0  0.10804  0  0.986352  0  0  0.109807  0.103002  0  0.990791  0
H  H31  1  0.88104457  0.73426913  0.31748358  1  0  0.094422  0  0.929637  0  0  0.105222  0  0.988767  0  0  0.108026  0  0.986442  0  0  0.109817  0.103008  0  0.990858  0
H  H32  1  0.17854615  0.04682377  0.27411780  1  0  0.100935  0  0.918374  0  0  0.116638  0  0.966214  0  0  0.118962  0  0.964944  0  0  0.115277  0.115003  0  0.96726  0
H  H33  1  0.82145475  0.95317329  0.72588352  1  0  0.100881  0  0.918445  0  0  0.1166  0  0.966279  0  0  0.118921  0  0.965014  0  0  0.115285  0.114965  0  0.967321  0
H  H34  1  0.72487121  0.06600044  0.38477087  1  0  0.093437  0  0.905933  0  0  0.105236  0  0.959662  0  0  0.107894  0  0.957422  0  0  0.126992  0.10321  0  0.961421  0
H  H35  1  0.27513067  0.93399463  0.61522636  1  0  0.093438  0  0.905948  0  0  0.10525  0  0.959658  0  0  0.107908  0  0.957418  0  0  0.126994  0.103223  0  0.96142  0
H  H36  1  0.94692456  0.01880534  0.44267906  1  0  0.09308  0  0.972268  0  0  0.105536  0  1.029189  0  0  0.108078  0  1.028814  0  0  0.105641  0.103725  0  1.029459  0
H  H37  1  0.05307532  0.98119371  0.55732212  1  0  0.093079  0  0.972263  0  0  0.105531  0  1.029185  0  0  0.108074  0  1.028809  0  0  0.105654  0.10372  0  1.029458  0
C  C38  1  0.58246520  0.63897053  0.20797475  1  0  -0.076162  0  3.706273  0  0  -0.115075  0  3.958307  0  0  -0.112203  0  3.975286  0  0  -0.080027  -0.117553  0  3.94696  0
C  C39  1  0.41753471  0.36102951  0.79202792  1  0  -0.076058  0  3.706122  0  0  -0.114999  0  3.958169  0  0  -0.112122  0  3.975141  0  0  -0.080029  -0.117477  0  3.946821  0
C  C40  1  0.51989276  0.74685964  0.25573256  1  0  -0.065658  0  3.785764  0  0  -0.036819  0  4.016758  0  0  -0.045523  0  4.039922  0  0  -0.020538  -0.031691  0  4.002737  0
C  C41  1  0.48010606  0.25313841  0.74426995  1  0  -0.065633  0  3.785589  0  0  -0.036799  0  4.016594  0  0  -0.045502  0  4.039755  0  0  -0.020513  -0.031669  0  4.002568  0
C  C42  1  0.60359986  0.39488702  0.21316017  1  0  0.650657  0  3.87959  0  0  0.598483  0  4.174039  0  0  0.632671  0  4.166438  0  0  0.211247  0.575453  0  4.177681  0
C  C43  1  0.39639998  0.60511004  0.78684057  1  0  0.650557  0  3.879625  0  0  0.598321  0  4.174142  0  0  0.632506  0  4.166543  0  0  0.211188  0.575294  0  4.177779  0
C  C44  1  0.54031125  0.50778220  0.27041236  1  0  -0.059372  0  3.762944  0  0  -0.036211  0  4.005115  0  0  -0.044251  0  4.026927  0  0  -0.016589  -0.030962  0  3.990043  0
C  C45  1  0.45969070  0.49221487  0.72958953  1  0  -0.059331  0  3.762846  0  0  -0.036165  0  4.005061  0  0  -0.044205  0  4.026873  0  0  -0.016597  -0.030919  0  3.989987  0
C  C46  1  0.36533917  0.59259739  0.42634080  1  0  0.159051  0  3.824085  0  0  0.169412  0  4.07662  0  0  0.168366  0  4.100829  0  0  0.087462  0.169622  0  4.060018  0
C  C47  1  0.63465753  0.40739964  0.57366161  1  0  0.158951  0  3.824439  0  0  0.169299  0  4.076988  0  0  0.168254  0  4.101198  0  0  0.087354  0.169509  0  4.060385  0
C  C48  1  0.56872763  0.88640579  0.18764847  1  0  0.637756  0  3.917423  0  0  0.588153  0  4.209106  0  0  0.621881  0  4.202586  0  0  0.2027  0.565225  0  4.212761  0
C  C49  1  0.43127224  0.11359226  0.81235376  1  0  0.637878  0  3.917249  0  0  0.588282  0  4.20892  0  0  0.622008  0  4.202396  0  0  0.202761  0.565353  0  4.212575  0
C  C50  1  0.43397068  0.48484194  0.38183328  1  0  -0.103336  0  3.665703  0  0  -0.141564  0  3.918643  0  0  -0.140607  0  3.937174  0  0  -0.066512  -0.140707  0  3.90495  0
C  C51  1  0.56602915  0.51515512  0.61816662  1  0  -0.103288  0  3.665923  0  0  -0.141547  0  3.918832  0  0  -0.140588  0  3.937361  0  0  -0.066454  -0.14069  0  3.905134  0
C  C52  1  0.41056329  0.72361398  0.36524834  1  0  -0.119142  0  3.669798  0  0  -0.151877  0  3.912835  0  0  -0.150586  0  3.930338  0  0  -0.073234  -0.152861  0  3.90157  0
C  C53  1  0.58943762  0.27638308  0.63475467  1  0  -0.119087  0  3.669952  0  0  -0.151814  0  3.912987  0  0  -0.150521  0  3.930486  0  0  -0.073178  -0.152799  0  3.901719  0
C  C54  1  0.03877417  0.56282200  0.75174115  1  0  -0.086122  0  3.731418  0  0  -0.107314  0  3.981497  0  0  -0.10598  0  4.003332  0  0  -0.082509  -0.107495  0  3.967766  0
C  C55  1  0.96122156  0.43718101  0.24825946  1  0  -0.086015  0  3.731439  0  0  -0.107179  0  3.981489  0  0  -0.105845  0  4.003326  0  0  -0.08244  -0.107361  0  3.967756  0
C  C56  1  0.91732634  0.54706122  0.84939797  1  0  -0.201136  0  3.740219  0  0  -0.219572  0  3.990258  0  0  -0.227853  0  4.012005  0  0  -0.106994  -0.215174  0  3.977446  0
C  C57  1  0.08267040  0.45293981  0.15060193  1  0  -0.201203  0  3.740485  0  0  -0.219678  0  3.990499  0  0  -0.227961  0  4.012246  0  0  -0.106966  -0.21528  0  3.977687  0
C  C58  1  0.93527887  0.17597778  0.98353961  1  0  0.175619  0  3.751797  0  0  0.17057  0  3.994382  0  0  0.17737  0  4.013971  0  0  0.122707  0.166356  0  3.980459  0
C  C59  1  0.06472425  0.82402726  0.01646036  1  0  0.175547  0  3.751905  0  0  0.170528  0  3.994449  0  0  0.177327  0  4.014037  0  0  0.122742  0.166315  0  3.980526  0
C  C60  1  0.03399787  0.62592015  0.63351702  1  0  0.122931  0  3.862767  0  0  0.125668  0  4.117394  0  0  0.121038  0  4.144379  0  0  0.070358  0.127782  0  4.099904  0
C  C61  1  0.96600101  0.37408388  0.36648171  1  0  0.122973  0  3.862627  0  0  0.125683  0  4.117271  0  0  0.121055  0  4.14425  0  0  0.070339  0.127798  0  4.099785  0
C  C62  1  0.78868655  0.59200160  0.82962071  1  0  0.352201  0  3.796566  0  0  0.342202  0  4.053565  0  0  0.354878  0  4.070757  0  0  0.0903  0.334128  0  4.042229  0
C  C63  1  0.21130806  0.40799941  0.17037635  1  0  0.352225  0  3.796823  0  0  0.342342  0  4.053706  0  0  0.355023  0  4.070889  0  0  0.090313  0.334263  0  4.042377  0
C  C64  1  0.94883409  0.13219856  0.10856310  1  0  0.181585  0  3.754621  0  0  0.177253  0  3.996056  0  0  0.183817  0  4.016449  0  0  0.124624  0.172752  0  3.982993  0
C  C65  1  0.05116997  0.86779951  0.89143635  1  0  0.181689  0  3.754529  0  0  0.177323  0  3.995898  0  0  0.183892  0  4.016286  0  0  0.124662  0.17282  0  3.982837  0
C  C66  1  0.78206303  0.23102275  0.86578881  1  0  0.152218  0  3.676029  0  0  0.121467  0  3.924098  0  0  0.12861  0  3.941915  0  0  0.05542  0.116931  0  3.91193  0
C  C67  1  0.21793901  0.76898029  0.13421184  1  0  0.152267  0  3.676148  0  0  0.121515  0  3.924213  0  0  0.128658  0  3.942032  0  0  0.05547  0.116979  0  3.912044  0
C  C68  1  0.78428534  0.66058176  0.71290229  1  0  -0.198297  0  3.751579  0  0  -0.2172  0  4.003632  0  0  -0.225827  0  4.02672  0  0  -0.108429  -0.211787  0  3.988389  0
C  C69  1  0.21571032  0.33941926  0.28709534  1  0  -0.198281  0  3.751644  0  0  -0.217224  0  4.003702  0  0  -0.22583  0  4.026803  0  0  -0.108412  -0.211813  0  3.988472  0
C  C70  1  0.90661789  0.67774169  0.61620074  1  0  -0.100068  0  3.764045  0  0  -0.122398  0  4.015492  0  0  -0.122612  0  4.038479  0  0  -0.084286  -0.122243  0  4.000113  0
C  C71  1  0.09338095  0.32226034  0.38379755  1  0  -0.100124  0  3.764066  0  0  -0.122408  0  4.015526  0  0  -0.122622  0  4.038505  0  0  -0.084292  -0.122271  0  4.000149  0
C  C72  1  0.07807075  0.10774778  0.13277780  1  0  -0.135027  0  3.664493  0  0  -0.155542  0  3.914132  0  0  -0.162375  0  3.934759  0  0  -0.076439  -0.152001  0  3.902448  0
C  C73  1  0.92193118  0.89224829  0.86722261  1  0  -0.135199  0  3.664341  0  0  -0.155691  0  3.91399  0  0  -0.162526  0  3.934615  0  0  -0.076465  -0.152149  0  3.902305  0
C  C74  1  0.89232823  0.25806618  0.75750764  1  0  -0.116064  0  3.71734  0  0  -0.12427  0  3.967599  0  0  -0.132223  0  3.990791  0  0  -0.080147  -0.119485  0  3.953429  0
C  C75  1  0.10767271  0.74193486  0.24249201  1  0  -0.116118  0  3.717444  0  0  -0.124358  0  3.967727  0  0  -0.132308  0  3.990908  0  0  -0.080154  -0.119571  0  3.953557  0
C  C76  1  0.05144699  0.20086483  0.87868782  1  0  -0.136925  0  3.679766  0  0  -0.154971  0  3.926782  0  0  -0.161892  0  3.948517  0  0  -0.078059  -0.150773  0  3.912244  0
C  C77  1  0.94855510  0.79914220  0.12131200  1  0  -0.136891  0  3.679715  0  0  -0.154951  0  3.926735  0  0  -0.161868  0  3.948463  0  0  -0.078104  -0.150753  0  3.912196  0
C  C78  1  0.02941314  0.24314528  0.76470365  1  0  0.004399  0  3.726729  0  0  -0.015593  0  3.976938  0  0  -0.012481  0  3.996721  0  0  -0.063941  -0.017327  0  3.964772  0
C  C79  1  0.97058896  0.75686174  0.23529702  1  0  0.004375  0  3.726796  0  0  -0.015651  0  3.97702  0  0  -0.012507  0  3.996792  0  0  -0.063964  -0.017374  0  3.964853  0
C  C80  1  0.07887119  0.06611539  0.25372751  1  0  0.009548  0  3.722022  0  0  -0.008599  0  3.972651  0  0  -0.004769  0  3.991841  0  0  -0.059718  -0.011154  0  3.960825  0
C  C81  1  0.92113072  0.93387968  0.74627310  1  0  0.009641  0  3.722016  0  0  -0.008556  0  3.972679  0  0  -0.004721  0  3.991866  0  0  -0.059752  -0.01111  0  3.960849  0
C  C82  1  0.82744997  0.07645962  0.31587416  1  0  0.140885  0  3.704249  0  0  0.107043  0  3.961426  0  0  0.113745  0  3.97994  0  0  0.055365  0.10252  0  3.94883  0
C  C83  1  0.17255090  0.92353645  0.68412568  1  0  0.140923  0  3.704363  0  0  0.107033  0  3.96149  0  0  0.113735  0  3.980001  0  0  0.055366  0.102508  0  3.948892  0
C  C84  1  0.95163090  0.05027343  0.34686993  1  0  -0.123998  0  3.753029  0  0  -0.139334  0  4.011179  0  0  -0.146957  0  4.034129  0  0  -0.082546  -0.134126  0  3.995828  0
C  C85  1  0.04837109  0.94972662  0.65313050  1  0  -0.124003  0  3.753021  0  0  -0.139333  0  4.011182  0  0  -0.146956  0  4.034131  0  0  -0.082583  -0.134125  0  3.995831  0
N  N86  1  0.80276689  0.19124962  0.97581751  1  0  -0.351483  0  3.278258  0  0  -0.281119  0  3.549489  0  0  -0.298241  0  3.562454  0  0  -0.31314  -0.269105  0  3.539725  0
N  N87  1  0.19723513  0.80875243  0.02418250  1  0  -0.351428  0  3.278368  0  0  -0.281088  0  3.549603  0  0  -0.298208  0  3.562568  0  0  -0.313176  -0.269072  0  3.539837  0
N  N88  1  0.24946463  0.56303614  0.53315366  1  0  -0.162633  0  2.972338  0  0  -0.143105  0  3.255976  0  0  -0.144351  0  3.26525  0  0  -0.153674  -0.141867  0  3.248608  0
N  N89  1  0.75053209  0.43696288  0.46684749  1  0  -0.162666  0  2.97239  0  0  -0.143146  0  3.256035  0  0  -0.144399  0  3.265315  0  0  -0.153686  -0.141908  0  3.248667  0
N  N90  1  0.15006786  0.64446721  0.52887380  1  0  -0.157855  0  3.075457  0  0  -0.129938  0  3.359649  0  0  -0.127108  0  3.367427  0  0  -0.149064  -0.130612  0  3.353277  0
N  N91  1  0.84992988  0.35553083  0.47112644  1  0  -0.157819  0  3.075318  0  0  -0.129879  0  3.359486  0  0  -0.127049  0  3.367264  0  0  -0.149029  -0.130553  0  3.353115  0
N  N92  1  0.82680445  0.11628707  0.19962786  1  0  -0.351528  0  3.290402  0  0  -0.282459  0  3.558224  0  0  -0.300716  0  3.574676  0  0  -0.318149  -0.270129  0  3.547128  0
N  N93  1  0.17319749  0.88371000  0.80037149  1  0  -0.35161  0  3.290522  0  0  -0.282408  0  3.558191  0  0  -0.300663  0  3.574639  0  0  -0.318125  -0.270078  0  3.547093  0
O  O94  1  0.55594810  0.27681867  0.26698314  1  0  -0.61167  0  1.98146  0  0  -0.542135  0  2.224908  0  0  -0.56974  0  2.212349  0  0  -0.312445  -0.522616  0  2.233568  0
O  O95  1  0.44405073  0.72317937  0.73302106  1  0  -0.611606  0  1.981402  0  0  -0.54207  0  2.224922  0  0  -0.569677  0  2.212372  0  0  -0.312403  -0.522543  0  2.233567  0
O  O96  1  0.62314776  0.91050471  0.07239227  1  0  -0.640603  0  1.974937  0  0  -0.584017  0  2.19886  0  0  -0.608104  0  2.188228  0  0  -0.320444  -0.566688  0  2.204823  0
O  O97  1  0.37685211  0.08949334  0.92760997  1  0  -0.640663  0  1.97488  0  0  -0.584073  0  2.198794  0  0  -0.608176  0  2.188191  0  0  -0.320489  -0.566744  0  2.20475  0
O  O98  1  0.66628623  0.57299453  0.92141484  1  0  -0.538373  0  2.161923  0  0  -0.471637  0  2.366374  0  0  -0.495067  0  2.355643  0  0  -0.339508  -0.455905  0  2.369935  0
O  O99  1  0.33370732  0.42700548  0.07858440  1  0  -0.538422  0  2.162015  0  0  -0.471781  0  2.366465  0  0  -0.495214  0  2.355737  0  0  -0.339608  -0.456038  0  2.370042  0
O  O100  1  0.55419903  0.97401780  0.25098070  1  0  -0.617761  0  2.005101  0  0  -0.552157  0  2.254496  0  0  -0.580103  0  2.241212  0  0  -0.321205  -0.531752  0  2.263554  0
O  O101  1  0.44580187  0.02598025  0.74901957  1  0  -0.617823  0  2.005031  0  0  -0.552219  0  2.254425  0  0  -0.580161  0  2.24114  0  0  -0.321228  -0.531812  0  2.263482  0
O  O102  1  0.70019965  0.42003346  0.11117858  1  0  -0.646191  0  2.019497  0  0  -0.594097  0  2.256644  0  0  -0.617975  0  2.245277  0  0  -0.325379  -0.576966  0  2.261778  0
O  O103  1  0.29980119  0.57996261  0.88881787  1  0  -0.646159  0  2.01955  0  0  -0.594052  0  2.256707  0  0  -0.617943  0  2.24537  0  0  -0.325406  -0.576924  0  2.261845  0
O  O104  1  0.47924341  0.20115663  0.06648616  1  0  -0.850973  0  1.928992  0  0  -0.7848  0  2.146326  0  0  -0.806258  0  2.109815  0  0  -0.586702  -0.769155  0  2.171434  0
O  O105  1  0.52076067  0.79884344  0.93351287  1  0  -0.850975  0  1.928992  0  0  -0.784839  0  2.146292  0  0  -0.806276  0  2.109815  0  0  -0.586719  -0.769207  0  2.171429  0
