# generated using pymatgen
data_Zn4H12C18N6O13
_symmetry_space_group_name_H-M   'P 1'
_cell_length_a   16.02994596
_cell_length_b   15.89851496
_cell_length_c   18.25331439
_cell_angle_alpha   65.72250657
_cell_angle_beta   68.94345243
_cell_angle_gamma   64.36127752
_symmetry_Int_Tables_number   1
_chemical_formula_structural   Zn4H12C18N6O13
_chemical_formula_sum   'Zn8 H24 C36 N12 O26'
_cell_volume   3728.71060276
_cell_formula_units_Z   2
loop_
 _symmetry_equiv_pos_site_id
 _symmetry_equiv_pos_as_xyz
  1  'x, y, z'
loop_
 _atom_site_type_symbol
 _atom_site_label
 _atom_site_symmetry_multiplicity
 _atom_site_fract_x
 _atom_site_fract_y
 _atom_site_fract_z
 _atom_site_occupancy
 _atom_site_pbe_bader_charge
 _atom_site_pbe_bader_spin_density
 _atom_site_pbe_cm5_charge
 _atom_site_pbe_ddec_charge
 _atom_site_pbe_ddec_spin_density
 _atom_site_pbe_ddec_sum_bond_order
 _atom_site_pbe_magmom
Zn  Zn0  1  0.10316929  0.99376309  0.90813339  1  1.311132  0  0.671079  0.966669  0  2.336103  0
Zn  Zn1  1  0.91417001  0.92839916  0.99539423  1  1.312055  0  0.67194  0.967435  0  2.349693  0
Zn  Zn2  1  0.89782825  0.15155921  0.90421067  1  1.317927  0  0.682897  0.973122  0  2.363361  0
Zn  Zn3  1  0.96831736  0.03903700  0.07609522  1  1.324531  0  0.687008  0.985476  0  2.307755  0
Zn  Zn4  1  0.34955576  0.60367909  0.48464903  1  1.313306  0  0.66922  0.957194  0  2.407767  0
Zn  Zn5  1  0.52579823  0.57836704  0.53767292  1  1.317346  0  0.669319  0.96521  0  2.3729  0
Zn  Zn6  1  0.54866512  0.57770173  0.35628173  1  1.316509  0  0.664022  0.963059  0  2.37938  0
Zn  Zn7  1  0.51212829  0.39363777  0.51086745  1  1.315061  0  0.66793  0.97299  0  2.334456  0
H  H8  1  0.09311503  0.68864131  0.88860006  1  0.077979  0  0.126299  0.131077  0  0.946551  0
H  H9  1  0.20263096  0.68510247  0.89686904  1  0.088073  0  0.133773  0.134837  0  0.939389  0
H  H10  1  0.12988373  0.83786152  0.60289410  1  0.13381  0  0.128141  0.121447  0  0.967315  0
H  H11  1  0.32336822  0.66191169  0.76803220  1  0.144657  0  0.1334  0.130944  0  0.983479  0
H  H12  1  0.03614744  0.26509819  0.64837090  1  0.126012  0  0.131473  0.137655  0  0.93796  0
H  H13  1  0.15052120  0.17053872  0.64836241  1  0.078725  0  0.133406  0.135043  0  0.943083  0
H  H14  1  0.11113670  0.49924678  0.67884506  1  0.137086  0  0.126816  0.120825  0  0.969487  0
H  H15  1  0.28187023  0.23642464  0.60526293  1  0.154938  0  0.134529  0.132744  0  0.982632  0
H  H16  1  0.24184091  0.03506724  0.08878401  1  0.100943  0  0.126723  0.130354  0  0.938192  0
H  H17  1  0.32187703  0.95962640  0.02358127  1  0.089223  0  0.128063  0.129654  0  0.946665  0
H  H18  1  0.15870991  0.75815935  0.30342674  1  0.123329  0  0.127719  0.120838  0  0.973104  0
H  H19  1  0.40855542  0.83204667  0.14288959  1  0.138353  0  0.13384  0.131936  0  0.983429  0
H  H20  1  0.61569810  0.08447069  0.95412400  1  0.118082  0  0.134238  0.140465  0  0.937841  0
H  H21  1  0.67215907  0.03538612  0.87010479  1  0.076306  0  0.134273  0.138114  0  0.941119  0
H  H22  1  0.56628898  0.41696529  0.79699527  1  0.088841  0  0.125539  0.118473  0  0.972186  0
H  H23  1  0.65295215  0.15559621  0.72837857  1  0.133412  0  0.133718  0.131087  0  0.982257  0
H  H24  1  0.98452524  0.76236555  0.27738234  1  0.132306  0  0.132631  0.140668  0  0.954218  0
H  H25  1  0.98400077  0.69557160  0.21853631  1  0.065903  0  0.128381  0.12882  0  0.943571  0
H  H26  1  0.70080738  0.77533187  0.45910375  1  0.148298  0  0.127648  0.121459  0  0.96763  0
H  H27  1  0.81848621  0.67551618  0.24304405  1  0.135013  0  0.132452  0.131167  0  0.983867  0
H  H28  1  0.67034590  0.31484568  0.05936159  1  0.113728  0  0.133358  0.140125  0  0.93744  0
H  H29  1  0.74750697  0.37414340  0.04808410  1  0.113139  0  0.136331  0.139308  0  0.937989  0
H  H30  1  0.61696489  0.18159048  0.34868658  1  0.126752  0  0.128275  0.121792  0  0.968399  0
H  H31  1  0.70834262  0.42425443  0.16965762  1  0.141556  0  0.131626  0.128401  0  0.988071  0
C  C32  1  0.08996215  0.82192800  0.89533204  1  1.602903  0  0.235905  0.652365  0  4.129998  0
C  C33  1  0.14162088  0.72988364  0.86771193  1  0.344465  0  -0.038108  -0.234762  0  3.880265  0
C  C34  1  0.16330574  0.80009823  0.65525820  1  0.461328  0  0.027483  0.001592  0  4.005046  0
C  C35  1  0.25909407  0.73954168  0.65642747  1  0.03347  0  -0.043303  -0.152709  0  4.080517  0
C  C36  1  0.26447576  0.71009857  0.73818502  1  0.358874  0  0.03261  -0.084964  0  3.892652  0
C  C37  1  0.33366733  0.70121231  0.59165296  1  1.576655  0  0.215718  0.620125  0  4.207386  0
C  C38  1  0.06143024  0.17245792  0.76873533  1  1.606626  0  0.23949  0.654004  0  4.108793  0
C  C39  1  0.09659112  0.22514103  0.67829359  1  0.333699  0  -0.036522  -0.230187  0  3.852107  0
C  C40  1  0.13825425  0.42897988  0.66782070  1  0.442312  0  0.025722  -0.004739  0  4.00917  0
C  C41  1  0.23078011  0.38257078  0.62674628  1  0.0588  0  -0.043264  -0.153036  0  4.08397  0
C  C42  1  0.22814154  0.29481845  0.62974560  1  0.304126  0  0.028998  -0.090182  0  3.895084  0
C  C43  1  0.30820678  0.42311718  0.58306707  1  1.572136  0  0.218913  0.624103  0  4.200946  0
C  C44  1  0.17254372  0.99552783  0.03281326  1  1.606253  0  0.235554  0.651755  0  4.127383  0
C  C45  1  0.25490269  0.97261420  0.06946123  1  0.296117  0  -0.038119  -0.22694  0  3.842211  0
C  C46  1  0.20921052  0.78976862  0.25387654  1  0.508503  0  0.02555  -0.007071  0  4.005693  0
C  C47  1  0.30780376  0.76183277  0.24739651  1  0.01912  0  -0.041947  -0.15026  0  4.083682  0
C  C48  1  0.33881460  0.82530824  0.17275117  1  0.358735  0  0.028093  -0.093336  0  3.899238  0
C  C49  1  0.36307328  0.68901039  0.30906756  1  1.545621  0  0.221466  0.625859  0  4.197151  0
C  C50  1  0.76328184  0.06619701  0.91107882  1  1.610041  0  0.233551  0.641935  0  4.129  0
C  C51  1  0.66699937  0.09046156  0.89456236  1  0.330646  0  -0.03627  -0.24119  0  3.89307  0
C  C52  1  0.58995671  0.34253437  0.79531299  1  0.500559  0  0.02326  -0.007119  0  4.010146  0
C  C53  1  0.60481688  0.31186911  0.72741321  1  0.031321  0  -0.04099  -0.146682  0  4.072472  0
C  C54  1  0.63346890  0.21023186  0.75807405  1  0.341822  0  0.02633  -0.091777  0  3.894448  0
C  C55  1  0.58742491  0.37379291  0.64496119  1  1.587671  0  0.221023  0.626959  0  4.198423  0
C  C56  1  0.93173494  0.85151175  0.16634815  1  1.587906  0  0.238102  0.650719  0  4.101591  0
C  C57  1  0.94474485  0.75946800  0.24128735  1  0.325862  0  -0.036912  -0.233658  0  3.854839  0
C  C58  1  0.74320243  0.75799281  0.40233650  1  0.486102  0  0.024955  -0.003858  0  4.013015  0
C  C59  1  0.72692761  0.70946465  0.36133536  1  0.045843  0  -0.044003  -0.157323  0  4.08778  0
C  C60  1  0.80131555  0.70605407  0.29205141  1  0.36676  0  0.029608  -0.084674  0  3.886462  0
C  C61  1  0.65292105  0.66534796  0.38964740  1  1.539371  0  0.222314  0.628426  0  4.197349  0
C  C62  1  0.81522979  0.22535805  0.04908886  1  1.614811  0  0.238373  0.651033  0  4.123837  0
C  C63  1  0.73109941  0.30580503  0.07997648  1  0.307426  0  -0.034303  -0.23895  0  3.890209  0
C  C64  1  0.64455594  0.23247316  0.29379294  1  0.479275  0  0.026636  -0.00377  0  4.00225  0
C  C65  1  0.65118439  0.32198687  0.28642517  1  0.040412  0  -0.044122  -0.154063  0  4.08163  0
C  C66  1  0.69126770  0.35745276  0.20349969  1  0.3398  0  0.027807  -0.090822  0  3.904662  0
C  C67  1  0.61449205  0.37605168  0.34627478  1  1.561613  0  0.219589  0.62326  0  4.202179  0
N  N68  1  0.17666189  0.75142511  0.77953119  1  -0.820208  0  -0.145285  0.206972  0  3.795409  0
N  N69  1  0.11330374  0.80747912  0.72990303  1  -0.68321  0  -0.251898  -0.280665  0  3.10776  0
N  N70  1  0.13894029  0.29389531  0.66940061  1  -0.812697  0  -0.142041  0.202941  0  3.784587  0
N  N71  1  0.08265459  0.37510908  0.69392877  1  -0.658394  0  -0.248157  -0.269768  0  3.106266  0
N  N72  1  0.26145692  0.88480332  0.14046027  1  -0.811975  0  -0.14006  0.201157  0  3.77124  0
N  N73  1  0.18112029  0.86429589  0.18905093  1  -0.658305  0  -0.237333  -0.255921  0  3.136057  0
N  N74  1  0.63397380  0.18665730  0.83820484  1  -0.820295  0  -0.146324  0.206371  0  3.804565  0
N  N75  1  0.60687460  0.26669710  0.86265779  1  -0.667179  0  -0.2523  -0.276029  0  3.120624  0
N  N76  1  0.85581242  0.74911109  0.29571787  1  -0.819086  0  -0.142174  0.207239  0  3.775624  0
N  N77  1  0.82097544  0.78256559  0.36236862  1  -0.680302  0  -0.247295  -0.271477  0  3.1024  0
N  N78  1  0.70561754  0.29170689  0.16740418  1  -0.817422  0  -0.146672  0.207035  0  3.792501  0
N  N79  1  0.67636184  0.21479958  0.22144994  1  -0.665682  0  -0.244719  -0.265322  0  3.099467  0
O  O80  1  0.97134598  0.02652709  0.97160466  1  -1.23167  0  -0.571678  -1.040689  0  2.522236  0
O  O81  1  0.00771457  0.82844042  0.94129218  1  -1.173692  0  -0.314237  -0.549882  0  2.312873  0
O  O82  1  0.13556287  0.88021328  0.87201991  1  -1.158072  0  -0.314506  -0.545804  0  2.305304  0
O  O83  1  0.41681623  0.65358577  0.60622579  1  -1.173544  0  -0.320489  -0.551052  0  2.299866  0
O  O84  1  0.30954797  0.71474483  0.52675749  1  -1.172869  0  -0.332095  -0.564816  0  2.275984  0
O  O85  1  0.97273785  0.20438565  0.79719351  1  -1.162241  0  -0.303934  -0.530067  0  2.321382  0
O  O86  1  0.12360936  0.10114828  0.80611990  1  -1.17621  0  -0.315612  -0.553354  0  2.288803  0
O  O87  1  0.39021155  0.36610863  0.55808653  1  -1.180113  0  -0.323895  -0.558229  0  2.283238  0
O  O88  1  0.28551758  0.51460137  0.57237125  1  -1.165645  0  -0.325285  -0.5579  0  2.305872  0
O  O89  1  0.09219554  0.04979965  0.06187298  1  -1.16483  0  -0.31087  -0.551334  0  2.309278  0
O  O90  1  0.19266236  0.95899679  0.97567140  1  -1.152508  0  -0.313394  -0.543457  0  2.271266  0
O  O91  1  0.45276895  0.67133177  0.28932423  1  -1.168558  0  -0.322144  -0.557423  0  2.290255  0
O  O92  1  0.31537249  0.65052022  0.37878140  1  -1.176497  0  -0.324754  -0.552491  0  2.301106  0
O  O93  1  0.80454624  0.12918501  0.87317620  1  -1.167691  0  -0.303167  -0.531846  0  2.348539  0
O  O94  1  0.79203249  0.98267089  0.96324130  1  -1.17074  0  -0.317041  -0.546316  0  2.282477  0
O  O95  1  0.58071368  0.33316701  0.60045235  1  -1.175325  0  -0.328315  -0.566386  0  2.296621  0
O  O96  1  0.57955044  0.46345998  0.62540540  1  -1.167944  0  -0.320841  -0.549139  0  2.309924  0
O  O97  1  0.95720940  0.91796468  0.16398791  1  -1.153284  0  -0.299727  -0.53009  0  2.323364  0
O  O98  1  0.89848730  0.85096137  0.11288459  1  -1.167665  0  -0.318117  -0.554571  0  2.298871  0
O  O99  1  0.64156857  0.63765522  0.33821478  1  -1.170197  0  -0.32327  -0.553075  0  2.298207  0
O  O100  1  0.60656700  0.65743775  0.46439962  1  -1.178508  0  -0.323845  -0.557789  0  2.315693  0
O  O101  1  0.86598495  0.15702401  0.09810451  1  -1.161546  0  -0.300489  -0.523444  0  2.321843  0
O  O102  1  0.82503499  0.23829224  0.97321839  1  -1.172776  0  -0.318988  -0.556191  0  2.317626  0
O  O103  1  0.62060375  0.46200027  0.31775665  1  -1.183968  0  -0.32994  -0.568922  0  2.325973  0
O  O104  1  0.57794559  0.33484791  0.42047586  1  -1.170702  0  -0.319358  -0.545503  0  2.285922  0
O  O105  1  0.48668681  0.53556047  0.47234504  1  -1.229765  0  -0.575005  -1.031213  0  2.541898  0
