# generated using pymatgen
data_CuH8C10SIN2
_symmetry_space_group_name_H-M   'P 1'
_cell_length_a   9.09568246
_cell_length_b   9.93548631
_cell_length_c   13.38827085
_cell_angle_alpha   90.00006906
_cell_angle_beta   89.99998091
_cell_angle_gamma   100.80922990
_symmetry_Int_Tables_number   1
_chemical_formula_structural   CuH8C10SIN2
_chemical_formula_sum   'Cu4 H32 C40 S4 I4 N8'
_cell_volume   1188.43125483
_cell_formula_units_Z   4
loop_
 _symmetry_equiv_pos_site_id
 _symmetry_equiv_pos_as_xyz
  1  'x, y, z'
loop_
 _atom_site_type_symbol
 _atom_site_label
 _atom_site_symmetry_multiplicity
 _atom_site_fract_x
 _atom_site_fract_y
 _atom_site_fract_z
 _atom_site_occupancy
 _atom_site_pbe_bader_spin_density
 _atom_site_pbe_cm5_charge
 _atom_site_pbe_ddec_charge
 _atom_site_pbe_ddec_spin_density
 _atom_site_pbe_ddec_sum_bond_order
 _atom_site_pbe_magmom
Cu  Cu0  1  0.49282784  0.59902908  0.43856021  1  0  0.335584  0.172622  0  2.719441  0
Cu  Cu1  1  0.50717432  0.90097154  0.93855769  1  0  0.335565  0.172592  0  2.719473  0
Cu  Cu2  1  0.50716828  0.40097253  0.56144305  1  0  0.335572  0.172563  0  2.719538  0
Cu  Cu3  1  0.49282952  0.09902490  0.06144183  1  0  0.335586  0.172605  0  2.719465  0
H  H4  1  0.47102699  0.89226531  0.43092306  1  0  0.110603  0.080763  0  1.003811  0
H  H5  1  0.52897581  0.60773838  0.93092103  1  0  0.110594  0.080745  0  1.003776  0
H  H6  1  0.52897548  0.10774038  0.56907646  1  0  0.110575  0.080723  0  1.00381  0
H  H7  1  0.47102341  0.39225706  0.06907775  1  0  0.110583  0.080754  0  1.00373  0
H  H8  1  0.63614015  0.11819456  0.39788108  1  0  0.090633  0.111499  0  1.057077  0
H  H9  1  0.36386197  0.38180852  0.89787933  1  0  0.090639  0.111522  0  1.05705  0
H  H10  1  0.36386806  0.88180700  0.60211769  1  0  0.090629  0.111507  0  1.057026  0
H  H11  1  0.63613043  0.61819105  0.10211869  1  0  0.090627  0.111489  0  1.057021  0
H  H12  1  0.00646065  0.90212617  0.37572854  1  0  0.105492  0.121209  0  1.00003  0
H  H13  1  0.99354327  0.59787742  0.87572937  1  0  0.105484  0.121206  0  0.999981  0
H  H14  1  0.99354450  0.09787130  0.62427024  1  0  0.105464  0.121147  0  1.000084  0
H  H15  1  0.00645460  0.40212726  0.12427090  1  0  0.105479  0.121192  0  1.000066  0
H  H16  1  0.82500376  0.68642301  0.40655309  1  0  0.095223  0.067918  0  1.059953  0
H  H17  1  0.17499884  0.81357961  0.90655057  1  0  0.095234  0.06794  0  1.059986  0
H  H18  1  0.17499633  0.31357653  0.59344868  1  0  0.095221  0.067931  0  1.059955  0
H  H19  1  0.82500278  0.18642197  0.09344895  1  0  0.095216  0.06791  0  1.059969  0
H  H20  1  0.15732481  0.99350119  0.07130239  1  0  0.099613  0.072808  0  1.035201  0
H  H21  1  0.84266929  0.50649683  0.57130243  1  0  0.099613  0.072792  0  1.035242  0
H  H22  1  0.84267595  0.00649629  0.92869713  1  0  0.099601  0.072817  0  1.035238  0
H  H23  1  0.15732509  0.49350171  0.42869783  1  0  0.099611  0.072841  0  1.035196  0
H  H24  1  0.94815023  0.02267355  0.18423056  1  0  0.088207  0.108243  0  1.068589  0
H  H25  1  0.05184820  0.47732715  0.68422822  1  0  0.088207  0.108207  0  1.068609  0
H  H26  1  0.05185315  0.97732598  0.81577195  1  0  0.088175  0.108228  0  1.068634  0
H  H27  1  0.94814487  0.52267036  0.31577279  1  0  0.088179  0.108241  0  1.068615  0
H  H28  1  0.28037401  0.26736771  0.37623538  1  0  0.100296  0.114626  0  1.038609  0
H  H29  1  0.71962988  0.23263328  0.87623565  1  0  0.100321  0.114637  0  1.038625  0
H  H30  1  0.71963551  0.73263487  0.62376115  1  0  0.100337  0.114607  0  1.038631  0
H  H31  1  0.28036230  0.76736527  0.12376312  1  0  0.100344  0.114627  0  1.038668  0
H  H32  1  0.47279528  0.22288053  0.25790639  1  0  0.095608  0.077434  0  1.057087  0
H  H33  1  0.52720491  0.27711823  0.75790824  1  0  0.095604  0.077418  0  1.057089  0
H  H34  1  0.52721119  0.77711795  0.74209089  1  0  0.095634  0.077453  0  1.05705  0
H  H35  1  0.47278814  0.72288442  0.24209277  1  0  0.095641  0.077431  0  1.057074  0
C  C36  1  0.59088525  0.89898896  0.41890581  1  0  0.036605  0.094147  0  3.938675  0
C  C37  1  0.40911603  0.60101266  0.91890380  1  0  0.036639  0.094247  0  3.938516  0
C  C38  1  0.40911703  0.10101057  0.58109446  1  0  0.036635  0.094232  0  3.938668  0
C  C39  1  0.59088317  0.39898791  0.08109348  1  0  0.036629  0.094205  0  3.938583  0
C  C40  1  0.68289396  0.02475950  0.40080374  1  0  -0.095752  -0.177863  0  3.960683  0
C  C41  1  0.31710816  0.47524358  0.90080060  1  0  -0.0958  -0.178016  0  3.960787  0
C  C42  1  0.31711205  0.97524206  0.59919802  1  0  -0.095768  -0.177905  0  3.960796  0
C  C43  1  0.68288753  0.52475598  0.09919818  1  0  -0.095787  -0.177894  0  3.960732  0
C  C44  1  0.83611480  0.02939736  0.38434604  1  0  0.0042  0.0984  0  4.014573  0
C  C45  1  0.16388951  0.47060569  0.88434367  1  0  0.004166  0.098391  0  4.014585  0
C  C46  1  0.16389056  0.97060114  0.61565871  1  0  0.004159  0.098317  0  4.014691  0
C  C47  1  0.83610771  0.52939591  0.11565735  1  0  0.004188  0.098339  0  4.014567  0
C  C48  1  0.88872159  0.90550594  0.38714514  1  0  -0.093741  -0.184863  0  3.996299  0
C  C49  1  0.11128210  0.59449665  0.88714394  1  0  -0.093701  -0.184793  0  3.996248  0
C  C50  1  0.11128442  0.09449563  0.61285214  1  0  -0.093648  -0.184689  0  3.996314  0
C  C51  1  0.88871469  0.40550291  0.11285184  1  0  -0.093657  -0.184774  0  3.996309  0
C  C52  1  0.78808731  0.78474892  0.40489422  1  0  0.033554  0.088155  0  3.96735  0
C  C53  1  0.21191308  0.71525371  0.90489310  1  0  0.033492  0.088048  0  3.967402  0
C  C54  1  0.21191519  0.21525164  0.59510530  1  0  0.033521  0.088067  0  3.967417  0
C  C55  1  0.78808371  0.28474584  0.09510642  1  0  0.033517  0.088111  0  3.967447  0
C  C56  1  0.17937199  0.05086363  0.14096966  1  0  0.03017  0.086474  0  3.95168  0
C  C57  1  0.82062513  0.44913598  0.64096936  1  0  0.030218  0.086516  0  3.951595  0
C  C58  1  0.82063316  0.94913384  0.85903135  1  0  0.030216  0.086553  0  3.951557  0
C  C59  1  0.17936727  0.55086359  0.35903016  1  0  0.030176  0.086484  0  3.951589  0
C  C60  1  0.06323109  0.06891332  0.20356029  1  0  -0.094639  -0.177159  0  3.970372  0
C  C61  1  0.93676800  0.43108536  0.70355995  1  0  -0.09463  -0.177105  0  3.970286  0
C  C62  1  0.93677625  0.93108413  0.79644072  1  0  -0.094599  -0.17721  0  3.970477  0
C  C63  1  0.06322418  0.56891319  0.29644032  1  0  -0.09458  -0.177174  0  3.970415  0
C  C64  1  0.09633647  0.14858123  0.29022723  1  0  0.001264  0.088654  0  4.016962  0
C  C65  1  0.90366393  0.35141860  0.79022607  1  0  0.001258  0.088659  0  4.016976  0
C  C66  1  0.90367329  0.85141724  0.70977229  1  0  0.001209  0.088542  0  4.017228  0
C  C67  1  0.09632737  0.64858097  0.20977345  1  0  0.001229  0.088559  0  4.017207  0
C  C68  1  0.24626937  0.20513133  0.31020666  1  0  -0.092344  -0.169881  0  3.945976  0
C  C69  1  0.75373211  0.29486853  0.81020624  1  0  -0.092374  -0.169898  0  3.946046  0
C  C70  1  0.75374017  0.79486611  0.68979286  1  0  -0.092397  -0.169766  0  3.946215  0
C  C71  1  0.24625873  0.70513413  0.18979477  1  0  -0.092434  -0.169881  0  3.946172  0
C  C72  1  0.35531894  0.18012820  0.24345269  1  0  0.034875  0.099535  0  3.913127  0
C  C73  1  0.64467993  0.31986952  0.74345306  1  0  0.034865  0.099511  0  3.913153  0
C  C74  1  0.64468798  0.81986721  0.75654609  1  0  0.034875  0.099469  0  3.913234  0
C  C75  1  0.35531180  0.68013211  0.25654870  1  0  0.034895  0.099596  0  3.913192  0
S  S76  1  0.95368392  0.18987338  0.36721095  1  0  0.046734  0.024636  0  2.750543  0
S  S77  1  0.04631754  0.31013171  0.86720846  1  0  0.04675  0.024667  0  2.750476  0
S  S78  1  0.04632078  0.81012717  0.63279081  1  0  0.046777  0.024727  0  2.750795  0
S  S79  1  0.95368012  0.68987195  0.13279106  1  0  0.04678  0.024753  0  2.750619  0
I  I80  1  0.64881107  0.41222321  0.38888005  1  0  -0.208503  -0.403871  0  1.944253  0
I  I81  1  0.35118931  0.08777679  0.88887954  1  0  -0.208511  -0.40389  0  1.944265  0
I  I82  1  0.35118572  0.58777635  0.61112246  1  0  -0.208523  -0.403898  0  1.944303  0
I  I83  1  0.64881297  0.91222274  0.11112148  1  0  -0.208521  -0.403908  0  1.944307  0
N  N84  1  0.64057058  0.77916835  0.42117490  1  0  -0.362326  -0.201341  0  3.629065  0
N  N85  1  0.35943354  0.72083634  0.92117152  1  0  -0.362277  -0.201275  0  3.628971  0
N  N86  1  0.35943302  0.22083220  0.57882686  1  0  -0.362314  -0.201314  0  3.629094  0
N  N87  1  0.64056784  0.27916935  0.07882726  1  0  -0.362315  -0.201336  0  3.629182  0
N  N88  1  0.32440744  0.10544972  0.15943733  1  0  -0.361336  -0.192106  0  3.631278  0
N  N89  1  0.67558814  0.39454788  0.65943626  1  0  -0.361379  -0.192115  0  3.63126  0
N  N90  1  0.67559420  0.89454674  0.84056369  1  0  -0.361366  -0.192131  0  3.631093  0
N  N91  1  0.32440578  0.60545374  0.34056326  1  0  -0.361367  -0.192181  0  3.631173  0
