# generated using pymatgen
data_CaH6(CO2)3
_symmetry_space_group_name_H-M   'P 1'
_cell_length_a   6.71784756
_cell_length_b   9.76230644
_cell_length_c   12.18241917
_cell_angle_alpha   115.34189075
_cell_angle_beta   90.00012272
_cell_angle_gamma   89.99994457
_symmetry_Int_Tables_number   1
_chemical_formula_structural   CaH6(CO2)3
_chemical_formula_sum   'Ca4 H24 C12 O24'
_cell_volume   722.06113579
_cell_formula_units_Z   4
loop_
 _symmetry_equiv_pos_site_id
 _symmetry_equiv_pos_as_xyz
  1  'x, y, z'
loop_
 _atom_site_type_symbol
 _atom_site_label
 _atom_site_symmetry_multiplicity
 _atom_site_fract_x
 _atom_site_fract_y
 _atom_site_fract_z
 _atom_site_occupancy
 _atom_site_hle17_bader_spin_density
 _atom_site_hle17_ddec_charge
 _atom_site_hle17_ddec_spin_density
 _atom_site_hle17_ddec_sum_bond_order
 _atom_site_hle17_magmom
 _atom_site_hse06_10hf_bader_spin_density
 _atom_site_hse06_10hf_ddec_charge
 _atom_site_hse06_10hf_ddec_spin_density
 _atom_site_hse06_10hf_ddec_sum_bond_order
 _atom_site_hse06_10hf_magmom
 _atom_site_hse06_bader_spin_density
 _atom_site_hse06_ddec_charge
 _atom_site_hse06_ddec_spin_density
 _atom_site_hse06_ddec_sum_bond_order
 _atom_site_hse06_magmom
 _atom_site_pbe_bader_spin_density
 _atom_site_pbe_cm5_charge
 _atom_site_pbe_ddec_charge
 _atom_site_pbe_ddec_spin_density
 _atom_site_pbe_ddec_sum_bond_order
 _atom_site_pbe_magmom
Ca  Ca0  1  0.86575016  0.58259580  0.82292310  1  0  1.548066  0  1.11853  0  0  1.412752  0  1.469803  0  0  1.459141  0  1.422464  0  0  0.888673  1.378244  0  1.502785  0
Ca  Ca1  1  0.36574908  0.41740187  0.67707711  1  0  1.548083  0  1.118517  0  0  1.412734  0  1.469818  0  0  1.459129  0  1.422463  0  0  0.888662  1.378202  0  1.502853  0
Ca  Ca2  1  0.13424390  0.41740356  0.17707738  1  0  1.548078  0  1.118556  0  0  1.412751  0  1.46983  0  0  1.459127  0  1.4225  0  0  0.888686  1.378248  0  1.502816  0
Ca  Ca3  1  0.63424647  0.58259862  0.32292375  1  0  1.54808  0  1.118543  0  0  1.412749  0  1.469845  0  0  1.459146  0  1.422482  0  0  0.888681  1.378239  0  1.502857  0
H  H4  1  0.75571100  0.14682269  0.92899946  1  0  0.140969  0  0.928928  0  0  0.15396  0  0.985527  0  0  0.157509  0  0.982766  0  0  0.114467  0.151375  0  0.987724  0
H  H5  1  0.25571775  0.85317617  0.57100511  1  0  0.140976  0  0.928855  0  0  0.153979  0  0.985449  0  0  0.157509  0  0.982708  0  0  0.114458  0.151397  0  0.987647  0
H  H6  1  0.24428604  0.85317783  0.07100305  1  0  0.140996  0  0.928892  0  0  0.153972  0  0.985485  0  0  0.157519  0  0.982725  0  0  0.114463  0.151388  0  0.987683  0
H  H7  1  0.74428822  0.14682542  0.42899365  1  0  0.14098  0  0.928931  0  0  0.15397  0  0.985523  0  0  0.157518  0  0.982761  0  0  0.11446  0.151391  0  0.987713  0
H  H8  1  0.48944715  0.14999598  0.93408825  1  0  0.147747  0  0.914251  0  0  0.162368  0  0.9633  0  0  0.165864  0  0.961107  0  0  0.116587  0.15974  0  0.965228  0
H  H9  1  0.98945276  0.85000176  0.56591540  1  0  0.147753  0  0.914209  0  0  0.162374  0  0.963265  0  0  0.165862  0  0.96108  0  0  0.116589  0.159746  0  0.965192  0
H  H10  1  0.51055137  0.84999887  0.06591153  1  0  0.147757  0  0.914215  0  0  0.162366  0  0.963256  0  0  0.165853  0  0.961073  0  0  0.116582  0.159735  0  0.965188  0
H  H11  1  0.01055023  0.15000327  0.43408698  1  0  0.147752  0  0.914221  0  0  0.162373  0  0.963275  0  0  0.165871  0  0.961078  0  0  0.116607  0.159748  0  0.965204  0
H  H12  1  0.75458956  0.69323324  0.10326137  1  0  0.430796  0  0.869027  0  0  0.398048  0  0.934687  0  0  0.409508  0  0.918134  0  0  0.301504  0.38987  0  0.946488  0
H  H13  1  0.25459398  0.30676782  0.39673952  1  0  0.430706  0  0.869155  0  0  0.397989  0  0.934771  0  0  0.409448  0  0.918221  0  0  0.301488  0.389814  0  0.946565  0
H  H14  1  0.24540599  0.30676839  0.89673986  1  0  0.430725  0  0.869129  0  0  0.398006  0  0.934747  0  0  0.409465  0  0.918197  0  0  0.301492  0.389828  0  0.946547  0
H  H15  1  0.74541050  0.69323267  0.60326051  1  0  0.430809  0  0.869024  0  0  0.398056  0  0.93469  0  0  0.409518  0  0.918135  0  0  0.301514  0.38988  0  0.946487  0
H  H16  1  0.99572630  0.67530908  0.08809073  1  0  0.429919  0  0.872955  0  0  0.396918  0  0.939503  0  0  0.408718  0  0.922328  0  0  0.30228  0.388491  0  0.951763  0
H  H17  1  0.49572777  0.32469538  0.41191078  1  0  0.429928  0  0.872945  0  0  0.39694  0  0.939478  0  0  0.408737  0  0.922308  0  0  0.302283  0.388514  0  0.951737  0
H  H18  1  0.00426924  0.32469367  0.91191007  1  0  0.429915  0  0.872957  0  0  0.396942  0  0.939464  0  0  0.408739  0  0.922294  0  0  0.302285  0.388514  0  0.951726  0
H  H19  1  0.50427373  0.67530512  0.58809008  1  0  0.429931  0  0.872953  0  0  0.396934  0  0.939494  0  0  0.408733  0  0.92232  0  0  0.302271  0.388509  0  0.951751  0
H  H20  1  0.01359621  0.90050609  0.93224766  1  0  0.409537  0  0.856305  0  0  0.390128  0  0.917769  0  0  0.398827  0  0.907695  0  0  0.312414  0.383698  0  0.925347  0
H  H21  1  0.51360154  0.09948812  0.56774768  1  0  0.409545  0  0.856227  0  0  0.390128  0  0.917712  0  0  0.39883  0  0.907634  0  0  0.312413  0.383703  0  0.925283  0
H  H22  1  0.98641273  0.09948417  0.06774731  1  0  0.409556  0  0.856288  0  0  0.390131  0  0.91779  0  0  0.398833  0  0.907707  0  0  0.312406  0.383702  0  0.925374  0
H  H23  1  0.48640889  0.90051237  0.43225235  1  0  0.409545  0  0.856296  0  0  0.39013  0  0.917769  0  0  0.39883  0  0.907692  0  0  0.312398  0.383703  0  0.925348  0
H  H24  1  0.88334478  0.83622825  0.00707776  1  0  0.412005  0  0.900227  0  0  0.382538  0  0.962179  0  0  0.393513  0  0.945976  0  0  0.290208  0.374716  0  0.973763  0
H  H25  1  0.38334683  0.16377163  0.49291961  1  0  0.411991  0  0.900237  0  0  0.382519  0  0.962199  0  0  0.393495  0  0.945995  0  0  0.290207  0.374698  0  0.973782  0
H  H26  1  0.11665969  0.16377338  0.99292348  1  0  0.412007  0  0.900221  0  0  0.382534  0  0.962185  0  0  0.393508  0  0.945985  0  0  0.290203  0.374714  0  0.973767  0
H  H27  1  0.61666361  0.83622769  0.50707839  1  0  0.411991  0  0.900245  0  0  0.382523  0  0.962199  0  0  0.393498  0  0.945997  0  0  0.290196  0.374701  0  0.973783  0
C  C28  1  0.62411206  0.30871426  0.87366197  1  0  0.761079  0  3.800206  0  0  0.711269  0  4.104283  0  0  0.745731  0  4.095711  0  0  0.242432  0.687712  0  4.109387  0
C  C29  1  0.12411482  0.69128228  0.62633838  1  0  0.76093  0  3.800424  0  0  0.711176  0  4.104393  0  0  0.745638  0  4.09582  0  0  0.242398  0.687627  0  4.109489  0
C  C30  1  0.37588348  0.69128624  0.12633889  1  0  0.760961  0  3.800279  0  0  0.711156  0  4.104288  0  0  0.745619  0  4.095715  0  0  0.242385  0.687608  0  4.109383  0
C  C31  1  0.87588966  0.30871822  0.37366247  1  0  0.760944  0  3.800269  0  0  0.711196  0  4.104239  0  0  0.745659  0  4.095666  0  0  0.242445  0.687643  0  4.109343  0
C  C32  1  0.62347815  0.21972060  0.95147017  1  0  -0.42927  0  3.606239  0  0  -0.465947  0  3.842849  0  0  -0.475194  0  3.841378  0  0  -0.157369  -0.459648  0  3.843993  0
C  C33  1  0.12348344  0.78027819  0.54852930  1  0  -0.429236  0  3.606128  0  0  -0.46594  0  3.842716  0  0  -0.475166  0  3.841265  0  0  -0.157339  -0.459641  0  3.843859  0
C  C34  1  0.37652037  0.78027763  0.04852993  1  0  -0.42933  0  3.60627  0  0  -0.465936  0  3.842761  0  0  -0.475171  0  3.841294  0  0  -0.157387  -0.459636  0  3.843907  0
C  C35  1  0.87651955  0.21972115  0.45146953  1  0  -0.429185  0  3.606186  0  0  -0.465884  0  3.842747  0  0  -0.475131  0  3.841288  0  0  -0.15738  -0.459591  0  3.843895  0
C  C36  1  0.63144173  0.33214332  0.08466139  1  0  0.77777  0  3.812229  0  0  0.731644  0  4.106626  0  0  0.767395  0  4.096214  0  0  0.239161  0.707054  0  4.113199  0
C  C37  1  0.13144267  0.66785887  0.41534056  1  0  0.777622  0  3.812433  0  0  0.731486  0  4.106854  0  0  0.767236  0  4.096446  0  0  0.239063  0.706897  0  4.113425  0
C  C38  1  0.36855232  0.66785717  0.91533946  1  0  0.777697  0  3.812408  0  0  0.731552  0  4.106803  0  0  0.767299  0  4.096395  0  0  0.239149  0.706963  0  4.113369  0
C  C39  1  0.86855437  0.33214274  0.58465903  1  0  0.777643  0  3.812449  0  0  0.731521  0  4.106842  0  0  0.767268  0  4.096434  0  0  0.239105  0.706926  0  4.113422  0
O  O40  1  0.78843249  0.36559360  0.86193883  1  0  -0.694303  0  2.012357  0  0  -0.630698  0  2.247858  0  0  -0.658577  0  2.237423  0  0  -0.335458  -0.610876  0  2.254508  0
O  O41  1  0.28843984  0.63439838  0.63805773  1  0  -0.694335  0  2.012578  0  0  -0.630657  0  2.247963  0  0  -0.658545  0  2.237539  0  0  -0.335443  -0.610836  0  2.254618  0
O  O42  1  0.21156008  0.63440351  0.13806171  1  0  -0.694316  0  2.012529  0  0  -0.630625  0  2.24795  0  0  -0.658513  0  2.237531  0  0  -0.335412  -0.61081  0  2.254605  0
O  O43  1  0.71155868  0.36560206  0.36193900  1  0  -0.69439  0  2.012386  0  0  -0.630742  0  2.247797  0  0  -0.658632  0  2.237376  0  0  -0.335501  -0.610922  0  2.254457  0
O  O44  1  0.45962475  0.32277160  0.82769892  1  0  -0.693061  0  1.981538  0  0  -0.629274  0  2.212645  0  0  -0.657499  0  2.202819  0  0  -0.331096  -0.60924  0  2.218847  0
O  O45  1  0.95962807  0.67722265  0.67229778  1  0  -0.692972  0  1.981577  0  0  -0.629232  0  2.212688  0  0  -0.657461  0  2.202868  0  0  -0.331072  -0.609201  0  2.218885  0
O  O46  1  0.54037526  0.67722664  0.17230200  1  0  -0.693012  0  1.98137  0  0  -0.629265  0  2.212499  0  0  -0.6575  0  2.202679  0  0  -0.331099  -0.609237  0  2.218698  0
O  O47  1  0.04037640  0.32277667  0.32769939  1  0  -0.692945  0  1.981609  0  0  -0.629205  0  2.212698  0  0  -0.657432  0  2.202874  0  0  -0.331062  -0.609172  0  2.218899  0
O  O48  1  0.79558512  0.39743606  0.12920913  1  0  -0.756021  0  2.010534  0  0  -0.69676  0  2.268541  0  0  -0.726166  0  2.257699  0  0  -0.394573  -0.675859  0  2.275414  0
O  O49  1  0.29558896  0.60256387  0.37079144  1  0  -0.75596  0  2.01035  0  0  -0.69671  0  2.268415  0  0  -0.726095  0  2.257522  0  0  -0.394555  -0.675811  0  2.275287  0
O  O50  1  0.20441043  0.60256445  0.87079255  1  0  -0.755946  0  2.010424  0  0  -0.696683  0  2.268429  0  0  -0.7261  0  2.257615  0  0  -0.394568  -0.675784  0  2.275299  0
O  O51  1  0.70440807  0.39743320  0.62920663  1  0  -0.755971  0  2.010404  0  0  -0.696689  0  2.268357  0  0  -0.726111  0  2.257547  0  0  -0.394562  -0.675779  0  2.275224  0
O  O52  1  0.47276750  0.36329406  0.14731694  1  0  -0.736353  0  1.987061  0  0  -0.673994  0  2.234022  0  0  -0.70361  0  2.223456  0  0  -0.389045  -0.652797  0  2.24057  0
O  O53  1  0.97277307  0.63670819  0.35268708  1  0  -0.736207  0  1.987232  0  0  -0.673897  0  2.234278  0  0  -0.703518  0  2.223723  0  0  -0.388983  -0.652697  0  2.240817  0
O  O54  1  0.52722210  0.63670648  0.85268640  1  0  -0.736278  0  1.987308  0  0  -0.673957  0  2.234311  0  0  -0.703568  0  2.223746  0  0  -0.388992  -0.652762  0  2.240862  0
O  O55  1  0.02722099  0.36329230  0.64731295  1  0  -0.736287  0  1.987361  0  0  -0.673956  0  2.234361  0  0  -0.703569  0  2.223796  0  0  -0.388975  -0.652755  0  2.240908  0
O  O56  1  0.87105831  0.69875087  0.05436434  1  0  -0.89772  0  1.870654  0  0  -0.837655  0  2.052554  0  0  -0.860266  0  2.018203  0  0  -0.593165  -0.821377  0  2.0768  0
O  O57  1  0.37106293  0.30125016  0.44563422  1  0  -0.897655  0  1.870766  0  0  -0.83761  0  2.052592  0  0  -0.860221  0  2.018246  0  0  -0.593141  -0.82133  0  2.076835  0
O  O58  1  0.12893723  0.30125188  0.94563645  1  0  -0.897667  0  1.870721  0  0  -0.83763  0  2.052554  0  0  -0.86024  0  2.018211  0  0  -0.59315  -0.821353  0  2.076799  0
O  O59  1  0.62894006  0.69875033  0.55436581  1  0  -0.897752  0  1.870662  0  0  -0.837683  0  2.052571  0  0  -0.860297  0  2.018216  0  0  -0.593159  -0.821406  0  2.076814  0
O  O60  1  0.87793709  0.87038722  0.94036528  1  0  -0.851151  0  1.794213  0  0  -0.805294  0  1.95808  0  0  -0.824875  0  1.931817  0  0  -0.607041  -0.791103  0  1.976773  0
O  O61  1  0.37793900  0.12961043  0.55963329  1  0  -0.85115  0  1.794122  0  0  -0.805286  0  1.957982  0  0  -0.824869  0  1.931714  0  0  -0.607035  -0.791094  0  1.976669  0
O  O62  1  0.12206887  0.12961101  0.05963482  1  0  -0.851176  0  1.794197  0  0  -0.805321  0  1.95806  0  0  -0.8249  0  1.931792  0  0  -0.60704  -0.791132  0  1.976753  0
O  O63  1  0.62206846  0.87038779  0.44036599  1  0  -0.851144  0  1.794236  0  0  -0.805282  0  1.958108  0  0  -0.824867  0  1.931842  0  0  -0.607012  -0.791093  0  1.9768  0
