# generated using pymatgen
data_CdH17C17N5O4
_symmetry_space_group_name_H-M   'P 1'
_cell_length_a   8.04070276
_cell_length_b   10.13941649
_cell_length_c   12.53889774
_cell_angle_alpha   71.37940709
_cell_angle_beta   71.30395161
_cell_angle_gamma   66.62712519
_symmetry_Int_Tables_number   1
_chemical_formula_structural   CdH17C17N5O4
_chemical_formula_sum   'Cd2 H34 C34 N10 O8'
_cell_volume   866.89793494
_cell_formula_units_Z   2
loop_
 _symmetry_equiv_pos_site_id
 _symmetry_equiv_pos_as_xyz
  1  'x, y, z'
loop_
 _atom_site_type_symbol
 _atom_site_label
 _atom_site_symmetry_multiplicity
 _atom_site_fract_x
 _atom_site_fract_y
 _atom_site_fract_z
 _atom_site_occupancy
 _atom_site_hle17_bader_spin_density
 _atom_site_hle17_ddec_charge
 _atom_site_hle17_ddec_spin_density
 _atom_site_hle17_ddec_sum_bond_order
 _atom_site_hle17_magmom
 _atom_site_hse06_10hf_bader_spin_density
 _atom_site_hse06_10hf_ddec_charge
 _atom_site_hse06_10hf_ddec_spin_density
 _atom_site_hse06_10hf_ddec_sum_bond_order
 _atom_site_hse06_10hf_magmom
 _atom_site_hse06_bader_spin_density
 _atom_site_hse06_ddec_charge
 _atom_site_hse06_ddec_spin_density
 _atom_site_hse06_ddec_sum_bond_order
 _atom_site_hse06_magmom
 _atom_site_pbe_bader_spin_density
 _atom_site_pbe_cm5_charge
 _atom_site_pbe_ddec_charge
 _atom_site_pbe_ddec_spin_density
 _atom_site_pbe_ddec_sum_bond_order
 _atom_site_pbe_magmom
Cd  Cd0  1  0.48489197  0.19348164  0.70469734  1  0  1.070845  0  1.695295  0  0  0.867509  0  2.132413  0  0  0.926503  0  2.082696  0  0  0.774988  0.825758  0  2.166226  0
Cd  Cd1  1  0.61712491  0.69340630  0.20451458  1  0  1.071367  0  1.694311  0  0  0.868206  0  2.131496  0  0  0.92722  0  2.081783  0  0  0.775127  0.826441  0  2.165427  0
H  H2  1  0.35847057  0.14374310  0.00602974  1  0  0.107998  0  0.944966  0  0  0.113935  0  1.014003  0  0  0.117243  0  1.009912  0  0  0.133929  0.111306  0  1.017347  0
H  H3  1  0.49134061  0.64376332  0.50579775  1  0  0.106577  0  0.946276  0  0  0.112619  0  1.015299  0  0  0.115943  0  1.011143  0  0  0.133185  0.109999  0  1.018564  0
H  H4  1  0.52587734  0.48979656  0.76100384  1  0  0.097465  0  0.969155  0  0  0.107157  0  1.031359  0  0  0.109727  0  1.029851  0  0  0.111726  0.105293  0  1.032504  0
H  H5  1  0.22271030  0.98988677  0.26078178  1  0  0.097645  0  0.969895  0  0  0.107459  0  1.031953  0  0  0.110046  0  1.030437  0  0  0.112004  0.105506  0  1.033226  0
H  H6  1  0.43771092  0.54226114  0.98193259  1  0  0.122752  0  0.962074  0  0  0.129708  0  1.027881  0  0  0.132409  0  1.02644  0  0  0.121689  0.127359  0  1.029645  0
H  H7  1  0.03803052  0.04260812  0.48168665  1  0  0.123205  0  0.959751  0  0  0.129827  0  1.026038  0  0  0.132561  0  1.024572  0  0  0.121766  0.127522  0  1.027774  0
H  H8  1  0.26715326  0.22780314  0.18860743  1  0  0.070366  0  0.925988  0  0  0.087894  0  0.98866  0  0  0.088445  0  0.988329  0  0  0.110458  0.087366  0  0.9891  0
H  H9  1  0.31706990  0.72804610  0.68813794  1  0  0.071686  0  0.926567  0  0  0.088948  0  0.98943  0  0  0.089555  0  0.989006  0  0  0.110939  0.088458  0  0.989732  0
H  H10  1  0.21804814  0.41779497  0.17549882  1  0  0.081506  0  0.921277  0  0  0.096806  0  0.98482  0  0  0.097031  0  0.985009  0  0  0.111764  0.096586  0  0.984693  0
H  H11  1  0.18877398  0.91793223  0.67526681  1  0  0.082063  0  0.921293  0  0  0.097321  0  0.984558  0  0  0.097538  0  0.984725  0  0  0.111481  0.097015  0  0.98459  0
H  H12  1  0.53619487  0.37609016  0.18599190  1  0  0.086957  0  0.93604  0  0  0.104528  0  0.997238  0  0  0.10536  0  0.997706  0  0  0.09452  0.103932  0  0.996962  0
H  H13  1  0.90201224  0.87576158  0.68629590  1  0  0.085831  0  0.935582  0  0  0.103539  0  0.996573  0  0  0.104357  0  0.997088  0  0  0.09419  0.102898  0  0.996337  0
H  H14  1  0.43099702  0.26358746  0.30492304  1  0  0.071442  0  0.9529  0  0  0.090754  0  1.011594  0  0  0.090448  0  1.014031  0  0  0.092599  0.091013  0  1.00984  0
H  H15  1  0.00156940  0.76296827  0.80491421  1  0  0.07129  0  0.951955  0  0  0.090419  0  1.010839  0  0  0.090105  0  1.01331  0  0  0.092241  0.090638  0  1.009098  0
H  H16  1  0.71855767  0.16456529  0.09103239  1  0  0.072689  0  0.941436  0  0  0.090235  0  1.00257  0  0  0.089981  0  1.005247  0  0  0.091857  0.090519  0  1.000427  0
H  H17  1  0.02675881  0.66457648  0.59074878  1  0  0.072378  0  0.941062  0  0  0.09015  0  1.002271  0  0  0.089846  0  1.005004  0  0  0.092234  0.0903  0  1.000522  0
H  H18  1  0.59914341  0.05168144  0.19912226  1  0  0.068879  0  0.941873  0  0  0.085  0  1.007721  0  0  0.085305  0  1.008772  0  0  0.089604  0.084768  0  1.00705  0
H  H19  1  0.15068879  0.55142632  0.69897377  1  0  0.069488  0  0.941879  0  0  0.086355  0  1.007049  0  0  0.086576  0  1.008165  0  0  0.090281  0.086038  0  1.006459  0
H  H20  1  0.91802760  0.00231408  0.22313080  1  0  0.066778  0  0.94873  0  0  0.081688  0  1.014342  0  0  0.081413  0  1.015501  0  0  0.104634  0.08177  0  1.013661  0
H  H21  1  0.85701101  0.50246744  0.72260826  1  0  0.067983  0  0.949404  0  0  0.082426  0  1.015144  0  0  0.082151  0  1.016306  0  0  0.105326  0.082587  0  1.014343  0
H  H22  1  0.85040705  0.18530217  0.23988432  1  0  0.082746  0  0.934594  0  0  0.101229  0  0.993897  0  0  0.102121  0  0.993189  0  0  0.114024  0.100396  0  0.99465  0
H  H23  1  0.72503541  0.68551590  0.73923666  1  0  0.084064  0  0.936422  0  0  0.103034  0  0.994878  0  0  0.103996  0  0.994099  0  0  0.114922  0.102104  0  0.995741  0
H  H24  1  0.69878594  0.24143084  0.42802368  1  0  0.102241  0  0.986678  0  0  0.108492  0  1.057152  0  0  0.111084  0  1.05432  0  0  0.129301  0.106444  0  1.059334  0
H  H25  1  0.63204874  0.74169733  0.92750317  1  0  0.103115  0  0.986613  0  0  0.10975  0  1.056706  0  0  0.112285  0  1.05394  0  0  0.13016  0.107686  0  1.05889  0
H  H26  1  0.56367290  0.85875166  0.62244892  1  0  0.102024  0  0.980342  0  0  0.111312  0  1.043672  0  0  0.113944  0  1.042012  0  0  0.112759  0.109335  0  1.045059  0
H  H27  1  0.95513018  0.35876495  0.12204155  1  0  0.100732  0  0.98162  0  0  0.110278  0  1.044575  0  0  0.11289  0  1.042951  0  0  0.112324  0.10822  0  1.046149  0
H  H28  1  0.72273679  0.83182434  0.39315325  1  0  0.126883  0  0.973561  0  0  0.13291  0  1.040503  0  0  0.136331  0  1.038081  0  0  0.119249  0.130071  0  1.042949  0
H  H29  1  0.05222505  0.33180991  0.89277996  1  0  0.126652  0  0.973519  0  0  0.13246  0  1.040813  0  0  0.135859  0  1.03839  0  0  0.119285  0.129936  0  1.042566  0
H  H30  1  0.07754591  0.21612238  0.71308749  1  0  0.086249  0  0.972938  0  0  0.091238  0  1.043213  0  0  0.094773  0  1.039557  0  0  0.113849  0.088589  0  1.045999  0
H  H31  1  0.99360085  0.71601456  0.21300746  1  0  0.085781  0  0.973535  0  0  0.090986  0  1.043599  0  0  0.094426  0  1.040031  0  0  0.113811  0.088428  0  1.046285  0
H  H32  1  0.19314452  0.54264139  0.33309474  1  0  0.126754  0  0.969737  0  0  0.135274  0  1.031527  0  0  0.139573  0  1.029275  0  0  0.109092  0.132095  0  1.033501  0
H  H33  1  0.93067676  0.04285221  0.83317120  1  0  0.127055  0  0.970349  0  0  0.13502  0  1.032776  0  0  0.139408  0  1.030382  0  0  0.108332  0.13181  0  1.034666  0
H  H34  1  0.40168064  0.45297539  0.46928149  1  0  0.084431  0  0.942101  0  0  0.09295  0  1.008077  0  0  0.095703  0  1.005083  0  0  0.117941  0.090794  0  1.010517  0
H  H35  1  0.67596354  0.95269161  0.96930941  1  0  0.082919  0  0.942425  0  0  0.091863  0  1.008126  0  0  0.094555  0  1.005112  0  0  0.117246  0.089812  0  1.010357  0
C  C36  1  0.39408866  0.24428612  0.96769789  1  0  0.150622  0  3.664905  0  0  0.09193  0  3.930554  0  0  0.104773  0  3.945152  0  0  0.136803  0.083655  0  3.920633  0
C  C37  1  0.39351596  0.74431201  0.46743676  1  0  0.151505  0  3.665383  0  0  0.09287  0  3.931023  0  0  0.105744  0  3.945582  0  0  0.137214  0.084608  0  3.92106  0
C  C38  1  0.47816673  0.42611451  0.84484925  1  0  -0.009156  0  3.774502  0  0  -0.042913  0  4.04269  0  0  -0.041206  0  4.063372  0  0  -0.011808  -0.044053  0  4.028517  0
C  C39  1  0.25034303  0.92616772  0.34461706  1  0  -0.011294  0  3.775663  0  0  -0.045174  0  4.04386  0  0  -0.043525  0  4.064607  0  0  -0.012762  -0.046162  0  4.029709  0
C  C40  1  0.43629064  0.45303705  0.95282320  1  0  -0.054842  0  3.65378  0  0  -0.095979  0  3.911962  0  0  -0.09367  0  3.930364  0  0  0.000726  -0.097219  0  3.899692  0
C  C41  1  0.15760911  0.95325680  0.45258332  1  0  -0.05546  0  3.653174  0  0  -0.09622  0  3.911642  0  0  -0.09393  0  3.930066  0  0  2e-06  -0.097682  0  3.899595  0
C  C42  1  0.32828531  0.31655616  0.15530017  1  0  0.01179  0  3.62128  0  0  -0.053558  0  3.884737  0  0  -0.048447  0  3.895301  0  0  -0.048533  -0.056806  0  3.877366  0
C  C43  1  0.20016367  0.81666446  0.65504831  1  0  0.008069  0  3.62413  0  0  -0.057045  0  3.887413  0  0  -0.051883  0  3.897885  0  0  -0.049321  -0.060247  0  3.880059  0
C  C44  1  0.48879305  0.28021739  0.21125187  1  0  -0.13465  0  3.681203  0  0  -0.176031  0  3.942216  0  0  -0.177463  0  3.95589  0  0  -0.168451  -0.174908  0  3.93266  0
C  C45  1  0.02033826  0.77995317  0.71124504  1  0  -0.132918  0  3.679118  0  0  -0.173798  0  3.939887  0  0  -0.175281  0  3.95361  0  0  -0.167417  -0.172589  0  3.9303  0
C  C46  1  0.65044372  0.14357962  0.18321284  1  0  -0.128655  0  3.691161  0  0  -0.171174  0  3.955938  0  0  -0.172868  0  3.970873  0  0  -0.167415  -0.169761  0  3.945354  0
C  C47  1  0.02343344  0.64344406  0.68299954  1  0  -0.127103  0  3.690282  0  0  -0.170896  0  3.956214  0  0  -0.172485  0  3.971147  0  0  -0.167803  -0.169605  0  3.945899  0
C  C48  1  0.79952505  0.09474663  0.25179576  1  0  0.003785  0  3.616814  0  0  -0.058333  0  3.871364  0  0  -0.053866  0  3.882831  0  0  -0.050157  -0.061046  0  3.863365  0
C  C49  1  0.85444645  0.59484995  0.75130236  1  0  -0.00114  0  3.622946  0  0  -0.062986  0  3.877455  0  0  -0.058544  0  3.888858  0  0  -0.052712  -0.065821  0  3.869764  0
C  C50  1  0.67816551  0.13517092  0.45238892  1  0  0.142201  0  3.674429  0  0  0.082004  0  3.937976  0  0  0.09504  0  3.952176  0  0  0.132677  0.073824  0  3.927917  0
C  C51  1  0.73452700  0.63539213  0.95190578  1  0  0.142787  0  3.671651  0  0  0.082099  0  3.935619  0  0  0.095161  0  3.949932  0  0  0.132019  0.073743  0  3.925539  0
C  C52  1  0.61511874  0.93369618  0.54767947  1  0  -0.005246  0  3.759763  0  0  -0.040521  0  4.029386  0  0  -0.038139  0  4.049414  0  0  -0.010547  -0.042098  0  4.015795  0
C  C53  1  0.90359229  0.43380344  0.04726520  1  0  -0.003395  0  3.760694  0  0  -0.038673  0  4.030046  0  0  -0.036298  0  4.050131  0  0  -0.010232  -0.040665  0  4.017078  0
C  C54  1  0.69143168  0.92038396  0.43480816  1  0  -0.068945  0  3.653832  0  0  -0.107552  0  3.909786  0  0  -0.106296  0  3.928318  0  0  -0.003686  -0.108267  0  3.897702  0
C  C55  1  0.95343085  0.42045336  0.93440297  1  0  -0.070372  0  3.651641  0  0  -0.108933  0  3.908045  0  0  -0.10764  0  3.926618  0  0  -0.004601  -0.109748  0  3.895736  0
C  C56  1  0.09798974  0.28840791  0.62798021  1  0  0.111585  0  3.701787  0  0  0.072142  0  3.953274  0  0  0.081459  0  3.968088  0  0  0.043892  0.065788  0  3.944122  0
C  C57  1  0.98578187  0.78828119  0.12790986  1  0  0.111029  0  3.699869  0  0  0.070887  0  3.952967  0  0  0.08064  0  3.966952  0  0  0.042407  0.064203  0  3.944123  0
C  C58  1  0.97115409  0.33303108  0.55886004  1  0  -0.123891  0  3.729502  0  0  -0.106295  0  3.965902  0  0  -0.116487  0  3.985157  0  0  -0.012211  -0.099877  0  3.953466  0
C  C59  1  0.13707133  0.83289560  0.05873074  1  0  -0.122847  0  3.729561  0  0  -0.105455  0  3.965516  0  0  -0.115622  0  3.98477  0  0  -0.011763  -0.099187  0  3.953362  0
C  C60  1  0.80188037  0.28552292  0.60740907  1  0  0.633177  0  3.95295  0  0  0.582453  0  4.249222  0  0  0.617019  0  4.24302  0  0  0.190087  0.559031  0  4.252655  0
C  C61  1  0.30543366  0.78532453  0.10719574  1  0  0.635254  0  3.956989  0  0  0.584864  0  4.252609  0  0  0.619372  0  4.246444  0  0  0.19092  0.561428  0  4.256148  0
C  C62  1  0.00409264  0.42504703  0.44929017  1  0  0.01635  0  3.66952  0  0  0.023079  0  3.90482  0  0  0.026087  0  3.919871  0  0  0.014405  0.020702  0  3.895206  0
C  C63  1  0.12141916  0.92501143  0.94921282  1  0  0.012646  0  3.669305  0  0  0.020381  0  3.903501  0  0  0.023293  0  3.918632  0  0  0.013673  0.0183  0  3.893779  0
C  C64  1  0.88242567  0.46833398  0.36537601  1  0  0.648633  0  3.958095  0  0  0.594929  0  4.266792  0  0  0.629886  0  4.255875  0  0  0.198587  0.570976  0  4.273384  0
C  C65  1  0.28377805  0.96811773  0.86528402  1  0  0.652704  0  3.956959  0  0  0.598918  0  4.2651  0  0  0.633907  0  4.254135  0  0  0.202322  0.574896  0  4.271811  0
C  C66  1  0.16014394  0.47061039  0.41681310  1  0  -0.143611  0  3.686888  0  0  -0.162171  0  3.936231  0  0  -0.168346  0  3.953221  0  0  -0.083086  -0.158324  0  3.925417  0
C  C67  1  0.95217330  0.97066994  0.91681871  1  0  -0.14324  0  3.686561  0  0  -0.16204  0  3.936525  0  0  -0.16823  0  3.953386  0  0  -0.082772  -0.158082  0  3.925147  0
C  C68  1  0.27809612  0.42100746  0.49206087  1  0  0.129977  0  3.71203  0  0  0.093772  0  3.976553  0  0  0.102967  0  3.9915  0  0  0.046049  0.087546  0  3.966616  0
C  C69  1  0.80878522  0.92087294  0.99206510  1  0  0.130372  0  3.714322  0  0  0.094098  0  3.978518  0  0  0.103365  0  3.993582  0  0  0.046289  0.088038  0  3.968026  0
N  N70  1  0.45086653  0.29603372  0.85514975  1  0  -0.391935  0  3.269698  0  0  -0.314815  0  3.549124  0  0  -0.336863  0  3.568495  0  0  -0.361229  -0.299688  0  3.535523  0
N  N71  1  0.39733061  0.79594974  0.35490621  1  0  -0.391668  0  3.266851  0  0  -0.314629  0  3.546207  0  0  -0.336686  0  3.565609  0  0  -0.359916  -0.299492  0  3.532552  0
N  N72  1  0.38379500  0.33660399  0.02955765  1  0  -0.067671  0  3.578024  0  0  0.029681  0  3.792587  0  0  0.014621  0  3.819838  0  0  -0.242545  0.039659  0  3.773846  0
N  N73  1  0.24989280  0.83679564  0.52930654  1  0  -0.064653  0  3.57682  0  0  0.032673  0  3.790957  0  0  0.01759  0  3.818271  0  0  -0.242062  0.042526  0  3.772326  0
N  N74  1  0.73001447  0.04942026  0.37587271  1  0  -0.061431  0  3.579394  0  0  0.036116  0  3.793201  0  0  0.021234  0  3.820241  0  0  -0.247162  0.045941  0  3.774591  0
N  N75  1  0.84487269  0.54954261  0.87542182  1  0  -0.060193  0  3.577445  0  0  0.037486  0  3.790948  0  0  0.022628  0  3.817978  0  0  -0.246022  0.047299  0  3.772545  0
N  N76  1  0.60845615  0.06756886  0.55752330  1  0  -0.391583  0  3.278345  0  0  -0.313979  0  3.559572  0  0  -0.336041  0  3.578161  0  0  -0.363215  -0.298806  0  3.546196  0
N  N77  1  0.76665020  0.56776695  0.05706758  1  0  -0.392171  0  3.278445  0  0  -0.314315  0  3.559539  0  0  -0.336411  0  3.578238  0  0  -0.36295  -0.299232  0  3.546367  0
N  N78  1  0.24816660  0.33101106  0.59643581  1  0  -0.34003  0  3.265244  0  0  -0.265679  0  3.536363  0  0  -0.284332  0  3.552749  0  0  -0.335133  -0.252941  0  3.524954  0
N  N79  1  0.82453772  0.83078191  0.09638716  1  0  -0.338937  0  3.263338  0  0  -0.264631  0  3.534538  0  0  -0.283403  0  3.551035  0  0  -0.334121  -0.251793  0  3.522798  0
O  O80  1  0.81978468  0.15923468  0.67517507  1  0  -0.640151  0  1.95894  0  0  -0.583668  0  2.2007  0  0  -0.611602  0  2.192571  0  0  -0.327638  -0.563924  0  2.205585  0
O  O81  1  0.34598144  0.65910716  0.17505968  1  0  -0.63918  0  1.957963  0  0  -0.583315  0  2.200253  0  0  -0.611222  0  2.192104  0  0  -0.326329  -0.563563  0  2.205257  0
O  O82  1  0.64946997  0.37526620  0.58059198  1  0  -0.641936  0  1.91954  0  0  -0.581839  0  2.154012  0  0  -0.609655  0  2.144776  0  0  -0.331116  -0.56223  0  2.15967  0
O  O83  1  0.39507405  0.87495664  0.08024420  1  0  -0.6438  0  1.922753  0  0  -0.583736  0  2.157112  0  0  -0.611543  0  2.147853  0  0  -0.332928  -0.564145  0  2.163  0
O  O84  1  0.88274227  0.36955239  0.32545006  1  0  -0.622668  0  1.900392  0  0  -0.581586  0  2.130398  0  0  -0.605727  0  2.120996  0  0  -0.325668  -0.563845  0  2.1361  0
O  O85  1  0.42211179  0.86917405  0.82549826  1  0  -0.623944  0  1.899402  0  0  -0.583358  0  2.129884  0  0  -0.607514  0  2.120514  0  0  -0.327958  -0.565447  0  2.135558  0
O  O86  1  0.79458157  0.60665180  0.33923773  1  0  -0.651157  0  2.043418  0  0  -0.579154  0  2.297263  0  0  -0.610089  0  2.285601  0  0  -0.327735  -0.556782  0  2.304595  0
O  O87  1  0.25956767  0.10639654  0.83906786  1  0  -0.651451  0  2.043152  0  0  -0.579211  0  2.296682  0  0  -0.610185  0  2.285142  0  0  -0.327905  -0.556921  0  2.303791  0
