# generated using pymatgen
data_ZnH20(C7N)4
_symmetry_space_group_name_H-M   'P 1'
_cell_length_a   19.83535469
_cell_length_b   20.58393975
_cell_length_c   21.12914134
_cell_angle_alpha   109.21112170
_cell_angle_beta   102.70425804
_cell_angle_gamma   113.46873477
_symmetry_Int_Tables_number   1
_chemical_formula_structural   ZnH20(C7N)4
_chemical_formula_sum   'Zn4 H80 C112 N16'
_cell_volume   6831.66173490
_cell_formula_units_Z   4
loop_
 _symmetry_equiv_pos_site_id
 _symmetry_equiv_pos_as_xyz
  1  'x, y, z'
loop_
 _atom_site_type_symbol
 _atom_site_label
 _atom_site_symmetry_multiplicity
 _atom_site_fract_x
 _atom_site_fract_y
 _atom_site_fract_z
 _atom_site_occupancy
 _atom_site_pbe_bader_charge
 _atom_site_pbe_bader_spin_density
 _atom_site_pbe_cm5_charge
 _atom_site_pbe_ddec_charge
 _atom_site_pbe_ddec_spin_density
 _atom_site_pbe_ddec_sum_bond_order
 _atom_site_pbe_magmom
Zn  Zn0  1  0.59471312  0.60633069  0.49601271  1  1.183793  0  0.734174  0.627342  0  2.411685  0
Zn  Zn1  1  0.39518685  0.37813821  0.48957484  1  1.195544  0  0.7501  0.646072  0  2.358742  0
Zn  Zn2  1  0.49132002  0.58291030  0.60006859  1  1.198649  0  0.757528  0.654305  0  2.352909  0
Zn  Zn3  1  0.50349371  0.40126102  0.38201441  1  1.205011  0  0.757965  0.682841  0  2.278599  0
H  H4  1  0.78453067  0.75597442  0.63594610  1  0.090542  0  0.118419  0.107959  0  0.998914  0
H  H5  1  0.21911173  0.34589659  0.51405771  1  0.102013  0  0.122071  0.11205  0  0.988611  0
H  H6  1  0.50364426  0.76665360  0.64915979  1  0.100265  0  0.121927  0.112303  0  0.986823  0
H  H7  1  0.35625670  0.23206584  0.23393794  1  0.054801  0  0.114223  0.096731  0  1.018354  0
H  H8  1  0.22927063  0.27972740  0.36893954  1  0.091896  0  0.113317  0.10093  0  1.009806  0
H  H9  1  0.55614439  0.72056646  0.45588392  1  0.123206  0  0.115407  0.109371  0  1.022207  0
H  H10  1  0.34099075  0.59585523  0.56474489  1  0.097468  0  0.119708  0.113206  0  0.998261  0
H  H11  1  0.39796841  0.22166812  0.50795762  1  0.087756  0  0.122127  0.113362  0  0.984854  0
H  H12  1  0.94222977  0.50609141  0.49240634  1  0.06181  0  0.09846  0.089908  0  0.988307  0
H  H13  1  0.96954659  0.37916159  0.48868720  1  0.049395  0  0.098172  0.086556  0  0.991392  0
H  H14  1  0.91235693  0.37630754  0.60067987  1  0.069421  0  0.100113  0.094517  0  0.987977  0
H  H15  1  0.71928775  0.15805509  0.59208213  1  0.065538  0  0.096947  0.083713  0  0.997115  0
H  H16  1  0.67440009  0.10692420  0.69306985  1  0.059179  0  0.097232  0.084283  0  0.997585  0
H  H17  1  0.63424119  0.99575021  0.48253385  1  0.04514  0  0.095481  0.081887  0  0.999923  0
H  H18  1  0.49397381  0.00651172  0.43999891  1  0.063131  0  0.09806  0.084749  0  0.991907  0
H  H19  1  0.44889700  0.95490551  0.54169836  1  0.072038  0  0.098634  0.086332  0  0.992749  0
H  H20  1  0.53479772  0.11770645  0.65134817  1  0.0677  0  0.096703  0.082394  0  0.996599  0
H  H21  1  0.53157141  0.60170796  0.18510270  1  0.063196  0  0.09931  0.099235  0  1.00635  0
H  H22  1  0.53304177  0.57549875  0.76300316  1  0.07695  0  0.119323  0.106606  0  0.987237  0
H  H23  1  0.66816719  0.60074289  0.83918632  1  0.024565  0  0.094607  0.089644  0  1.031422  0
H  H24  1  0.54065354  0.34295685  0.73120129  1  0.057385  0  0.100415  0.102395  0  0.996958  0
H  H25  1  0.71392269  0.49846604  0.14096575  1  0.050504  0  0.101295  0.105133  0  1.006863  0
H  H26  1  0.71973430  0.60317114  0.95740187  1  0.054211  0  0.096293  0.095171  0  1.032544  0
H  H27  1  0.67874362  0.50761535  0.24758802  1  0.058367  0  0.101255  0.10252  0  0.994805  0
H  H28  1  0.63947856  0.57126404  0.01144721  1  0.052204  0  0.093902  0.091908  0  1.040149  0
H  H29  1  0.56909471  0.59577987  0.07995831  1  0.043071  0  0.097638  0.095712  0  0.999906  0
H  H30  1  0.59088399  0.34534869  0.85036078  1  0.048548  0  0.099354  0.100513  0  1.009045  0
H  H31  1  0.77526010  0.65815881  0.81378052  1  0.048255  0  0.098007  0.09919  0  1.0234  0
H  H32  1  0.68710403  0.40422968  0.41123795  1  0.086088  0  0.122535  0.110758  0  0.981258  0
H  H33  1  0.27322449  0.09733835  0.19680606  1  0.044839  0  0.096836  0.095623  0  1.008432  0
H  H34  1  0.10361753  0.15367223  0.26090109  1  0.050074  0  0.098272  0.099535  0  0.999992  0
H  H35  1  0.99758905  0.92941540  0.89093569  1  0.057798  0  0.100593  0.100015  0  0.995844  0
H  H36  1  0.16250046  0.96074066  0.10615675  1  0.056636  0  0.098786  0.098355  0  1.004823  0
H  H37  1  0.88615941  0.85541477  0.76873817  1  0.048163  0  0.099747  0.100306  0  1.002378  0
H  H38  1  0.06188804  0.94180527  0.00322852  1  0.067594  0  0.095882  0.095157  0  1.022996  0
H  H39  1  0.88343490  0.73440407  0.93756768  1  0.051422  0  0.103173  0.108612  0  0.996285  0
H  H40  1  0.99391612  0.01518466  0.17373979  1  0.062861  0  0.099293  0.100313  0  1.004198  0
H  H41  1  0.53188012  0.37479267  0.60862413  1  0.135115  0  0.115278  0.106868  0  1.040417  0
H  H42  1  0.71517354  0.58325804  0.61038641  1  0.106171  0  0.116016  0.108137  0  1.054131  0
H  H43  1  0.60182858  0.32448055  0.45580430  1  0.119015  0  0.114401  0.10298  0  1.034786  0
H  H44  1  0.64906862  0.63510255  0.73745001  1  0.11033  0  0.108878  0.090649  0  1.068589  0
H  H45  1  0.41118074  0.28432336  0.06708027  1  0.016297  0  0.083173  0.108696  0  1.008427  0
H  H46  1  0.35750510  0.23762865  0.11141705  1  0.009818  0  0.080184  0.101931  0  1.018693  0
H  H47  1  0.31228708  0.26634733  0.05199808  1  0.022605  0  0.088063  0.115526  0  1.000673  0
H  H48  1  0.36106497  0.36620808  0.18347425  1  0.015511  0  0.090125  0.083809  0  0.971827  0
H  H49  1  0.41510893  0.41178280  0.13924343  1  0.017239  0  0.089508  0.080851  0  0.979721  0
H  H50  1  0.52523451  0.38791066  0.19098422  1  0.060796  0  0.094168  0.094867  0  0.989371  0
H  H51  1  0.47256469  0.34754485  0.23846029  1  -0.005813  0  0.086698  0.074479  0  1.014595  0
H  H52  1  0.17321456  0.65702769  0.77479209  1  0.054929  0  0.098507  0.09841  0  1.007374  0
H  H53  1  0.21775424  0.77656834  0.88970713  1  0.014112  0  0.096099  0.09106  0  1.000421  0
H  H54  1  0.12129550  0.82064897  0.91336740  1  0.059193  0  0.093397  0.088999  0  1.009245  0
H  H55  1  0.98023933  0.74400898  0.82033475  1  0.07059  0  0.089448  0.085719  0  1.0586  0
H  H56  1  0.93600913  0.62497898  0.70473429  1  0.109527  0  0.093064  0.096797  0  1.045682  0
H  H57  1  0.98891212  0.48845400  0.76653095  1  0.058876  0  0.102177  0.104654  0  0.99128  0
H  H58  1  0.05147258  0.48431380  0.87919732  1  0.050082  0  0.098787  0.09432  0  0.99706  0
H  H59  1  0.17896736  0.48168614  0.90450937  1  0.045975  0  0.096122  0.090877  0  1.001925  0
H  H60  1  0.24296880  0.48284268  0.81540978  1  0.028683  0  0.096877  0.092324  0  0.998312  0
H  H61  1  0.18019834  0.48672530  0.70234288  1  0.090443  0  0.092158  0.094777  0  1.04961  0
H  H62  1  0.19461536  0.80632908  0.65130476  1  0.006384  0  0.082849  0.106638  0  1.006482  0
H  H63  1  0.15845970  0.75757386  0.55423662  1  0.00438  0  0.081585  0.104003  0  1.010532  0
H  H64  1  0.11338055  0.80764380  0.59702129  1  0.022072  0  0.083806  0.107789  0  1.006115  0
H  H65  1  0.02563209  0.65944982  0.54709571  1  0.020575  0  0.085433  0.069853  0  0.982763  0
H  H66  1  0.06230514  0.70806388  0.64345826  1  0.040947  0  0.087818  0.079615  0  0.993383  0
H  H67  1  0.17133499  0.67360579  0.65254145  1  0.006684  0  0.090428  0.086244  0  0.990803  0
H  H68  1  0.13443849  0.62409839  0.55596707  1  0.015612  0  0.090848  0.088717  0  0.980933  0
H  H69  1  0.54397248  0.36491334  0.00201020  1  0.063185  0  0.101308  0.102862  0  0.996214  0
H  H70  1  0.54460005  0.25370829  0.02410066  1  0.065461  0  0.097954  0.092852  0  1.001325  0
H  H71  1  0.66267154  0.23520216  0.03357724  1  0.045368  0  0.099396  0.095341  0  0.996846  0
H  H72  1  0.77814118  0.32667565  0.01802840  1  0.058416  0  0.101001  0.096916  0  0.99406  0
H  H73  1  0.77617319  0.43651898  0.99412208  1  0.065255  0  0.102583  0.104633  0  0.994587  0
H  H74  1  0.99264697  0.82816056  0.14722303  1  0.061304  0  0.101435  0.103097  0  0.994726  0
H  H75  1  0.87136535  0.74264467  0.15998273  1  0.065898  0  0.102448  0.100503  0  0.99005  0
H  H76  1  0.73889916  0.72409080  0.09568981  1  0.050995  0  0.097144  0.092976  0  1.013833  0
H  H77  1  0.72819909  0.79144602  0.01789416  1  0.055522  0  0.098077  0.093292  0  0.996047  0
H  H78  1  0.84911056  0.87470339  0.00352429  1  0.061298  0  0.102816  0.106  0  0.996161  0
H  H79  1  0.72656097  0.69651663  0.48496757  1  0.040695  0  0.098647  0.098093  0  1.013779  0
H  H80  1  0.80542472  0.84484485  0.55502810  1  0.062017  0  0.101611  0.096042  0  0.992805  0
H  H81  1  0.78028787  0.92646877  0.49871102  1  0.0771  0  0.103184  0.09791  0  0.99294  0
H  H82  1  0.67579455  0.85858460  0.37191797  1  0.074952  0  0.102796  0.097541  0  0.992881  0
H  H83  1  0.59334190  0.71033999  0.30389155  1  0.08513  0  0.100876  0.099581  0  1.015251  0
C  C84  1  0.73958610  0.72122489  0.65118268  1  0.39516  0  0.010456  -0.052132  0  3.9793  0
C  C85  1  0.51377689  0.25414820  0.49232375  1  0.098345  0  -0.033956  0.03654  0  4.212778  0
C  C86  1  0.55275312  0.47336729  0.71220969  1  -0.010308  0  -0.035452  -0.044903  0  4.073575  0
C  C87  1  0.73135367  0.49498047  0.52865757  1  0.125948  0  -0.029869  0.041529  0  4.18878  0
C  C88  1  0.60014390  0.60575585  0.35330929  1  0.482961  0  0.085798  0.099007  0  4.041329  0
C  C89  1  0.25993687  0.40587694  0.52421932  1  0.419575  0  0.016494  -0.047547  0  3.954337  0
C  C90  1  0.51343145  0.74208752  0.60038741  1  0.432078  0  0.014808  -0.048797  0  3.955743  0
C  C91  1  0.33689989  0.25569304  0.27574716  1  0.436983  0  0.008657  -0.046163  0  3.979841  0
C  C92  1  0.27169694  0.28028739  0.34385470  1  0.373591  0  -0.000318  -0.05641  0  3.979539  0
C  C93  1  0.53970514  0.71808947  0.50112972  1  0.399703  0  0.011192  -0.040556  0  3.932004  0
C  C94  1  0.52479232  0.47402462  0.27964736  1  0.388834  0  0.085732  0.152326  0  3.995901  0
C  C95  1  0.44205036  0.25339474  0.49032920  1  0.42728  0  0.013211  -0.05521  0  3.97601  0
C  C96  1  0.32219818  0.53371039  0.55000901  1  0.417433  0  0.00958  -0.052234  0  3.950002  0
C  C97  1  0.57439095  0.54704685  0.28163667  1  0.00633  0  -0.037055  -0.149684  0  4.025085  0
C  C98  1  0.25256567  0.47438840  0.54760666  1  0.122956  0  -0.032535  0.044218  0  4.21455  0
C  C99  1  0.53968025  0.77829357  0.55755811  1  0.107518  0  -0.03117  0.044137  0  4.203323  0
C  C100  1  0.26270501  0.21994939  0.28088827  1  0.033129  0  -0.036606  -0.036208  0  4.081241  0
C  C101  1  0.04227937  0.49145975  0.65976614  1  -0.003643  0  0.01012  0.018722  0  3.633628  0
C  C102  1  0.02635835  0.56249652  0.66227973  1  0.006268  0  0.009965  -0.020731  0  3.606571  0
C  C103  1  0.80207260  0.49828266  0.56532642  1  -0.218757  0  -0.06259  -0.113248  0  4.183435  0
C  C104  1  0.19172331  0.48242011  0.56684741  1  -0.316509  0  -0.066239  -0.126102  0  4.199701  0
C  C105  1  0.95409185  0.42968843  0.59943747  1  -0.02903  0  -0.070543  -0.103809  0  3.627269  0
C  C106  1  0.52624386  0.52784701  0.71528398  1  0.390666  0  0.008119  -0.046076  0  4.008808  0
C  C107  1  0.93799426  0.49934673  0.60068255  1  0.127699  0  0.005279  0.11213  0  3.80338  0
C  C108  1  0.98483634  0.43148147  0.53782183  1  -0.004842  0  -0.074438  -0.070396  0  3.665773  0
C  C109  1  0.07380626  0.49381345  0.59708360  1  0.099742  0  0.00227  0.06826  0  3.794998  0
C  C110  1  0.97175106  0.50166222  0.53978196  1  -0.062438  0  -0.074073  -0.109826  0  3.635616  0
C  C111  1  0.05845561  0.56464032  0.60003383  1  0.024143  0  0.007668  0.087962  0  3.606805  0
C  C112  1  0.86443204  0.49889100  0.58939587  1  -0.186037  0  -0.059261  -0.130023  0  4.132154  0
C  C113  1  0.14011461  0.48936183  0.58605261  1  -0.09104  0  -0.057373  -0.116108  0  4.155109  0
C  C114  1  0.63404210  0.08466308  0.63672392  1  -0.025178  0  -0.074497  -0.084214  0  3.638031  0
C  C115  1  0.65906686  0.11241467  0.58062267  1  -0.0374  0  -0.074864  -0.08294  0  3.639815  0
C  C116  1  0.54487835  0.21271245  0.51791889  1  -0.389959  0  -0.066521  -0.11366  0  4.222285  0
C  C117  1  0.68212409  0.44785746  0.45292464  1  0.426161  0  0.01594  -0.04274  0  3.977505  0
C  C118  1  0.56124155  0.85629550  0.56863863  1  -0.479828  0  -0.065357  -0.112406  0  4.224341  0
C  C119  1  0.55636924  0.08962735  0.61361888  1  -0.032582  0  -0.074516  -0.077808  0  3.64284  0
C  C120  1  0.58078644  0.11800392  0.55679081  1  0.107686  0  0.003189  0.137226  0  3.806885  0
C  C121  1  0.50851314  0.00084938  0.55238589  1  -0.043364  0  -0.07476  -0.080668  0  3.643169  0
C  C122  1  0.58601524  0.99393624  0.57537329  1  0.098667  0  0.003441  0.137764  0  3.803971  0
C  C123  1  0.53369829  0.02731939  0.49610860  1  -0.022801  0  -0.073445  -0.075175  0  3.637681  0
C  C124  1  0.61166688  0.02328488  0.51951199  1  -0.016115  0  -0.075519  -0.081459  0  3.644939  0
C  C125  1  0.56879851  0.17538729  0.54113793  1  -0.004907  0  -0.067595  -0.147857  0  4.14944  0
C  C126  1  0.58014334  0.92385628  0.57751777  1  0.105733  0  -0.069496  -0.149644  0  4.149739  0
C  C127  1  0.60097247  0.55313697  0.22291753  1  0.012959  0  -0.007793  0.106776  0  4.027961  0
C  C128  1  0.52498539  0.42489282  0.63658906  1  0.413304  0  0.010552  -0.029149  0  3.93646  0
C  C129  1  0.57237210  0.58000238  0.17617261  1  -0.022229  0  -0.097112  -0.146711  0  4.029027  0
C  C130  1  0.59317311  0.57625073  0.11688376  1  -0.085117  0  -0.094271  -0.129391  0  3.989343  0
C  C131  1  0.64123932  0.54337706  0.10054662  1  -0.031107  0  -0.017373  0.1075  0  4.061365  0
C  C132  1  0.67375829  0.52089464  0.15006167  1  -0.003131  0  -0.090961  -0.122733  0  3.982003  0
C  C133  1  0.65389664  0.52594683  0.20991944  1  -0.068811  0  -0.092949  -0.136617  0  3.997113  0
C  C134  1  0.67900766  0.54584342  0.90816111  1  -0.039933  0  -0.096757  -0.127806  0  4.006866  0
C  C135  1  0.65003790  0.54431873  0.84139349  1  -0.07847  0  -0.098963  -0.139182  0  4.005857  0
C  C136  1  0.58008543  0.40030973  0.78071123  1  -0.052871  0  -0.094108  -0.130731  0  3.98446  0
C  C137  1  0.60865079  0.40163320  0.84793514  1  -0.006096  0  -0.092661  -0.125788  0  3.988674  0
C  C138  1  0.65320612  0.47418264  0.91362705  1  -0.027751  0  -0.014743  0.060109  0  4.016092  0
C  C139  1  0.69570581  0.53912195  0.55478641  1  0.454981  0  0.013574  -0.027947  0  3.921091  0
C  C140  1  0.64996423  0.53218174  0.03172245  1  -0.068944  0  -0.094784  -0.195719  0  3.972795  0
C  C141  1  0.65905691  0.47545631  0.98498170  1  -0.019077  0  -0.006621  0.021745  0  3.965539  0
C  C142  1  0.59567017  0.47152719  0.77693409  1  0.050992  0  -0.010549  0.086248  0  4.037765  0
C  C143  1  0.81972892  0.75296416  0.78350147  1  -0.026885  0  -0.010782  0.087022  0  4.047202  0
C  C144  1  0.82252802  0.71903304  0.83152180  1  -0.081034  0  -0.094196  -0.137229  0  3.979184  0
C  C145  1  0.88396530  0.76163748  0.90117894  1  -0.029677  0  -0.087563  -0.120702  0  3.980207  0
C  C146  1  0.94640465  0.83996568  0.92528492  1  0.00876  0  -0.016802  0.107865  0  4.050258  0
C  C147  1  0.94797537  0.87001594  0.87414407  1  -0.075242  0  -0.092028  -0.13128  0  3.995839  0
C  C148  1  0.88559349  0.82821907  0.80522415  1  -0.006133  0  -0.097265  -0.140123  0  4.017852  0
C  C149  1  0.14955906  0.00333836  0.13987486  1  -0.038676  0  -0.09904  -0.138853  0  4.033102  0
C  C150  1  0.54643311  0.30666267  0.46386191  1  0.433276  0  0.010669  -0.041961  0  3.955128  0
C  C151  1  0.21161626  0.08055183  0.19025743  1  -0.019069  0  -0.098211  -0.13328  0  4.007782  0
C  C152  1  0.11737910  0.11143122  0.22786578  1  0.035098  0  -0.097688  -0.135768  0  3.996882  0
C  C153  1  0.05535894  0.03333290  0.17870461  1  -0.127246  0  -0.092998  -0.124775  0  3.995192  0
C  C154  1  0.06955583  0.97916986  0.13078648  1  -0.028848  0  -0.015418  0.061819  0  4.022516  0
C  C155  1  0.00699817  0.89537991  0.99992215  1  -0.076172  0  -0.094793  -0.195153  0  3.9708  0
C  C156  1  0.00157009  0.90601302  0.06530557  1  0.008274  0  -0.007311  0.018976  0  3.974176  0
C  C157  1  0.19654252  0.13759565  0.23300638  1  -0.054187  0  -0.012866  0.081624  0  4.051986  0
C  C158  1  0.67024145  0.65795530  0.70197278  1  0.378459  0  0.005613  -0.045276  0  3.9838  0
C  C159  1  0.74882820  0.71286246  0.71553496  1  0.020872  0  -0.036464  -0.046222  0  4.09225  0
C  C160  1  0.48372195  0.39150406  0.21727198  1  0.005469  0  -0.154943  -0.197107  0  3.972719  0
C  C161  1  0.40423296  0.36634536  0.15844362  1  0.016109  0  -0.163121  -0.085692  0  3.947376  0
C  C162  1  0.36929519  0.28425839  0.09370080  1  -0.059113  0  -0.244295  -0.354195  0  3.987592  0
C  C163  1  0.05153173  0.63310155  0.73099161  1  0.006345  0  -0.012113  0.073156  0  4.010135  0
C  C164  1  0.13105944  0.67669140  0.78407561  1  -0.097995  0  -0.094455  -0.13373  0  3.986188  0
C  C165  1  0.15600547  0.74380915  0.84900826  1  -0.010917  0  -0.101354  -0.092922  0  4.064195  0
C  C166  1  0.10200293  0.76848243  0.86235982  1  -0.069253  0  -0.103472  -0.101233  0  4.048366  0
C  C167  1  0.02288438  0.72550468  0.81023820  1  -0.021673  0  -0.100457  -0.081251  0  4.035931  0
C  C168  1  0.99789590  0.65841480  0.74515551  1  -0.113844  0  -0.097246  -0.140237  0  3.97975  0
C  C169  1  0.07981681  0.48716947  0.72595316  1  0.02538  0  -0.013091  0.066212  0  4.01189  0
C  C170  1  0.04429194  0.48646361  0.77671334  1  -0.066388  0  -0.092104  -0.131728  0  3.984697  0
C  C171  1  0.07965019  0.48442446  0.84029389  1  -0.087919  0  -0.099247  -0.089555  0  4.058948  0
C  C172  1  0.15127348  0.48312711  0.85466139  1  0.021623  0  -0.103521  -0.10316  0  4.058404  0
C  C173  1  0.18706987  0.48385134  0.80473199  1  -0.101552  0  -0.100815  -0.089695  0  4.062837  0
C  C174  1  0.15176499  0.48594735  0.74098435  1  -0.058558  0  -0.098723  -0.138121  0  3.986588  0
C  C175  1  0.11604863  0.63993198  0.60179945  1  0.029271  0  -0.16136  -0.200337  0  3.987717  0
C  C176  1  0.08082832  0.69337166  0.59773959  1  -0.028036  0  -0.165207  -0.082123  0  3.959248  0
C  C177  1  0.13994774  0.77043566  0.60013231  1  -0.040679  0  -0.245649  -0.353453  0  3.996007  0
C  C178  1  0.66026262  0.40871759  0.99726717  1  0.030885  0  -0.008253  0.073326  0  4.001841  0
C  C179  1  0.59510413  0.35610113  0.00532163  1  -0.050907  0  -0.090184  -0.130246  0  3.982785  0
C  C180  1  0.59579442  0.29400768  0.01807366  1  -0.102678  0  -0.099072  -0.092271  0  4.056921  0
C  C181  1  0.66181561  0.28344138  0.02316662  1  -0.039329  0  -0.098928  -0.097134  0  4.047199  0
C  C182  1  0.72653069  0.33474839  0.01433181  1  -0.047941  0  -0.097817  -0.08805  0  4.053433  0
C  C183  1  0.72549388  0.39650475  0.00089666  1  -0.079707  0  -0.092022  -0.13782  0  3.983046  0
C  C184  1  0.92893743  0.85643777  0.07367496  1  -0.001562  0  -0.007979  0.074485  0  4.006088  0
C  C185  1  0.93445924  0.81964265  0.11851061  1  -0.072012  0  -0.091824  -0.136494  0  3.979251  0
C  C186  1  0.86636317  0.77172959  0.12577498  1  -0.050626  0  -0.096246  -0.086908  0  4.041273  0
C  C187  1  0.79184631  0.76107420  0.08944083  1  -0.042107  0  -0.097626  -0.09458  0  4.038923  0
C  C188  1  0.78594368  0.79870416  0.04586030  1  -0.058749  0  -0.099119  -0.090644  0  4.050613  0
C  C189  1  0.85383137  0.84583706  0.03794320  1  -0.062781  0  -0.091675  -0.134677  0  3.990428  0
C  C190  1  0.65273270  0.69306688  0.39035464  1  -0.105708  0  -0.008259  0.059536  0  4.028608  0
C  C191  1  0.71360222  0.73217760  0.46110342  1  0.027397  0  -0.095654  -0.145947  0  3.990471  0
C  C192  1  0.75896486  0.81552754  0.49996985  1  -0.127839  0  -0.090516  -0.072514  0  4.032655  0
C  C193  1  0.74524717  0.86131477  0.46823714  1  -0.014834  0  -0.09154  -0.088345  0  4.023256  0
C  C194  1  0.68656133  0.82316153  0.39714101  1  -0.03689  0  -0.091553  -0.081885  0  4.036236  0
C  C195  1  0.64053196  0.73980879  0.35851225  1  -0.091336  0  -0.087819  -0.1238  0  3.964658  0
N  N196  1  0.66167466  0.67472082  0.60392242  1  -0.785902  0  -0.283271  -0.179812  0  3.590264  0
N  N197  1  0.32891218  0.42452416  0.51516763  1  -0.796184  0  -0.279486  -0.166643  0  3.643154  0
N  N198  1  0.50014433  0.66732517  0.57156065  1  -0.809041  0  -0.284872  -0.176214  0  3.645392  0
N  N199  1  0.38557249  0.32988979  0.33192684  1  -0.805807  0  -0.283905  -0.176606  0  3.648565  0
N  N200  1  0.34638906  0.34588437  0.37526989  1  -0.761424  0  -0.279912  -0.219949  0  3.461534  0
N  N201  1  0.51662275  0.65181171  0.51032393  1  -0.776516  0  -0.27804  -0.217177  0  3.489433  0
N  N202  1  0.52042279  0.48848723  0.34542017  1  -0.746491  0  -0.268684  -0.246598  0  3.495403  0
N  N203  1  0.36782273  0.50326741  0.53088546  1  -0.775567  0  -0.276792  -0.213356  0  3.514999  0
N  N204  1  0.43383362  0.30173346  0.46322696  1  -0.811431  0  -0.28844  -0.184252  0  3.610896  0
N  N205  1  0.48598616  0.51289304  0.64729788  1  -0.81135  0  -0.294329  -0.195634  0  3.592954  0
N  N206  1  0.62331030  0.46377655  0.43600440  1  -0.810827  0  -0.291356  -0.199131  0  3.586459  0
N  N207  1  0.48525122  0.44902586  0.59797788  1  -0.798584  0  -0.274494  -0.21469  0  3.521212  0
N  N208  1  0.63163854  0.52109111  0.49895890  1  -0.811884  0  -0.275829  -0.230099  0  3.513778  0
N  N209  1  0.49858057  0.33518780  0.44701835  1  -0.781323  0  -0.261322  -0.21085  0  3.486429  0
N  N210  1  0.61854813  0.63540536  0.63526695  1  -0.807106  0  -0.272957  -0.20462  0  3.529  0
N  N211  1  0.56739484  0.56871068  0.39054360  1  -0.78799  0  -0.280719  -0.212345  0  3.612509  0
