# generated using pymatgen
data_Cu2H19C19NO7
_symmetry_space_group_name_H-M   'P 1'
_cell_length_a   9.92163836
_cell_length_b   9.92221043
_cell_length_c   27.03458872
_cell_angle_alpha   95.83224709
_cell_angle_beta   95.80043841
_cell_angle_gamma   90.17228113
_symmetry_Int_Tables_number   1
_chemical_formula_structural   Cu2H19C19NO7
_chemical_formula_sum   'Cu8 H76 C76 N4 O28'
_cell_volume   2633.83945797
_cell_formula_units_Z   4
loop_
 _symmetry_equiv_pos_site_id
 _symmetry_equiv_pos_as_xyz
  1  'x, y, z'
loop_
 _atom_site_type_symbol
 _atom_site_label
 _atom_site_symmetry_multiplicity
 _atom_site_fract_x
 _atom_site_fract_y
 _atom_site_fract_z
 _atom_site_occupancy
 _atom_site_pbe_bader_charge
 _atom_site_pbe_bader_spin_density
 _atom_site_pbe_cm5_charge
 _atom_site_pbe_ddec_charge
 _atom_site_pbe_ddec_spin_density
 _atom_site_pbe_ddec_sum_bond_order
 _atom_site_pbe_magmom
Cu  Cu0  1  0.00001058  0.99999420  0.50002204  1  1.159153  0.585443  0.691612  0.960544  0.747856  2.080855  0.585
Cu  Cu1  1  0.00000213  0.00001331  0.00003497  1  1.156815  -0.588554  0.69062  0.958295  -0.755863  2.082341  -0.588
Cu  Cu2  1  0.75598977  0.16652692  0.51286622  1  1.047255  -0.542652  0.702675  0.757068  -0.705305  2.329362  -0.543
Cu  Cu3  1  0.83360602  0.24402096  0.98711572  1  1.046999  0.555015  0.702189  0.756525  0.71905  2.329773  0.555
Cu  Cu4  1  0.24407993  0.83364936  0.48709264  1  1.047584  -0.542723  0.702629  0.757254  -0.705282  2.329249  -0.543
Cu  Cu5  1  0.16650990  0.75570112  0.01285991  1  1.045785  -0.556132  0.702642  0.757404  -0.72234  2.329732  -0.555
Cu  Cu6  1  0.50003342  0.00010714  0.50000639  1  1.103414  0.553362  0.691617  0.894552  0.715566  2.101142  0.555
Cu  Cu7  1  0.99977991  0.49970397  0.00002250  1  1.101823  0.558394  0.690693  0.892588  0.723247  2.102857  0.559
H  H8  1  0.92042852  0.91440079  0.33834531  1  0.083095  0.000145  0.102401  0.103728  0.000132  1.024506  0.0
H  H9  1  0.08558386  0.07961667  0.16164969  1  0.083171  -0.000253  0.102366  0.103505  -0.000191  1.024549  0.0
H  H10  1  0.07961578  0.08571336  0.66160441  1  0.08356  0.000147  0.102342  0.103575  0.000134  1.024824  0.0
H  H11  1  0.91440488  0.92045351  0.83838219  1  0.08311  -0.000143  0.102301  0.103691  -0.00011  1.024608  0.0
H  H12  1  0.83097541  0.87177510  0.24889230  1  0.075004  -0.000179  0.100887  0.115866  -9.4e-05  1.019166  0.0
H  H13  1  0.12825881  0.16912392  0.25110392  1  0.074762  0.000146  0.100877  0.115991  7.5e-05  1.019099  0.0
H  H14  1  0.16897366  0.12831057  0.75106915  1  0.074923  -0.000177  0.101008  0.115921  -0.000101  1.019227  0.0
H  H15  1  0.87175223  0.83098094  0.74891933  1  0.074781  -0.000163  0.100956  0.115896  -7.7e-05  1.019214  0.0
H  H16  1  0.43895949  0.01213315  0.28558251  1  0.056897  0.000136  0.102983  0.118607  6.1e-05  0.996178  0.0
H  H17  1  0.98809222  0.56121924  0.21449627  1  0.057188  -0.000221  0.102996  0.118608  -0.000124  0.996193  0.0
H  H18  1  0.56102298  0.98785577  0.71440286  1  0.057103  0.000225  0.102927  0.118455  0.000124  0.996407  0.0
H  H19  1  0.01201408  0.43888582  0.78554047  1  0.056583  -0.000229  0.102953  0.118528  -0.00013  0.996277  0.0
H  H20  1  0.53096428  0.05425921  0.37592098  1  0.146844  -6.4e-05  0.103373  0.11434  6e-06  1.062563  0.0
H  H21  1  0.94590089  0.46911473  0.12415327  1  0.148411  0.000286  0.103419  0.114079  0.000372  1.062541  0.0
H  H22  1  0.46905168  0.94580203  0.62406089  1  0.147134  -6.3e-05  0.10343  0.114472  6e-06  1.062688  0.0
H  H23  1  0.05419227  0.53102763  0.87587770  1  0.148193  -0.000112  0.103326  0.114293  1e-05  1.062519  0.0
H  H24  1  0.60779443  0.66078191  0.18660510  1  0.075332  -1.6e-05  0.108429  0.121427  -1.3e-05  0.984951  0.0
H  H25  1  0.33938988  0.39237537  0.31347994  1  0.073169  -1.9e-05  0.108657  0.121631  -1.7e-05  0.985226  0.0
H  H26  1  0.39218300  0.33909568  0.81343073  1  0.076717  0.000152  0.10852  0.121653  8.1e-05  0.985218  0.0
H  H27  1  0.66090203  0.60783140  0.68660400  1  0.075406  -1.8e-05  0.108401  0.121438  -1.8e-05  0.985293  0.0
H  H28  1  0.74683382  0.56896460  0.11804171  1  0.074719  0.000265  0.111494  0.120729  0.000196  0.992746  0.0
H  H29  1  0.43111813  0.25333327  0.38197484  1  0.073374  0.000284  0.111356  0.120677  0.00022  0.992578  0.0
H  H30  1  0.25318721  0.43094392  0.88199502  1  0.074791  0.000274  0.111524  0.120689  0.000217  0.992834  0.0
H  H31  1  0.56906025  0.74680018  0.61810925  1  0.074903  0.00028  0.111508  0.120762  0.000217  0.992924  0.0
H  H32  1  0.85337800  0.97423846  0.09307327  1  0.12806  0.000182  0.106992  0.11982  0.000156  1.038174  0.0
H  H33  1  0.02576766  0.14656923  0.40685426  1  0.128529  -8.7e-05  0.107006  0.12001  -0.000131  1.038198  0.0
H  H34  1  0.14651117  0.02565711  0.90690672  1  0.126981  -1e-06  0.106985  0.119877  -2.8e-05  1.038573  0.0
H  H35  1  0.97437277  0.85339217  0.59310891  1  0.127801  -8.7e-05  0.106983  0.119676  -0.000132  1.038762  0.0
H  H36  1  0.71393198  0.06716589  0.16147001  1  0.110006  0.000192  0.111406  0.129373  9.8e-05  0.977779  0.0
H  H37  1  0.93298544  0.28595596  0.33849546  1  0.071234  0.000206  0.111484  0.129435  0.000109  0.97834  0.0
H  H38  1  0.28601404  0.93273660  0.83855412  1  0.109829  0.000203  0.111437  0.129465  0.000106  0.978018  0.0
H  H39  1  0.06724098  0.71397802  0.66143101  1  0.109728  0.000204  0.111412  0.129417  0.000108  0.978166  0.0
H  H40  1  0.56596568  0.16380951  0.60095527  1  0.02714  0.002752  0.089615  0.051487  0.001345  1.02885  0.002
H  H41  1  0.83674317  0.43346075  0.89924175  1  0.029439  0.003772  0.090176  0.052913  0.001525  1.029357  0.003
H  H42  1  0.43391652  0.83637651  0.39896673  1  0.028202  0.002749  0.089578  0.051944  0.001346  1.028827  0.002
H  H43  1  0.16373388  0.56607413  0.10098735  1  0.027454  0.0026  0.089566  0.051749  0.001254  1.028457  0.002
H  H44  1  0.45251560  0.28543839  0.57716367  1  0.064143  -0.005477  0.098856  0.077144  -0.003102  0.947705  -0.003
H  H45  1  0.71510345  0.54730312  0.92283961  1  0.026772  0.005445  0.099318  0.078147  0.002754  0.94695  0.003
H  H46  1  0.54736444  0.71474439  0.42270746  1  0.064714  -0.00546  0.098833  0.07748  -0.003094  0.947758  -0.003
H  H47  1  0.28549732  0.45268670  0.07727136  1  0.060863  -0.005378  0.098588  0.077004  -0.003031  0.948087  -0.003
H  H48  1  0.66490497  0.39884772  0.62536106  1  0.028698  -0.002317  0.100635  0.084942  -0.001252  0.990425  -0.002
H  H49  1  0.60159120  0.33514499  0.87454654  1  0.026673  0.005947  0.100897  0.085442  0.002976  0.989789  0.003
H  H50  1  0.33496214  0.60138277  0.37458717  1  0.028581  -0.002317  0.100761  0.085046  -0.001249  0.990628  -0.002
H  H51  1  0.39853223  0.66509068  0.12540613  1  0.028569  -0.002297  0.100641  0.085062  -0.001234  0.989991  -0.002
H  H52  1  0.64421295  0.43040670  0.56125703  1  0.043879  0.000163  0.111901  0.098336  0.000265  0.967522  0.0
H  H53  1  0.56951342  0.35562186  0.93861340  1  0.045014  -0.000151  0.112248  0.09938  -0.000205  0.967487  0.0
H  H54  1  0.35586680  0.56971699  0.43869139  1  0.044225  0.000161  0.11198  0.09901  0.000264  0.967585  0.0
H  H55  1  0.43044150  0.64433106  0.06130860  1  0.043605  0.000135  0.112001  0.098999  0.000269  0.967631  0.0
H  H56  1  0.07003817  0.36476417  0.51910550  1  0.023973  -0.001711  0.095136  0.070763  -0.001017  0.958963  -0.001
H  H57  1  0.63520811  0.93013655  0.98100096  1  0.024979  0.001736  0.094861  0.070436  0.001011  0.959563  0.001
H  H58  1  0.92999228  0.63529864  0.48099459  1  0.02452  -0.001752  0.095125  0.070832  -0.001039  0.959023  -0.001
H  H59  1  0.36413597  0.06993236  0.01889361  1  0.032053  -0.005865  0.09565  0.071618  -0.002942  0.958776  -0.003
H  H60  1  0.07549181  0.25339648  0.56681614  1  0.082076  0.004572  0.094522  0.066103  0.002213  1.020717  0.004
H  H61  1  0.74659064  0.92451170  0.93327923  1  0.08262  -0.004427  0.09418  0.065455  -0.002157  1.021242  -0.004
H  H62  1  0.92449385  0.74655422  0.43324229  1  0.082325  0.00458  0.094565  0.066069  0.002217  1.020683  0.004
H  H63  1  0.25307279  0.07546936  0.06673888  1  0.082115  -0.004917  0.095142  0.067266  -0.002241  1.020323  -0.004
H  H64  1  0.94173402  0.45273986  0.59416735  1  0.061644  -0.002677  0.10032  0.090486  -0.001476  0.983444  -0.002
H  H65  1  0.54736883  0.05783544  0.90585029  1  0.065004  0.002661  0.100378  0.090215  0.001467  0.983536  0.002
H  H66  1  0.05820402  0.54720721  0.40588920  1  0.062675  -0.002665  0.100415  0.090524  -0.001473  0.983226  -0.002
H  H67  1  0.45244155  0.94229318  0.09413428  1  0.056281  -0.004592  0.1006  0.090914  -0.002383  0.982612  -0.003
H  H68  1  0.84444408  0.44263623  0.53464600  1  0.044463  7.5e-05  0.107307  0.082727  0.000294  0.993801  0.0
H  H69  1  0.55725003  0.15567125  0.96531300  1  0.044092  -0.000221  0.107246  0.082707  -0.000422  0.994028  0.0
H  H70  1  0.15562670  0.55733274  0.46541401  1  0.043046  8.1e-05  0.107428  0.082982  0.000296  0.993883  0.0
H  H71  1  0.44273260  0.84460015  0.03463027  1  0.045001  -9.5e-05  0.10743  0.083176  0.000149  0.993779  0.0
H  H72  1  0.77246321  0.15062607  0.63041595  1  0.025161  -0.000577  0.105567  0.124191  -0.000141  0.996647  -0.001
H  H73  1  0.84959167  0.22690409  0.86950102  1  0.068638  0.000635  0.105587  0.124064  0.000192  0.995614  0.001
H  H74  1  0.22716453  0.84928343  0.36953681  1  0.028138  -0.000576  0.105669  0.123957  -0.00014  0.996317  -0.001
H  H75  1  0.15037423  0.77291215  0.13040229  1  0.071877  -0.000533  0.105871  0.124343  -0.000139  0.996216  -0.001
H  H76  1  0.88443744  0.29080289  0.65253938  1  0.04677  -0.007896  0.096587  0.11125  -0.004035  0.988657  -0.004
H  H77  1  0.70936815  0.11497782  0.84739718  1  0.048244  0.007924  0.09645  0.110984  0.004036  0.988957  0.004
H  H78  1  0.11530683  0.70894012  0.34748699  1  0.04519  -0.0079  0.096436  0.111061  -0.004036  0.988822  -0.004
H  H79  1  0.29055934  0.88490990  0.15251512  1  0.048373  -0.00786  0.096583  0.111257  -0.004014  0.988985  -0.004
H  H80  1  0.93597898  0.15472674  0.60926262  1  0.102959  -0.00114  0.107556  0.12915  -0.000396  1.046304  -0.001
H  H81  1  0.84520595  0.06357179  0.89075227  1  0.104526  0.001157  0.107426  0.129291  0.000408  1.047017  0.001
H  H82  1  0.06369129  0.84504566  0.39073437  1  0.106126  -0.001138  0.107352  0.129042  -0.000395  1.0465  -0.001
H  H83  1  0.15463244  0.93628859  0.10918867  1  0.098007  -0.001109  0.107433  0.129292  -0.000405  1.047231  -0.001
C  C84  1  0.78369115  0.01686410  0.41665469  1  1.556682  3.6e-05  0.2177  0.588081  0.000119  4.151412  0.0
C  C85  1  0.98332712  0.21645396  0.08336304  1  1.554684  -0.000605  0.217724  0.588121  -0.00059  4.151843  0.0
C  C86  1  0.21632775  0.98308475  0.58333128  1  1.554111  3.5e-05  0.217503  0.588024  0.000128  4.151679  0.0
C  C87  1  0.01712667  0.78375653  0.91663302  1  1.552582  0.000393  0.216837  0.587599  -0.001845  4.152866  0.002
C  C88  1  0.73122628  0.98662065  0.36287676  1  0.024895  -2.1e-05  -0.03305  -0.066331  -4.4e-05  3.991074  0.0
C  C89  1  0.01347157  0.26885789  0.13715711  1  0.026249  0.000202  -0.032716  -0.065708  0.00019  3.990942  0.0
C  C90  1  0.26875517  0.01335104  0.63711090  1  0.025314  9e-06  -0.033253  -0.066329  -2.3e-05  3.991716  0.0
C  C91  1  0.98675729  0.73130126  0.86285025  1  0.02434  -0.01229  -0.032973  -0.066012  -0.008627  3.991581  -0.01
C  C92  1  0.81468854  0.93461744  0.32693928  1  -0.03639  -0.001014  -0.086369  -0.067909  -0.000648  4.003078  -0.001
C  C93  1  0.06540380  0.18539377  0.17306729  1  -0.036027  0.000893  -0.086419  -0.067607  0.000547  4.003139  0.001
C  C94  1  0.18532333  0.06541738  0.67303629  1  -0.038261  -0.001011  -0.086163  -0.067776  -0.000646  4.003614  -0.001
C  C95  1  0.93466901  0.81471789  0.82694257  1  -0.035099  -0.000399  -0.08655  -0.068467  -0.000271  4.003589  0.0
C  C96  1  0.76499025  0.91088764  0.27669803  1  0.002099  -0.000473  -0.116057  -0.231286  -0.000337  4.025422  0.0
C  C97  1  0.08915333  0.23509475  0.22331314  1  0.001444  0.000537  -0.116299  -0.232034  0.000374  4.02548  0.0
C  C98  1  0.23499329  0.08916712  0.72328722  1  0.003068  -0.000461  -0.116212  -0.231227  -0.00035  4.024989  0.0
C  C99  1  0.91087793  0.76498906  0.77669934  1  0.001841  -0.000626  -0.116127  -0.231183  -0.000353  4.025237  0.0
C  C100  1  0.62925692  0.93886568  0.26225921  1  0.333581  3.1e-05  0.085536  0.272285  3e-05  4.054837  0.0
C  C101  1  0.06124995  0.37085384  0.23777837  1  0.334872  -0.000147  0.085637  0.272466  -9.2e-05  4.05469  0.0
C  C102  1  0.37072049  0.06111002  0.73773178  1  0.331436  1.3e-05  0.085562  0.272136  -1e-06  4.055033  0.0
C  C103  1  0.93887250  0.62924223  0.76223533  1  0.331942  0.000766  0.085466  0.272148  0.000522  4.054437  0.001
C  C104  1  0.54411042  0.99039707  0.29776710  1  -0.059801  0.000582  -0.109828  -0.212151  0.000406  4.010448  0.0
C  C105  1  0.00976516  0.45601652  0.20230494  1  -0.066093  -0.000454  -0.109861  -0.21221  -0.000332  4.01101  0.0
C  C106  1  0.45586498  0.00960191  0.70222467  1  -0.061892  0.000603  -0.10987  -0.212091  0.000426  4.0104  0.0
C  C107  1  0.99033099  0.54408231  0.79772418  1  -0.064386  -0.000728  -0.109938  -0.212327  -0.000437  4.010215  -0.001
C  C108  1  0.59535184  0.01437986  0.34760732  1  -0.026904  0.001185  -0.087067  -0.077267  0.00074  3.986769  0.001
C  C109  1  0.98576897  0.40475035  0.15245519  1  -0.024109  -0.00092  -0.08703  -0.076932  -0.000568  3.986155  -0.001
C  C110  1  0.40464988  0.98561839  0.65237356  1  -0.024631  0.001187  -0.086981  -0.077234  0.000738  3.985927  0.001
C  C111  1  0.01438799  0.59540290  0.84756632  1  -0.023653  -0.000401  -0.086929  -0.076843  -0.000332  3.985921  0.0
C  C112  1  0.65387313  0.86817983  0.17710580  1  0.331414  -0.000104  0.077198  0.243838  -8.4e-05  4.077653  0.0
C  C113  1  0.13197860  0.34617263  0.32290823  1  0.331376  -7.1e-05  0.077416  0.244243  -5.9e-05  4.077527  0.0
C  C114  1  0.34608602  0.13172176  0.82290287  1  0.332129  -0.000113  0.077356  0.244364  -6.8e-05  4.076741  0.0
C  C115  1  0.86826335  0.65389956  0.67709826  1  0.331558  -6.7e-05  0.077033  0.243724  -5.5e-05  4.078402  0.0
C  C116  1  0.66186157  0.72823916  0.16574083  1  0.010388  3.1e-05  -0.100938  -0.208403  -2e-05  4.028312  0.0
C  C117  1  0.27190481  0.33822276  0.33429516  1  0.013676  8.7e-05  -0.101241  -0.20874  1.6e-05  4.028117  0.0
C  C118  1  0.33810577  0.27166263  0.83429922  1  0.010957  0.000238  -0.100741  -0.20868  0.000124  4.028152  0.0
C  C119  1  0.72833022  0.66193253  0.66574890  1  0.009751  5.5e-05  -0.10077  -0.208626  -1e-05  4.028401  0.0
C  C120  1  0.73974389  0.67768239  0.12809578  1  -0.005583  0.000344  -0.080894  -0.074702  0.00026  3.974902  0.0
C  C121  1  0.32241112  0.26034037  0.37192703  1  -0.007106  0.000267  -0.080892  -0.074806  0.000228  3.974651  0.0
C  C122  1  0.26019810  0.32222209  0.87193345  1  -0.004412  -0.000113  -0.080929  -0.07468  -7e-06  3.974978  0.0
C  C123  1  0.67777937  0.73982555  0.62812652  1  -0.003914  0.000293  -0.081058  -0.07472  0.000242  3.974881  0.0
C  C124  1  0.81013032  0.76667425  0.10243745  1  -0.075055  0.0079  -0.023209  -0.044176  0.005426  3.959854  0.006
C  C125  1  0.23337823  0.18992438  0.39756284  1  -0.073443  0.007993  -0.022906  -0.043676  0.005526  3.95938  0.006
C  C126  1  0.18971836  0.23321279  0.89756255  1  -0.075956  0.007862  -0.022723  -0.043179  0.00544  3.958992  0.006
C  C127  1  0.76679597  0.81021594  0.60246919  1  -0.074541  0.007923  -0.023003  -0.044055  0.005478  3.958434  0.006
C  C128  1  0.79947722  0.90694642  0.11396231  1  -0.029724  0.001267  -0.079272  -0.061658  0.000847  3.938177  0.001
C  C129  1  0.09311363  0.20049006  0.38600096  1  -0.030793  0.000957  -0.07951  -0.062364  0.000611  3.938101  0.001
C  C130  1  0.20046769  0.09293065  0.88603643  1  -0.021895  0.000721  -0.079402  -0.062331  0.000445  3.938303  0.001
C  C131  1  0.90706844  0.79951650  0.61398722  1  -0.021589  0.000972  -0.079333  -0.061461  0.000621  3.937548  0.001
C  C132  1  0.72163602  0.95835230  0.15152772  1  0.004409  0.000521  -0.097635  -0.202942  0.000336  3.997738  0.0
C  C133  1  0.04176457  0.27830259  0.34844097  1  0.044194  0.000623  -0.097703  -0.203023  0.000435  3.997772  0.0
C  C134  1  0.27833124  0.04154838  0.84848158  1  -0.005101  0.000658  -0.097636  -0.20296  0.000434  3.997991  0.0
C  C135  1  0.95843364  0.72167474  0.65153009  1  -0.005541  0.000592  -0.097554  -0.203  0.000409  3.998037  0.0
C  C136  1  0.89965623  0.71357371  0.06349759  1  1.573022  0.000443  0.204063  0.578689  0.001466  4.206681  -0.001
C  C137  1  0.28633589  0.10049020  0.43653910  1  1.574878  -0.000277  0.204037  0.578537  0.000904  4.207073  -0.002
C  C138  1  0.09996525  0.28617664  0.93644390  1  1.571271  -0.001187  0.20408  0.578127  3.3e-05  4.206589  -0.002
C  C139  1  0.71378265  0.89968492  0.56350142  1  1.573496  -0.000265  0.204423  0.579043  0.000907  4.206715  -0.002
C  C140  1  0.55378550  0.24108325  0.57418830  1  0.454397  -0.002906  -0.092518  0.047554  -0.001772  4.003636  -0.002
C  C141  1  0.75911834  0.44593976  0.92586435  1  0.480176  0.005204  -0.092762  0.044865  0.005915  4.002485  0.001
C  C142  1  0.44613726  0.75911646  0.42574014  1  0.451559  -0.002877  -0.092413  0.046672  -0.001748  4.004199  -0.002
C  C143  1  0.24101004  0.55384053  0.07420784  1  0.456209  -0.002939  -0.093216  0.04675  -0.001836  4.004965  -0.002
C  C144  1  0.66308010  0.35120979  0.58662610  1  0.278292  0.007154  -0.07766  -0.114145  0.004209  3.892936  0.007
C  C145  1  0.64891459  0.33674072  0.91331672  1  0.279416  0.006003  -0.077751  -0.115321  0.005104  3.893923  0.002
C  C146  1  0.33685485  0.64893346  0.41333917  1  0.278542  0.007143  -0.077635  -0.114808  0.004203  3.893605  0.007
C  C147  1  0.35111236  0.66323749  0.08663772  1  0.277823  0.006904  -0.077634  -0.115217  0.004039  3.89327  0.007
C  C148  1  0.00752098  0.29782239  0.53816826  1  0.444607  -0.000524  -0.092282  0.058593  -0.000469  3.971765  0.0
C  C149  1  0.70217045  0.99257750  0.96192054  1  0.445042  0.000606  -0.092422  0.058964  0.000496  3.97398  0.0
C  C150  1  0.99249716  0.70216824  0.46189876  1  0.444668  -0.000515  -0.092204  0.058659  -0.000464  3.971554  0.0
C  C151  1  0.29753253  0.00745670  0.03809285  1  0.436224  -0.005407  -0.091566  0.057997  -0.006294  3.968184  -0.001
C  C152  1  0.89800781  0.38234043  0.56224191  1  0.23074  0.002506  -0.07796  -0.12247  0.001189  3.89713  0.003
C  C153  1  0.61763306  0.10190420  0.93776437  1  0.226076  -0.002389  -0.078214  -0.122733  -0.001164  3.896762  -0.003
C  C154  1  0.10198393  0.61760427  0.43781763  1  0.231705  0.00252  -0.078401  -0.123138  0.001204  3.89671  0.003
C  C155  1  0.38225523  0.89819084  0.06219260  1  0.236243  -0.006002  -0.078581  -0.12389  -0.004749  3.89658  -0.003
C  C156  1  0.85098562  0.21732277  0.62010015  1  0.232537  0.000214  -0.147743  -0.285662  -0.001096  3.876152  0.002
C  C157  1  0.78273305  0.14855158  0.87985328  1  0.177575  4.6e-05  -0.147852  -0.285854  0.001242  3.876084  -0.002
C  C158  1  0.14874349  0.78253747  0.37989706  1  0.219717  0.00022  -0.147826  -0.285365  -0.001098  3.875347  0.002
C  C159  1  0.21716810  0.85132773  0.12006440  1  0.181719  4.5e-05  -0.14835  -0.286414  -0.001145  3.876941  0.002
N  N160  1  0.79578851  0.28958284  0.57764987  1  -0.988591  -0.1171  -0.360611  -0.043938  -0.076971  3.558417  -0.1
N  N161  1  0.71041608  0.20401903  0.92228344  1  -0.978951  0.116776  -0.36024  -0.043364  0.076328  3.556495  0.099
N  N162  1  0.20411811  0.71044071  0.42237209  1  -0.97915  -0.117033  -0.360348  -0.043469  -0.076919  3.557378  -0.1
N  N163  1  0.28949929  0.79593131  0.07762147  1  -0.979217  -0.115821  -0.360414  -0.043405  -0.075967  3.556942  -0.099
O  O164  1  0.70748137  0.08874464  0.44368445  1  -1.132496  -0.0699  -0.323344  -0.53875  -0.045915  2.443861  -0.063
O  O165  1  0.91166101  0.29272177  0.05632114  1  -1.131621  0.0678  -0.323404  -0.539156  0.044126  2.444061  0.062
O  O166  1  0.29264915  0.91148606  0.55626793  1  -1.130581  -0.069764  -0.323333  -0.538916  -0.045819  2.44517  -0.063
O  O167  1  0.08894662  0.70746918  0.94362733  1  -1.129628  -0.07223  -0.322959  -0.538726  -0.047101  2.443308  -0.065
O  O168  1  0.89935473  0.97013329  0.43125767  1  -1.138893  0.074418  -0.312718  -0.548516  0.048374  2.404229  0.067
O  O169  1  0.02999161  0.10071010  0.06875147  1  -1.138204  -0.074692  -0.313337  -0.549232  -0.048732  2.405695  -0.067
O  O170  1  0.10050802  0.02957367  0.56876026  1  -1.138074  0.074559  -0.31261  -0.548425  0.048472  2.404506  0.067
O  O171  1  0.97048347  0.89945009  0.93127164  1  -1.138206  -0.07474  -0.312931  -0.548785  -0.048471  2.406104  -0.068
O  O172  1  0.57149167  0.91897389  0.21342794  1  -1.098061  -0.000214  -0.166257  -0.240092  -0.000137  2.551378  0.0
O  O173  1  0.08127433  0.42860117  0.28662698  1  -1.098826  -0.000316  -0.166437  -0.24031  -0.000207  2.551433  0.0
O  O174  1  0.42843605  0.08091109  0.78657711  1  -1.09575  0.000263  -0.166484  -0.240245  0.000172  2.551803  0.0
O  O175  1  0.91904365  0.57151249  0.71338457  1  -1.096412  1.4e-05  -0.166445  -0.24015  -9e-06  2.551677  0.0
O  O176  1  0.95346626  0.79583382  0.03848068  1  -1.189898  0.005907  -0.33159  -0.627433  0.003622  2.421539  0.003
O  O177  1  0.20398741  0.04700090  0.46160819  1  -1.191604  0.000514  -0.331632  -0.627178  -0.000458  2.421415  0.001
O  O178  1  0.04665392  0.20386328  0.96158260  1  -1.189939  0.000857  -0.331541  -0.626932  0.000445  2.422569  0.002
O  O179  1  0.79604947  0.95285474  0.53830658  1  -1.190119  0.000521  -0.33175  -0.627608  -0.00045  2.420407  0.001
O  O180  1  0.91776252  0.58502119  0.05922694  1  -1.124555  0.089263  -0.317641  -0.530032  0.057787  2.408311  0.08
O  O181  1  0.41483512  0.08210941  0.44078226  1  -1.124509  0.088165  -0.316971  -0.52958  0.056946  2.408076  0.08
O  O182  1  0.08102981  0.41461015  0.94057575  1  -1.123162  0.085907  -0.317747  -0.530543  0.055421  2.408012  0.078
O  O183  1  0.58534373  0.91838483  0.55935547  1  -1.124355  0.087821  -0.317322  -0.530156  0.056671  2.407227  0.079
O  O184  1  0.56425466  0.18375364  0.52447439  1  -1.026591  -0.000697  -0.412016  -0.546501  -0.000262  2.469386  0.001
O  O185  1  0.81591883  0.43571263  0.97567064  1  -1.011484  0.206489  -0.408823  -0.540748  0.133864  2.464304  0.185
O  O186  1  0.43590722  0.81645917  0.47546887  1  -1.026629  -0.000914  -0.412189  -0.546997  -0.000397  2.467303  0.0
O  O187  1  0.18364017  0.56381277  0.02448294  1  -1.026624  -0.002804  -0.412067  -0.547642  -0.001564  2.466689  -0.001
O  O188  1  0.94580424  0.19445624  0.50264767  1  -1.024888  -0.004233  -0.408695  -0.560001  -0.002745  2.423745  -0.004
O  O189  1  0.80546812  0.05438206  0.99741006  1  -1.029045  0.00633  -0.409809  -0.561485  0.003791  2.425632  0.006
O  O190  1  0.05433845  0.80552673  0.49739812  1  -1.026615  -0.004347  -0.408572  -0.559776  -0.002817  2.423721  -0.004
O  O191  1  0.19411312  0.94533476  0.00265115  1  -1.019373  -0.210019  -0.406534  -0.555369  -0.135906  2.422909  -0.187
