# generated using pymatgen
data_CuH6C9SN3
_symmetry_space_group_name_H-M   'P 1'
_cell_length_a   13.52244414
_cell_length_b   13.52284086
_cell_length_c   15.83316833
_cell_angle_alpha   102.32219630
_cell_angle_beta   111.05493841
_cell_angle_gamma   109.35689554
_symmetry_Int_Tables_number   1
_chemical_formula_structural   CuH6C9SN3
_chemical_formula_sum   'Cu8 H48 C72 S8 N24'
_cell_volume   2360.50249505
_cell_formula_units_Z   8
loop_
 _symmetry_equiv_pos_site_id
 _symmetry_equiv_pos_as_xyz
  1  'x, y, z'
loop_
 _atom_site_type_symbol
 _atom_site_label
 _atom_site_symmetry_multiplicity
 _atom_site_fract_x
 _atom_site_fract_y
 _atom_site_fract_z
 _atom_site_occupancy
 _atom_site_pbe_bader_charge
 _atom_site_pbe_bader_spin_density
 _atom_site_pbe_cm5_charge
 _atom_site_pbe_ddec_charge
 _atom_site_pbe_ddec_spin_density
 _atom_site_pbe_ddec_sum_bond_order
 _atom_site_pbe_magmom
Cu  Cu0  1  0.92166687  0.01235839  0.71511511  1  0.598878  0  0.440057  0.266362  0  2.715762  0
Cu  Cu1  1  0.79751149  0.20629603  0.78447548  1  0.59708  0  0.438671  0.262771  0  2.718417  0
Cu  Cu2  1  0.07834170  0.98764693  0.28489296  1  0.598786  0  0.440023  0.266312  0  2.715625  0
Cu  Cu3  1  0.20249306  0.79370726  0.21553704  1  0.597207  0  0.438715  0.262794  0  2.71834  0
Cu  Cu4  1  0.69761829  0.97493049  0.65776338  1  0.463303  0  0.357902  0.179913  0  2.904814  0
Cu  Cu5  1  0.81743117  0.03957348  0.84178462  1  0.460527  0  0.357378  0.180088  0  2.907464  0
Cu  Cu6  1  0.30238872  0.02506748  0.34224106  1  0.463321  0  0.357937  0.179974  0  2.904768  0
Cu  Cu7  1  0.18256827  0.96042402  0.15821981  1  0.460288  0  0.357377  0.180076  0  2.907495  0
H  H8  1  0.11669605  0.83477537  0.55106367  1  0.097721  0  0.102637  0.106418  0  1.058768  0
H  H9  1  0.78485143  0.56578960  0.94867483  1  0.092896  0  0.102105  0.106718  0  1.056214  0
H  H10  1  0.88330620  0.16523343  0.44892933  1  0.096882  0  0.102643  0.106423  0  1.058796  0
H  H11  1  0.21514846  0.43421034  0.05132931  1  0.093393  0  0.102088  0.106679  0  1.056268  0
H  H12  1  0.95174197  0.85537382  0.57503898  1  0.074639  0  0.105367  0.075665  0  1.013147  0
H  H13  1  0.78111359  0.37665474  0.92449181  1  0.094088  0  0.105552  0.076297  0  1.014209  0
H  H14  1  0.04825847  0.14463404  0.42495387  1  0.074579  0  0.105395  0.075717  0  1.013103  0
H  H15  1  0.21890549  0.62335335  0.07552112  1  0.094234  0  0.10557  0.076283  0  1.01429  0
H  H16  1  0.35578363  0.07060542  0.84793582  1  0.111049  0  0.108648  0.118156  0  1.008262  0
H  H17  1  0.72298463  0.50735542  0.65180941  1  0.111708  0  0.109328  0.118892  0  1.008086  0
H  H18  1  0.64421801  0.92938640  0.15205851  1  0.110919  0  0.108668  0.118199  0  1.008168  0
H  H19  1  0.27701998  0.49264100  0.34819423  1  0.111636  0  0.109263  0.118802  0  1.00813  0
H  H20  1  0.17859279  0.08474896  0.85889709  1  0.12652  0  0.101483  0.076676  0  1.048952  0
H  H21  1  0.72591312  0.31905717  0.64070131  1  0.106387  0  0.101487  0.07631  0  1.048288  0
H  H22  1  0.82141358  0.91524610  0.14110223  1  0.126259  0  0.101477  0.076639  0  1.049022  0
H  H23  1  0.27409793  0.68094262  0.35930909  1  0.106134  0  0.101542  0.076413  0  1.048387  0
H  H24  1  0.34570621  0.29222870  0.88899323  1  0.094154  0  0.105737  0.111086  0  1.024821  0
H  H25  1  0.90294721  0.45556525  0.61058529  1  0.102373  0  0.106684  0.112526  0  1.023864  0
H  H26  1  0.65430858  0.70777094  0.11102884  1  0.094446  0  0.105696  0.110952  0  1.025013  0
H  H27  1  0.09702697  0.54442302  0.38939538  1  0.10228  0  0.10669  0.112576  0  1.023858  0
H  H28  1  0.17006423  0.54342024  0.86460432  1  0.091161  0  0.111548  0.130035  0  1.000275  0
H  H29  1  0.17873717  0.30463443  0.63561186  1  0.097122  0  0.11136  0.129062  0  0.999799  0
H  H30  1  0.82995016  0.45658713  0.13539766  1  0.091234  0  0.111597  0.130111  0  1.000306  0
H  H31  1  0.82125329  0.69536600  0.36437736  1  0.096912  0  0.111399  0.129074  0  1.000002  0
H  H32  1  0.53861692  0.36174366  0.88282519  1  0.058606  0  0.110453  0.079742  0  0.985618  0
H  H33  1  0.97840206  0.65464819  0.61661172  1  0.063211  0  0.110222  0.078735  0  0.986655  0
H  H34  1  0.46139283  0.63825501  0.11718731  1  0.058743  0  0.110465  0.079758  0  0.98557  0
H  H35  1  0.02157140  0.34534266  0.38337005  1  0.063676  0  0.110255  0.07883  0  0.986541  0
H  H36  1  0.32876507  0.59725593  0.85931451  1  0.06326  0  0.106498  0.11185  0  1.011441  0
H  H37  1  0.23831309  0.46910450  0.64133244  1  0.057691  0  0.105899  0.111072  0  1.012078  0
H  H38  1  0.67122032  0.40271993  0.14066073  1  0.063911  0  0.106467  0.111841  0  1.011584  0
H  H39  1  0.76168345  0.53091408  0.35868198  1  0.057688  0  0.105974  0.11119  0  1.012052  0
H  H40  1  0.51983373  0.65293093  0.85460499  1  0.079719  0  0.107144  0.073696  0  0.995693  0
H  H41  1  0.29835374  0.66473504  0.64561651  1  0.06693  0  0.106847  0.074258  0  0.996772  0
H  H42  1  0.48014773  0.34704393  0.14536269  1  0.079564  0  0.107167  0.073689  0  0.995785  0
H  H43  1  0.70164001  0.33528055  0.35438539  1  0.066458  0  0.106912  0.074291  0  0.99697  0
H  H44  1  0.96684673  0.44665171  0.84386330  1  0.102219  0  0.117231  0.084943  0  1.005957  0
H  H45  1  0.10240402  0.12214847  0.65620005  1  0.100274  0  0.117411  0.085079  0  1.005137  0
H  H46  1  0.03317133  0.55336707  0.15614985  1  0.102384  0  0.117207  0.08495  0  1.006008  0
H  H47  1  0.89759488  0.87786353  0.34380700  1  0.100205  0  0.117367  0.085068  0  1.004973  0
H  H48  1  0.25433182  0.79963332  0.54902060  1  0.114771  0  0.104155  0.121691  0  1.055989  0
H  H49  1  0.75143585  0.70536942  0.95060979  1  0.118018  0  0.103743  0.121115  0  1.055274  0
H  H50  1  0.74567501  0.20036372  0.45097754  1  0.114759  0  0.104151  0.12167  0  1.055978  0
H  H51  1  0.24857068  0.29463012  0.04939508  1  0.117995  0  0.103744  0.121104  0  1.055368  0
H  H52  1  0.44009198  0.81376085  0.54214660  1  0.11536  0  0.115474  0.087639  0  0.979532  0
H  H53  1  0.77195129  0.89786157  0.95734231  1  0.096067  0  0.115474  0.08695  0  0.979724  0
H  H54  1  0.55991666  0.18624903  0.45784869  1  0.115594  0  0.115538  0.087753  0  0.979464  0
H  H55  1  0.22803194  0.10212812  0.04265121  1  0.096506  0  0.115487  0.086974  0  0.979746  0
C  C56  1  0.05237801  0.24982766  0.87161536  1  0.924517  0  0.220228  0.367258  0  4.019954  0
C  C57  1  0.87784236  0.18003318  0.62816014  1  0.923259  0  0.219882  0.365837  0  4.019467  0
C  C58  1  0.94762170  0.75018256  0.12838899  1  0.92389  0  0.220244  0.36733  0  4.02005  0
C  C59  1  0.12215559  0.81997302  0.37184571  1  0.923169  0  0.219889  0.365771  0  4.019366  0
C  C60  1  0.13546635  0.89113365  0.62087120  1  0.040114  0  -0.081798  -0.15464  0  3.961005  0
C  C61  1  0.77114822  0.51455670  0.87882360  1  -0.048525  0  -0.081558  -0.155669  0  3.958466  0
C  C62  1  0.86453592  0.10887115  0.37912167  1  0.040828  0  -0.081783  -0.154745  0  3.960756  0
C  C63  1  0.22885634  0.48544772  0.12118030  1  -0.049284  0  -0.081605  -0.155804  0  3.958436  0
C  C64  1  0.04289858  0.90215997  0.63377094  1  0.459739  0  0.032383  0.070657  0  3.962177  0
C  C65  1  0.76907751  0.40898889  0.86581533  1  0.472944  0  0.032149  0.070736  0  3.964898  0
C  C66  1  0.95710885  0.09784329  0.36622025  1  0.460425  0  0.032464  0.070731  0  3.962128  0
C  C67  1  0.23093555  0.59101976  0.13419661  1  0.473447  0  0.032085  0.070843  0  3.965417  0
C  C68  1  0.26717096  0.02229199  0.78611327  1  -0.034799  0  -0.080405  -0.155274  0  3.938845  0
C  C69  1  0.73659187  0.48064367  0.71358225  1  -0.049026  0  -0.081685  -0.156682  0  3.940073  0
C  C70  1  0.73282790  0.97770648  0.21388278  1  -0.034512  0  -0.080419  -0.155261  0  3.938865  0
C  C71  1  0.26341415  0.51936098  0.28642228  1  -0.049221  0  -0.081674  -0.156776  0  3.940296  0
C  C72  1  0.20464380  0.39777104  0.87489573  1  0.542223  0  0.1291  0.232795  0  4.024881  0
C  C73  1  0.02280299  0.32905258  0.62521906  1  0.465139  0  0.127846  0.231706  0  4.023117  0
C  C74  1  0.79535919  0.60222467  0.12510186  1  0.542125  0  0.129096  0.232797  0  4.024958  0
C  C75  1  0.97718949  0.67095204  0.37478109  1  0.465292  0  0.127875  0.231673  0  4.022898  0
C  C76  1  0.16982652  0.02925465  0.79267187  1  0.438168  0  0.03398  0.07717  0  3.958476  0
C  C77  1  0.73684897  0.37667853  0.70694298  1  0.468746  0  0.032704  0.076797  0  3.957704  0
C  C78  1  0.83017597  0.97074217  0.20732526  1  0.438299  0  0.03389  0.077043  0  3.958248  0
C  C79  1  0.26316246  0.62332381  0.29307051  1  0.46905  0  0.03276  0.076995  0  3.957546  0
C  C80  1  0.25133759  0.95207937  0.69831469  1  -0.067333  0  0.013504  0.078333  0  3.961265  0
C  C81  1  0.75444954  0.55282217  0.80141784  1  -0.009993  0  0.014061  0.081008  0  3.959433  0
C  C82  1  0.74865882  0.04791524  0.30167609  1  -0.067073  0  0.013586  0.078468  0  3.961354  0
C  C83  1  0.24555592  0.44717386  0.19858579  1  -0.009729  0  0.014077  0.081113  0  3.95911  0
C  C84  1  0.38220215  0.37269411  0.88136529  1  0.003859  0  -0.080121  -0.155606  0  3.940134  0
C  C85  1  0.99111609  0.49988415  0.61838474  1  -0.024641  0  -0.082548  -0.157839  0  3.939939  0
C  C86  1  0.61780128  0.62730336  0.11864152  1  0.003345  0  -0.08006  -0.155384  0  3.939953  0
C  C87  1  0.00887471  0.50011654  0.38160310  1  -0.024146  0  -0.082558  -0.157827  0  3.939786  0
C  C88  1  0.13815037  0.45910932  0.86624579  1  -0.109805  0  -0.099237  -0.248974  0  3.970226  0
C  C89  1  0.09273938  0.27115233  0.63389508  1  -0.005012  0  -0.099494  -0.247835  0  3.970087  0
C  C90  1  0.86185261  0.54089177  0.13375462  1  -0.109616  0  -0.099312  -0.249099  0  3.970242  0
C  C91  1  0.90725054  0.72885162  0.36610153  1  -0.004906  0  -0.099571  -0.247941  0  3.970337  0
C  C92  1  0.32042737  0.43850668  0.87477888  1  0.02438  0  0.005217  0.066243  0  3.986337  0
C  C93  1  0.06377182  0.44494682  0.62531432  1  -0.040766  0  0.005287  0.063788  0  3.981547  0
C  C94  1  0.67957321  0.56148254  0.12521600  1  0.024393  0  0.00519  0.066247  0  3.985942  0
C  C95  1  0.93622018  0.55505398  0.37468345  1  -0.040911  0  0.005252  0.063767  0  3.981398  0
C  C96  1  0.48920468  0.41186641  0.87790588  1  0.486709  0  0.039629  0.084827  0  4.00431  0
C  C97  1  0.03362657  0.61031256  0.62174484  1  0.519871  0  0.039651  0.086786  0  4.00478  0
C  C98  1  0.51079731  0.58812545  0.12209749  1  0.487269  0  0.039532  0.084726  0  4.00441  0
C  C99  1  0.96635362  0.38968993  0.37824257  1  0.519651  0  0.039507  0.086485  0  4.004166  0
C  C100  1  0.37139841  0.54163516  0.86520153  1  -0.085775  0  -0.088282  -0.182194  0  3.981642  0
C  C101  1  0.17656987  0.50561605  0.63511419  1  0.008922  0  -0.087731  -0.179615  0  3.976575  0
C  C102  1  0.62859014  0.45834691  0.13477981  1  -0.08617  0  -0.088282  -0.182357  0  3.981921  0
C  C103  1  0.82342059  0.49439002  0.36488915  1  0.008527  0  -0.087806  -0.17979  0  3.976537  0
C  C104  1  0.47880430  0.57308440  0.86231906  1  0.53615  0  0.035717  0.081126  0  4.025279  0
C  C105  1  0.21074598  0.61584909  0.63781831  1  0.501034  0  0.035343  0.079345  0  4.021876  0
C  C106  1  0.52118486  0.42689337  0.13766101  1  0.536441  0  0.035668  0.081285  0  4.025201  0
C  C107  1  0.78923457  0.38415482  0.36218083  1  0.502689  0  0.035262  0.079311  0  4.022064  0
C  C108  1  0.35350332  0.94405031  0.68905919  1  0.502389  0  0.129496  0.242751  0  3.988834  0
C  C109  1  0.75558743  0.66421777  0.81066395  1  0.530835  0  0.129768  0.23867  0  3.987322  0
C  C110  1  0.64649834  0.05594782  0.31093974  1  0.501787  0  0.129423  0.242534  0  3.988879  0
C  C111  1  0.24441771  0.33578006  0.18933422  1  0.530623  0  0.129714  0.238639  0  3.987425  0
C  C112  1  0.02465262  0.40531878  0.85490752  1  0.515954  0  0.050404  0.141425  0  3.944527  0
C  C113  1  0.05009292  0.16895557  0.64508096  1  0.491851  0  0.051599  0.142698  0  3.946776  0
C  C114  1  0.97535676  0.59469416  0.14510080  1  0.515366  0  0.050339  0.141325  0  3.944571  0
C  C115  1  0.94990383  0.83104984  0.35492449  1  0.491565  0  0.051645  0.142807  0  3.946543  0
C  C116  1  0.34029213  0.86369410  0.60799633  1  0.013386  0  -0.098148  -0.234758  0  3.965789  0
C  C117  1  0.75637722  0.73220529  0.89167085  1  0.010536  0  -0.097742  -0.232572  0  3.961996  0
C  C118  1  0.65971227  0.13630492  0.39200024  1  0.01331  0  -0.098177  -0.234678  0  3.966068  0
C  C119  1  0.24362797  0.26779529  0.10833268  1  0.010493  0  -0.097734  -0.232519  0  3.962428  0
C  C120  1  0.55716630  0.01752843  0.75576282  1  0.918476  0  0.222073  0.389551  0  3.995591  0
C  C121  1  0.76183076  0.80086597  0.74383675  1  0.916553  0  0.220733  0.38785  0  3.996503  0
C  C122  1  0.44284011  0.98246939  0.24424187  1  0.918511  0  0.222031  0.389588  0  3.995283  0
C  C123  1  0.23817510  0.19912907  0.25617074  1  0.915848  0  0.22077  0.387849  0  3.996285  0
C  C124  1  0.44323685  0.87031172  0.60465294  1  0.450109  0  0.049664  0.133027  0  3.951369  0
C  C125  1  0.76607166  0.83840746  0.89492495  1  0.435538  0  0.049937  0.134782  0  3.950898  0
C  C126  1  0.55677298  0.12969242  0.39534856  1  0.449998  0  0.049635  0.132861  0  3.951472  0
C  C127  1  0.23392446  0.16159058  0.10507436  1  0.435166  0  0.049898  0.134685  0  3.951047  0
S  S128  1  0.00623689  0.11796399  0.88108097  1  -0.25072  0  -0.231828  -0.343623  0  3.111771  0
S  S129  1  0.73635540  0.12432366  0.61845584  1  -0.255595  0  -0.232443  -0.34178  0  3.108345  0
S  S130  1  0.99375999  0.88203869  0.11892364  1  -0.250318  0  -0.231748  -0.343511  0  3.11194  0
S  S131  1  0.26364503  0.87567747  0.38155323  1  -0.255564  0  -0.232467  -0.341782  0  3.108295  0
S  S132  1  0.69542754  0.11277002  0.85528433  1  -0.268675  0  -0.263269  -0.370163  0  2.932995  0
S  S133  1  0.75715366  0.83928618  0.64430252  1  -0.27478  0  -0.26391  -0.370531  0  2.933782  0
S  S134  1  0.30457385  0.88722706  0.14472210  1  -0.268657  0  -0.263241  -0.37015  0  2.9328  0
S  S135  1  0.24285683  0.16071596  0.35570218  1  -0.27447  0  -0.263847  -0.370449  0  2.933817  0
N  N136  1  0.05867476  0.97066830  0.71800428  1  -1.215813  0  -0.352999  -0.199792  0  3.582204  0
N  N137  1  0.75302690  0.34033379  0.78154905  1  -1.210965  0  -0.350761  -0.197997  0  3.581434  0
N  N138  1  0.94133097  0.02933999  0.28199837  1  -1.216251  0  -0.353038  -0.199764  0  3.582179  0
N  N139  1  0.24698370  0.65967008  0.21845584  1  -1.211181  0  -0.350727  -0.198183  0  3.581521  0
N  N140  1  0.16242523  0.29581263  0.88095751  1  -1.215635  0  -0.319011  -0.373015  0  3.293881  0
N  N141  1  0.91467488  0.28080285  0.61902427  1  -1.212094  0  -0.316533  -0.370581  0  3.292071  0
N  N142  1  0.83756654  0.70418426  0.11903900  1  -1.215663  0  -0.319036  -0.37312  0  3.293856  0
N  N143  1  0.08531780  0.71919778  0.38098027  1  -1.211798  0  -0.316518  -0.370476  0  3.29202  0
N  N144  1  0.53789733  0.51034103  0.86850729  1  -1.215952  0  -0.317117  -0.257246  0  3.353254  0
N  N145  1  0.14157962  0.66856476  0.63128667  1  -1.205349  0  -0.31523  -0.256286  0  3.350192  0
N  N146  1  0.46209306  0.48964383  0.13147778  1  -1.216801  0  -0.316972  -0.257206  0  3.353107  0
N  N147  1  0.85839318  0.33143280  0.36870423  1  -1.206667  0  -0.315083  -0.256046  0  3.349597  0
N  N148  1  0.97785073  0.29986374  0.85355275  1  -1.204791  0  -0.359384  -0.29159  0  3.535144  0
N  N149  1  0.94587560  0.12351016  0.64620485  1  -1.21484  0  -0.361511  -0.293903  0  3.540366  0
N  N150  1  0.02215405  0.70014906  0.14645343  1  -1.204085  0  -0.359308  -0.291486  0  3.535141  0
N  N151  1  0.05412572  0.87649939  0.35380287  1  -1.21494  0  -0.361478  -0.293886  0  3.540113  0
N  N152  1  0.46177950  0.01890265  0.76252198  1  -1.192701  0  -0.316903  -0.358721  0  3.247735  0
N  N153  1  0.75661892  0.69876310  0.73714817  1  -1.185098  0  -0.315659  -0.355582  0  3.243889  0
N  N154  1  0.53822182  0.98109030  0.23747640  1  -1.192414  0  -0.316927  -0.358691  0  3.247554  0
N  N155  1  0.24338941  0.30123738  0.26285686  1  -1.184658  0  -0.315675  -0.355617  0  3.243545  0
N  N156  1  0.55188741  0.94718874  0.67590933  1  -1.181609  0  -0.365562  -0.262189  0  3.542772  0
N  N157  1  0.77147110  0.87563907  0.82368097  1  -1.176865  0  -0.366001  -0.264239  0  3.546615  0
N  N158  1  0.44811848  0.05281373  0.32409413  1  -1.181683  0  -0.365554  -0.262213  0  3.542708  0
N  N159  1  0.22852552  0.12435293  0.17631689  1  -1.176754  0  -0.366024  -0.264262  0  3.5466  0
