# generated using pymatgen
data_CaH30C24O13
_symmetry_space_group_name_H-M   'P 1'
_cell_length_a   8.31952837
_cell_length_b   8.32197168
_cell_length_c   20.86400000
_cell_angle_alpha   90.00000000
_cell_angle_beta   90.00000000
_cell_angle_gamma   113.52667041
_symmetry_Int_Tables_number   1
_chemical_formula_structural   CaH30C24O13
_chemical_formula_sum   'Ca2 H60 C48 O26'
_cell_volume   1324.44016806
_cell_formula_units_Z   2
loop_
 _symmetry_equiv_pos_site_id
 _symmetry_equiv_pos_as_xyz
  1  'x, y, z'
loop_
 _atom_site_type_symbol
 _atom_site_label
 _atom_site_symmetry_multiplicity
 _atom_site_fract_x
 _atom_site_fract_y
 _atom_site_fract_z
 _atom_site_occupancy
 _atom_site_hle17_bader_spin_density
 _atom_site_hle17_ddec_charge
 _atom_site_hle17_ddec_spin_density
 _atom_site_hle17_ddec_sum_bond_order
 _atom_site_hle17_magmom
 _atom_site_hse06_10hf_bader_spin_density
 _atom_site_hse06_10hf_ddec_charge
 _atom_site_hse06_10hf_ddec_spin_density
 _atom_site_hse06_10hf_ddec_sum_bond_order
 _atom_site_hse06_10hf_magmom
 _atom_site_hse06_bader_spin_density
 _atom_site_hse06_ddec_charge
 _atom_site_hse06_ddec_spin_density
 _atom_site_hse06_ddec_sum_bond_order
 _atom_site_hse06_magmom
 _atom_site_pbe_bader_charge
 _atom_site_pbe_bader_spin_density
 _atom_site_pbe_cm5_charge
 _atom_site_pbe_ddec_charge
 _atom_site_pbe_ddec_spin_density
 _atom_site_pbe_ddec_sum_bond_order
 _atom_site_pbe_magmom
Ca  Ca0  1  0.51793507  0.48210385  0.75000863  1  0  1.540487  0  1.100057  0  0  1.397046  0  1.45365  0  0  1.440631  0  1.408744  0  1.654545  0  0.882358  1.364299  0  1.485525  0
Ca  Ca1  1  0.48206506  0.51789582  0.25000815  1  0  1.54049  0  1.100055  0  0  1.397035  0  1.45367  0  0  1.440631  0  1.408742  0  1.654586  0  0.882361  1.364304  0  1.485519  0
H  H2  1  0.97651293  0.00236822  0.69383100  1  0  0.079682  0  0.941672  0  0  0.083849  0  1.010266  0  0  0.086719  0  1.006592  0  0.104512  0  0.120778  0.081704  0  1.013129  0
H  H3  1  0.02348720  0.99763145  0.19383052  1  0  0.079694  0  0.941672  0  0  0.083861  0  1.010255  0  0  0.086732  0  1.00658  0  0.104516  0  0.120789  0.081717  0  1.013118  0
H  H4  1  0.00231064  0.97646033  0.30617475  1  0  0.07956  0  0.942035  0  0  0.083715  0  1.010589  0  0  0.086581  0  1.00691  0  0.104044  0  0.120711  0.081574  0  1.013448  0
H  H5  1  0.99769122  0.02354066  0.80617571  1  0  0.079546  0  0.942052  0  0  0.083689  0  1.010596  0  0  0.086556  0  1.006919  0  0.10402  0  0.120694  0.081549  0  1.013452  0
H  H6  1  0.68255561  0.02087363  0.49591306  1  0  0.091496  0  0.967661  0  0  0.10022  0  1.034044  0  0  0.103097  0  1.032399  0  0.120114  0  0.102648  0.098124  0  1.035281  0
H  H7  1  0.31744521  0.97912474  0.99591114  1  0  0.091501  0  0.967688  0  0  0.100231  0  1.03406  0  0  0.103108  0  1.032416  0  0.12016  0  0.102655  0.098137  0  1.035291  0
H  H8  1  0.02088321  0.68251531  0.50408551  1  0  0.091436  0  0.9678  0  0  0.100279  0  1.034038  0  0  0.103143  0  1.032427  0  0.120275  0  0.102628  0.098196  0  1.035253  0
H  H9  1  0.97911557  0.31748699  0.00408646  1  0  0.091433  0  0.967783  0  0  0.100272  0  1.03403  0  0  0.103139  0  1.032411  0  0.120512  0  0.102628  0.098189  0  1.035246  0
H  H10  1  0.39912149  0.99766160  0.44643117  1  0  0.092385  0  0.957981  0  0  0.101262  0  1.019432  0  0  0.103857  0  1.019478  0  0.077651  0  0.10031  0.099345  0  1.019593  0
H  H11  1  0.60087932  0.00233677  0.94643069  1  0  0.092387  0  0.957964  0  0  0.101263  0  1.019421  0  0  0.103857  0  1.019467  0  0.077646  0  0.100291  0.099347  0  1.019583  0
H  H12  1  0.99766480  0.39915061  0.55356451  1  0  0.092303  0  0.957885  0  0  0.10119  0  1.019343  0  0  0.103779  0  1.019402  0  0.077689  0  0.100286  0.099275  0  1.019504  0
H  H13  1  0.00233502  0.60085430  0.05356403  1  0  0.092304  0  0.957913  0  0  0.101192  0  1.01937  0  0  0.10378  0  1.019428  0  0.077691  0  0.100285  0.09928  0  1.019527  0
H  H14  1  0.16281275  0.01164845  0.51556221  1  0  0.097902  0  0.967161  0  0  0.106415  0  1.031744  0  0  0.109607  0  1.028839  0  0.096105  0  0.102578  0.104094  0  1.033913  0
H  H15  1  0.83718858  0.98835123  0.01556173  1  0  0.097951  0  0.96705  0  0  0.10643  0  1.031677  0  0  0.109622  0  1.028773  0  0.096093  0  0.102585  0.104111  0  1.033845  0
H  H16  1  0.01165434  0.16290787  0.48443204  1  0  0.097987  0  0.967166  0  0  0.106515  0  1.031722  0  0  0.109696  0  1.028827  0  0.09569  0  0.102663  0.104187  0  1.03388  0
H  H17  1  0.98834616  0.83709574  0.98443108  1  0  0.098007  0  0.967188  0  0  0.106545  0  1.031722  0  0  0.109728  0  1.02883  0  0.095691  0  0.102671  0.104217  0  1.03388  0
H  H18  1  0.21004153  0.05821209  0.63315328  1  0  0.095372  0  0.980082  0  0  0.101876  0  1.045902  0  0  0.105209  0  1.044149  0  0.085691  0  0.100484  0.099452  0  1.047301  0
H  H19  1  0.78995672  0.94178890  0.13315280  1  0  0.095361  0  0.980077  0  0  0.101863  0  1.045898  0  0  0.1052  0  1.044146  0  0.085708  0  0.100488  0.099439  0  1.047297  0
H  H20  1  0.05820528  0.21011893  0.36684241  1  0  0.095281  0  0.979781  0  0  0.101754  0  1.045677  0  0  0.105075  0  1.043924  0  0.086136  0  0.100489  0.099327  0  1.047078  0
H  H21  1  0.94179538  0.78988205  0.86684145  1  0  0.095298  0  0.979729  0  0  0.101745  0  1.045657  0  0  0.105067  0  1.043903  0  0.086089  0  0.10048  0.099318  0  1.047059  0
H  H22  1  0.48949673  0.08014073  0.68203988  1  0  0.105177  0  0.956946  0  0  0.110145  0  1.026372  0  0  0.114487  0  1.022319  0  0.093821  0  0.113406  0.106932  0  1.029424  0
H  H23  1  0.51050048  0.91985763  0.18203844  1  0  0.105128  0  0.957051  0  0  0.110154  0  1.026414  0  0  0.114498  0  1.022357  0  0.093868  0  0.113408  0.106935  0  1.029472  0
H  H24  1  0.08014133  0.48950995  0.31795916  1  0  0.105242  0  0.956986  0  0  0.110175  0  1.026428  0  0  0.114517  0  1.022372  0  0.093743  0  0.113431  0.106934  0  1.029511  0
H  H25  1  0.91986106  0.51049235  0.81795916  1  0  0.105203  0  0.957014  0  0  0.110165  0  1.02642  0  0  0.114508  0  1.022365  0  0.093749  0  0.113424  0.106928  0  1.0295  0
H  H26  1  0.57478976  0.13531882  0.79852761  1  0  0.390096  0  0.905026  0  0  0.35885  0  0.986359  0  0  0.37036  0  0.973082  0  0.656781  0  0.299575  0.350672  0  0.995761  0
H  H27  1  0.42520745  0.86467954  0.29852665  1  0  0.390108  0  0.90499  0  0  0.358858  0  0.986338  0  0  0.370368  0  0.97306  0  0.656772  0  0.299563  0.35068  0  0.995741  0
H  H28  1  0.13530635  0.57479078  0.20146664  1  0  0.390033  0  0.905088  0  0  0.358787  0  0.986403  0  0  0.370299  0  0.973125  0  0.656903  0  0.299501  0.350613  0  0.995793  0
H  H29  1  0.86469310  0.42521021  0.70146712  1  0  0.390029  0  0.9051  0  0  0.358784  0  0.986412  0  0  0.370296  0  0.973134  0  0.656909  0  0.299505  0.350609  0  0.995803  0
H  H30  1  0.39912411  0.04679037  0.87558618  1  0  0.059297  0  0.930946  0  0  0.078644  0  0.989921  0  0  0.07821  0  0.990385  0  0.058978  0  0.1074  0.078869  0  0.989663  0
H  H31  1  0.60087190  0.95320799  0.37558522  1  0  0.05938  0  0.93095  0  0  0.078701  0  0.989925  0  0  0.078265  0  0.990391  0  0.059009  0  0.107439  0.078927  0  0.989666  0
H  H32  1  0.04670734  0.39911523  0.12442101  1  0  0.058994  0  0.931026  0  0  0.078366  0  0.990043  0  0  0.077917  0  0.990516  0  0.058525  0  0.107278  0.078592  0  0.989785  0
H  H33  1  0.95329211  0.60088576  0.62442149  1  0  0.05898  0  0.931019  0  0  0.078355  0  0.990029  0  0  0.077905  0  0.990503  0  0.058535  0  0.107277  0.078581  0  0.989772  0
H  H34  1  0.26338382  0.12679349  0.83110142  1  0  0.047918  0  0.945231  0  0  0.060296  0  1.016099  0  0  0.060986  0  1.014723  0  0.049102  0  0.100864  0.059664  0  1.017271  0
H  H35  1  0.73661219  0.87320487  0.33109950  1  0  0.047968  0  0.945263  0  0  0.060328  0  1.016125  0  0  0.061018  0  1.014748  0  0.049175  0  0.100864  0.059697  0  1.017294  0
H  H36  1  0.12677019  0.26342158  0.16890242  1  0  0.04795  0  0.944879  0  0  0.060247  0  1.015886  0  0  0.060938  0  1.014503  0  0.048881  0  0.100862  0.05962  0  1.01705  0
H  H37  1  0.87322994  0.73657809  0.66890242  1  0  0.047964  0  0.944929  0  0  0.060268  0  1.01592  0  0  0.060957  0  1.014538  0  0.04888  0  0.100883  0.05964  0  1.017083  0
H  H38  1  0.32187053  0.26248320  0.93855589  1  0  0.056735  0  0.928175  0  0  0.070005  0  0.995256  0  0  0.070543  0  0.994283  0  0.057703  0  0.099567  0.069558  0  0.996067  0
H  H39  1  0.67812720  0.73751647  0.43855445  1  0  0.056727  0  0.928132  0  0  0.069999  0  0.995213  0  0  0.070536  0  0.994239  0  0.057746  0  0.099574  0.069553  0  0.996024  0
H  H40  1  0.26246542  0.32189971  0.06144316  1  0  0.056767  0  0.92802  0  0  0.0701  0  0.995084  0  0  0.070638  0  0.994107  0  0.058241  0  0.099643  0.069653  0  0.995903  0
H  H41  1  0.73753472  0.67809996  0.56144316  1  0  0.056757  0  0.927987  0  0  0.070092  0  0.995054  0  0  0.070627  0  0.994075  0  0.058243  0  0.099636  0.069642  0  0.995872  0
H  H42  1  0.55478349  0.34383229  0.92455521  1  0  0.052528  0  0.932196  0  0  0.065535  0  0.999499  0  0  0.065592  0  1.000413  0  0.056504  0  0.098551  0.065378  0  0.999068  0
H  H43  1  0.44521612  0.65616607  0.42455474  1  0  0.052539  0  0.93218  0  0  0.06555  0  0.999478  0  0  0.065607  0  1.000391  0  0.056502  0  0.09856  0.065395  0  0.999045  0
H  H44  1  0.34382156  0.55475068  0.07544526  1  0  0.052499  0  0.931988  0  0  0.065526  0  0.999324  0  0  0.065611  0  1.00018  0  0.056742  0  0.098529  0.065362  0  0.998928  0
H  H45  1  0.65617857  0.44524900  0.57544526  1  0  0.052495  0  0.931983  0  0  0.065526  0  0.999322  0  0  0.065609  0  1.000176  0  0.056742  0  0.098529  0.065361  0  0.998926  0
H  H46  1  0.43872958  0.70456715  0.87991277  1  0  0.097286  0  0.963119  0  0  0.111084  0  1.030865  0  0  0.112392  0  1.029902  0  0.101051  0  0.104975  0.110042  0  1.031634  0
H  H47  1  0.56127056  0.29543253  0.37991325  1  0  0.097282  0  0.96311  0  0  0.111079  0  1.030859  0  0  0.112387  0  1.029897  0  0.101058  0  0.10498  0.110036  0  1.031629  0
H  H48  1  0.70464032  0.43875245  0.12008340  1  0  0.09738  0  0.963015  0  0  0.111119  0  1.030841  0  0  0.112429  0  1.029879  0  0.10095  0  0.10496  0.110072  0  1.031617  0
H  H49  1  0.29536033  0.56124854  0.62008292  1  0  0.097356  0  0.963015  0  0  0.11112  0  1.03081  0  0  0.112429  0  1.029851  0  0.100957  0  0.104947  0.110074  0  1.031585  0
H  H50  1  0.34176673  0.56109782  0.94629745  1  0  0.066049  0  0.963047  0  0  0.082151  0  1.034445  0  0  0.081832  0  1.036191  0  0.046659  0  0.087457  0.082289  0  1.033308  0
H  H51  1  0.65823273  0.43890316  0.44629745  1  0  0.066036  0  0.963046  0  0  0.082138  0  1.034447  0  0  0.081819  0  1.036192  0  0.046652  0  0.087457  0.082276  0  1.033309  0
H  H52  1  0.56112024  0.34179696  0.05370111  1  0  0.066117  0  0.962801  0  0  0.082225  0  1.034162  0  0  0.081912  0  1.035902  0  0.046663  0  0.087521  0.082363  0  1.033026  0
H  H53  1  0.43888042  0.65820403  0.55370111  1  0  0.066109  0  0.962782  0  0  0.082211  0  1.034161  0  0  0.081897  0  1.035902  0  0.046655  0  0.087523  0.082348  0  1.033025  0
H  H54  1  0.57457305  0.64354649  0.93290452  1  0  0.071563  0  0.947885  0  0  0.087842  0  1.01735  0  0  0.088012  0  1.018131  0  0.076034  0  0.091642  0.087612  0  1.016932  0
H  H55  1  0.42542709  0.35645319  0.43290452  1  0  0.071537  0  0.947899  0  0  0.087818  0  1.01736  0  0  0.087988  0  1.018142  0  0.076025  0  0.091641  0.087588  0  1.016942  0
H  H56  1  0.64357129  0.57454832  0.06709404  1  0  0.071473  0  0.948047  0  0  0.087782  0  1.017455  0  0  0.087952  0  1.018237  0  0.076131  0  0.091619  0.087551  0  1.017036  0
H  H57  1  0.35643057  0.42545267  0.56709356  1  0  0.07146  0  0.94805  0  0  0.087766  0  1.017464  0  0  0.087936  0  1.018246  0  0.076131  0  0.09162  0.087535  0  1.017045  0
H  H58  1  0.39482583  0.76918667  0.76762989  1  0  0.433501  0  0.858099  0  0  0.405291  0  0.915163  0  0  0.41597  0  0.899526  0  0.647717  0  0.303074  0.397674  0  0.926313  0
H  H59  1  0.60517498  0.23081170  0.26762989  1  0  0.433477  0  0.858127  0  0  0.405263  0  0.915201  0  0  0.415942  0  0.899562  0  0.647695  0  0.303074  0.397645  0  0.92635  0
H  H60  1  0.76922077  0.39483487  0.23237155  1  0  0.433464  0  0.858095  0  0  0.405227  0  0.915205  0  0  0.415904  0  0.899569  0  0.647387  0  0.303122  0.397612  0  0.926354  0
H  H61  1  0.23077936  0.60516481  0.73237155  1  0  0.433483  0  0.858063  0  0  0.405242  0  0.915179  0  0  0.41592  0  0.899541  0  0.647388  0  0.303115  0.397628  0  0.926328  0
C  C62  1  0.09213032  0.28256786  0.70796923  1  0  0.670063  0  3.868019  0  0  0.612178  0  4.181712  0  0  0.645441  0  4.173599  0  1.626426  0  0.221804  0.589567  0  4.186476  0
C  C63  1  0.90787102  0.71743181  0.20796875  1  0  0.670034  0  3.868036  0  0  0.612137  0  4.181749  0  0  0.645401  0  4.173634  0  1.626412  0  0.221771  0.589526  0  4.186514  0
C  C64  1  0.28257131  0.09211813  0.29203269  1  0  0.66991  0  3.868076  0  0  0.611865  0  4.182006  0  0  0.645126  0  4.173887  0  1.62704  0  0.221663  0.589255  0  4.186769  0
C  C65  1  0.71742882  0.90788154  0.79203317  1  0  0.669863  0  3.868214  0  0  0.611891  0  4.181999  0  0  0.645141  0  4.173895  0  1.627045  0  0.221683  0.589282  0  4.186761  0
C  C66  1  0.93825417  0.10304314  0.71452358  1  0  0.029404  0  3.594166  0  0  -0.005115  0  3.852053  0  0  -0.001294  0  3.855072  0  0.404007  0  0.005952  -0.007783  0  3.850088  0
C  C67  1  0.06174717  0.89695654  0.21452310  1  0  0.029418  0  3.594221  0  0  -0.005063  0  3.852063  0  0  -0.001243  0  3.85508  0  0.403977  0  0.005986  -0.007733  0  3.8501  0
C  C68  1  0.10302938  0.93823329  0.28548313  1  0  0.0295  0  3.594457  0  0  -0.004819  0  3.852259  0  0  -0.000984  0  3.85526  0  0.431793  0  0.006057  -0.007501  0  3.850308  0
C  C69  1  0.89697196  0.06176638  0.78548361  1  0  0.029542  0  3.594509  0  0  -0.004704  0  3.852204  0  0  -0.000869  0  3.85521  0  0.431799  0  0.006109  -0.007388  0  3.850254  0
C  C70  1  0.76938133  0.05827630  0.61938938  1  0  0.594105  0  3.780812  0  0  0.540603  0  4.081713  0  0  0.575198  0  4.071706  0  1.460552  0  0.239758  0.517  0  4.088209  0
C  C71  1  0.23062121  0.94172337  0.11938842  1  0  0.594152  0  3.78065  0  0  0.54067  0  4.081507  0  0  0.575267  0  4.071497  0  1.460554  0  0.239804  0.517066  0  4.088005  0
C  C72  1  0.05828809  0.76935966  0.38061398  1  0  0.593873  0  3.780555  0  0  0.540468  0  4.081397  0  0  0.575069  0  4.071387  0  1.459803  0  0.239785  0.516848  0  4.087912  0
C  C73  1  0.94171310  0.23064263  0.88061446  1  0  0.593992  0  3.780394  0  0  0.540536  0  4.081331  0  0  0.575138  0  4.07132  0  1.4598  0  0.239819  0.516917  0  4.087848  0
C  C74  1  0.60224278  0.04976801  0.59180167  1  0  -0.084398  0  3.798886  0  0  -0.061977  0  4.03417  0  0  -0.071943  0  4.058118  0  -0.0223  0  -0.019859  -0.055498  0  4.018089  0
C  C75  1  0.39775563  0.95023035  0.09180071  1  0  -0.084421  0  3.798893  0  0  -0.062017  0  4.034194  0  0  -0.071983  0  4.058141  0  -0.022264  0  -0.019885  -0.055537  0  4.018113  0
C  C76  1  0.04976822  0.60223959  0.40819306  1  0  -0.084273  0  3.798564  0  0  -0.061919  0  4.033938  0  0  -0.07188  0  4.057877  0  -0.0217  0  -0.019915  -0.055442  0  4.017864  0
C  C77  1  0.95023417  0.39776271  0.90819354  1  0  -0.084378  0  3.798588  0  0  -0.061999  0  4.033974  0  0  -0.071959  0  4.057912  0  -0.021898  0  -0.019925  -0.055523  0  4.017902  0
C  C78  1  0.57692842  0.02718670  0.52527416  1  0  -0.079747  0  3.753507  0  0  -0.102415  0  3.995504  0  0  -0.101561  0  4.016821  0  -0.100428  0  -0.083782  -0.10272  0  3.981042  0
C  C79  1  0.42306947  0.97281036  0.02527272  1  0  -0.079658  0  3.753515  0  0  -0.102329  0  3.995512  0  0  -0.101471  0  4.016817  0  -0.100543  0  -0.08374  -0.102635  0  3.981051  0
C  C80  1  0.02718729  0.57691916  0.47472105  1  0  -0.079944  0  3.753802  0  0  -0.102707  0  3.995861  0  0  -0.101855  0  4.017175  0  -0.101095  0  -0.083808  -0.103021  0  3.9814  0
C  C81  1  0.97281097  0.42308183  0.97472153  1  0  -0.079882  0  3.753791  0  0  -0.102647  0  3.995835  0  0  -0.101794  0  4.017149  0  -0.101353  0  -0.0838  -0.102961  0  3.981375  0
C  C82  1  0.41945158  0.01439805  0.49802531  1  0  -0.0836  0  3.774286  0  0  -0.0912  0  4.020385  0  0  -0.095814  0  4.043508  0  -0.031308  0  -0.091763  -0.088166  0  4.004734  0
C  C83  1  0.58054406  0.98559639  0.99802483  1  0  -0.083731  0  3.774408  0  0  -0.091333  0  4.020505  0  0  -0.095947  0  4.04363  0  -0.031581  0  -0.091815  -0.088299  0  4.004856  0
C  C84  1  0.01439769  0.41948559  0.50197038  1  0  -0.083209  0  3.774073  0  0  -0.090831  0  4.020239  0  0  -0.095426  0  4.043329  0  -0.030945  0  -0.091604  -0.087806  0  4.004597  0
C  C85  1  0.98560349  0.58051670  0.00197038  1  0  -0.083235  0  3.774073  0  0  -0.090859  0  4.020241  0  0  -0.095455  0  4.043334  0  -0.031002  0  -0.091605  -0.087835  0  4.004595  0
C  C86  1  0.28653492  0.02377394  0.53691430  1  0  -0.050396  0  3.738789  0  0  -0.068572  0  3.986056  0  0  -0.067836  0  4.006016  0  -0.068521  0  -0.08141  -0.068785  0  3.972378  0
C  C87  1  0.71346469  0.97622442  0.03691382  1  0  -0.050412  0  3.738666  0  0  -0.068558  0  3.985937  0  0  -0.067822  0  4.005896  0  -0.067957  0  -0.081392  -0.068772  0  3.972259  0
C  C88  1  0.02377984  0.28660052  0.46308282  1  0  -0.050647  0  3.738648  0  0  -0.068811  0  3.985919  0  0  -0.068066  0  4.005872  0  -0.067758  0  -0.081524  -0.069006  0  3.97222  0
C  C89  1  0.97622307  0.71340309  0.96308282  1  0  -0.05067  0  3.73867  0  0  -0.068829  0  3.985919  0  0  -0.068087  0  4.005874  0  -0.067682  0  -0.081529  -0.069024  0  3.972221  0
C  C90  1  0.31197640  0.04765798  0.60298984  1  0  -0.075604  0  3.753375  0  0  -0.083214  0  3.998434  0  0  -0.087357  0  4.019505  0  -0.054755  0  -0.088005  -0.080526  0  3.984156  0
C  C91  1  0.68802201  0.95234039  0.10298936  1  0  -0.075522  0  3.75329  0  0  -0.083134  0  3.998355  0  0  -0.087282  0  4.019433  0  -0.055013  0  -0.087998  -0.080446  0  3.984076  0
C  C92  1  0.04765396  0.31203497  0.39700537  1  0  -0.075463  0  3.753034  0  0  -0.083087  0  3.998138  0  0  -0.087211  0  4.019196  0  -0.054482  0  -0.087984  -0.080405  0  3.983868  0
C  C93  1  0.95234722  0.68796733  0.89700537  1  0  -0.075501  0  3.752987  0  0  -0.083116  0  3.998118  0  0  -0.087239  0  4.019174  0  -0.054418  0  -0.087994  -0.080434  0  3.983848  0
C  C94  1  0.46930915  0.06113337  0.63057036  1  0  -0.049716  0  3.701809  0  0  -0.07868  0  3.952878  0  0  -0.075783  0  3.969834  0  -0.010484  0  -0.07215  -0.080413  0  3.941516  0
C  C95  1  0.53068805  0.93886499  0.13056940  1  0  -0.049701  0  3.701949  0  0  -0.078713  0  3.953016  0  0  -0.075817  0  3.969973  0  -0.010525  0  -0.072134  -0.080442  0  3.941655  0
C  C96  1  0.06113092  0.46932962  0.36942724  1  0  -0.049822  0  3.701844  0  0  -0.078699  0  3.952863  0  0  -0.075804  0  3.969812  0  -0.011342  0  -0.072166  -0.080413  0  3.941515  0
C  C97  1  0.93887147  0.53067268  0.86942724  1  0  -0.049727  0  3.701833  0  0  -0.078619  0  3.952833  0  0  -0.075723  0  3.969783  0  -0.011248  0  -0.072131  -0.080336  0  3.941484  0
C  C98  1  0.83641586  0.60585417  0.64734950  1  0  0.113743  0  3.667216  0  0  0.048722  0  3.946314  0  0  0.05605  0  3.951865  0  0.440223  0  -0.074778  0.043797  0  3.942419  0
C  C99  1  0.16358427  0.39414550  0.14734902  1  0  0.113738  0  3.667198  0  0  0.048717  0  3.946287  0  0  0.056047  0  3.951841  0  0.440232  0  -0.074775  0.043795  0  3.942395  0
C  C100  1  0.60585001  0.83637099  0.35265289  1  0  0.11293  0  3.66806  0  0  0.048038  0  3.946886  0  0  0.055357  0  3.95245  0  0.438488  0  -0.075027  0.043115  0  3.942989  0
C  C101  1  0.39414547  0.16362606  0.85265433  1  0  0.11323  0  3.66767  0  0  0.048282  0  3.946529  0  0  0.055598  0  3.952098  0  0.439412  0  -0.074931  0.04336  0  3.942631  0
C  C102  1  0.69342684  0.57472131  0.59851658  1  0  0.04  0  3.670297  0  0  -0.017679  0  3.941255  0  0  -0.011858  0  3.948306  0  0.398123  0  -0.073297  -0.021672  0  3.93641  0
C  C103  1  0.30657329  0.42527836  0.09851610  1  0  0.039987  0  3.67033  0  0  -0.017662  0  3.94126  0  0  -0.011852  0  3.948328  0  0.398105  0  -0.073281  -0.021663  0  3.936427  0
C  C104  1  0.57472133  0.69341017  0.40148294  1  0  0.040261  0  3.670408  0  0  -0.017354  0  3.941188  0  0  -0.011537  0  3.948235  0  0.398912  0  -0.073212  -0.021343  0  3.936347  0
C  C105  1  0.42527640  0.30658950  0.90148342  1  0  0.040099  0  3.67049  0  0  -0.017515  0  3.941285  0  0  -0.011699  0  3.948337  0  0.399172  0  -0.073273  -0.021503  0  3.936442  0
C  C106  1  0.44523266  0.59877703  0.90946079  1  0  -0.079414  0  3.663431  0  0  -0.173167  0  3.927605  0  0  -0.167593  0  3.933282  0  0.319919  0  -0.144908  -0.176763  0  3.923587  0
C  C107  1  0.55476627  0.40122264  0.40946127  1  0  -0.079378  0  3.663405  0  0  -0.173125  0  3.92759  0  0  -0.167552  0  3.933267  0  0.319912  0  -0.144902  -0.176722  0  3.923572  0
C  C108  1  0.59881521  0.44524113  0.09053633  1  0  -0.079611  0  3.663367  0  0  -0.173299  0  3.927547  0  0  -0.167736  0  3.933231  0  0.319684  0  -0.144922  -0.176894  0  3.923534  0
C  C109  1  0.40118492  0.55475854  0.59053633  1  0  -0.079523  0  3.6634  0  0  -0.173234  0  3.927566  0  0  -0.167673  0  3.933252  0  0.319679  0  -0.144889  -0.176828  0  3.923551  0
O  O110  1  0.24079777  0.28091915  0.71867667  1  0  -0.674182  0  1.95668  0  0  -0.614874  0  2.203648  0  0  -0.642743  0  2.194735  0  -1.203212  0  -0.36637  -0.594963  0  2.20905  0
O  O111  1  0.75920529  0.71908184  0.21867619  1  0  -0.674179  0  1.95662  0  0  -0.614862  0  2.203576  0  0  -0.642733  0  2.19466  0  -1.203173  0  -0.36636  -0.594954  0  2.208978  0
O  O112  1  0.28088201  0.24072625  0.28132525  1  0  -0.6742  0  1.956461  0  0  -0.614702  0  2.203287  0  0  -0.64257  0  2.194364  0  -1.203564  0  -0.366199  -0.594795  0  2.208692  0
O  O113  1  0.71911932  0.75927343  0.78132525  1  0  -0.674201  0  1.956511  0  0  -0.614735  0  2.203299  0  0  -0.642598  0  2.194381  0  -1.203576  0  -0.366197  -0.594825  0  2.208705  0
O  O114  1  0.05820326  0.41477798  0.69516727  1  0  -0.633363  0  2.016601  0  0  -0.573857  0  2.243259  0  0  -0.599185  0  2.232679  0  -1.195227  0  -0.302103  -0.556116  0  2.250038  0
O  O115  1  0.94179688  0.58522169  0.19516679  1  0  -0.633308  0  2.016631  0  0  -0.573805  0  2.243287  0  0  -0.599132  0  2.232707  0  -1.195256  0  -0.302081  -0.556064  0  2.250064  0
O  O116  1  0.41484313  0.05823699  0.30483368  1  0  -0.633243  0  2.016413  0  0  -0.573799  0  2.243228  0  0  -0.59911  0  2.232634  0  -1.195116  0  -0.302139  -0.556059  0  2.250014  0
O  O117  1  0.58515820  0.94176269  0.80483464  1  0  -0.633205  0  2.01644  0  0  -0.57381  0  2.243247  0  0  -0.599114  0  2.232655  0  -1.195106  0  -0.302158  -0.556071  0  2.250033  0
O  O118  1  0.78219690  0.09761471  0.68309816  1  0  -0.316302  0  2.316993  0  0  -0.248084  0  2.55333  0  0  -0.267965  0  2.550795  0  -1.05942  0  -0.152008  -0.234303  0  2.554736  0
O  O119  1  0.21780324  0.90238497  0.18309816  1  0  -0.316319  0  2.317052  0  0  -0.248091  0  2.553354  0  0  -0.267971  0  2.550817  0  -1.059388  0  -0.152007  -0.234308  0  2.554759  0
O  O120  1  0.09764105  0.78221908  0.31690232  1  0  -0.316277  0  2.316929  0  0  -0.248224  0  2.553323  0  0  -0.268098  0  2.550769  0  -1.059029  0  -0.152051  -0.234423  0  2.554715  0
O  O121  1  0.90235908  0.21778059  0.81690280  1  0  -0.316315  0  2.31682  0  0  -0.248301  0  2.553253  0  0  -0.268174  0  2.550698  0  -1.059008  0  -0.152086  -0.234499  0  2.554642  0
O  O122  1  0.88435375  0.03244082  0.58969709  1  0  -0.527398  0  1.934665  0  0  -0.481654  0  2.152439  0  0  -0.501812  0  2.144385  0  -1.146307  0  -0.274441  -0.467913  0  2.15781  0
O  O123  1  0.11564570  0.96756017  0.08969613  1  0  -0.527449  0  1.93446  0  0  -0.48172  0  2.152223  0  0  -0.501887  0  2.144178  0  -1.146325  0  -0.274487  -0.467979  0  2.157597  0
O  O124  1  0.03242889  0.88428191  0.41031394  1  0  -0.527149  0  1.934438  0  0  -0.481447  0  2.152195  0  0  -0.501624  0  2.144161  0  -1.145994  0  -0.274342  -0.467696  0  2.15756  0
O  O125  1  0.96757056  0.11571908  0.91031394  1  0  -0.527196  0  1.934437  0  0  -0.481465  0  2.152218  0  0  -0.501642  0  2.144185  0  -1.145941  0  -0.274355  -0.467715  0  2.157583  0
O  O126  1  0.77374293  0.47533994  0.69671156  1  0  -0.625599  0  2.088203  0  0  -0.562503  0  2.337887  0  0  -0.58211  0  2.324768  0  -1.192599  0  -0.446345  -0.548332  0  2.346598  0
O  O127  1  0.22625600  0.52465973  0.19671156  1  0  -0.625639  0  2.088214  0  0  -0.56254  0  2.337901  0  0  -0.582149  0  2.324782  0  -1.192582  0  -0.446356  -0.548371  0  2.346612  0
O  O128  1  0.47530941  0.77372783  0.30328700  1  0  -0.625532  0  2.088365  0  0  -0.562483  0  2.33793  0  0  -0.582086  0  2.324816  0  -1.191518  0  -0.4463  -0.548321  0  2.346647  0
O  O129  1  0.52468607  0.22626922  0.80328844  1  0  -0.625541  0  2.088233  0  0  -0.562504  0  2.337867  0  0  -0.582106  0  2.324754  0  -1.192547  0  -0.44632  -0.548338  0  2.346583  0
O  O130  1  0.54587936  0.58031881  0.63232841  1  0  -0.318277  0  2.32113  0  0  -0.23184  0  2.573326  0  0  -0.250181  0  2.576676  0  -1.078306  0  -0.248772  -0.218676  0  2.570488  0
O  O131  1  0.45411958  0.41968087  0.13232889  1  0  -0.318193  0  2.321035  0  0  -0.231786  0  2.573231  0  0  -0.250125  0  2.576583  0  -1.078308  0  -0.248744  -0.218622  0  2.570397  0
O  O132  1  0.58031925  0.54589115  0.36767350  1  0  -0.318396  0  2.320926  0  0  -0.231925  0  2.573088  0  0  -0.250262  0  2.576439  0  -1.078825  0  -0.248749  -0.218763  0  2.57025  0
O  O133  1  0.41967863  0.45410590  0.86767398  1  0  -0.31837  0  2.321016  0  0  -0.23187  0  2.573152  0  0  -0.250208  0  2.576505  0  -1.078827  0  -0.248704  -0.218706  0  2.570312  0
O  O134  1  0.35017525  0.64980975  0.75000671  1  0  -0.912203  0  1.882124  0  0  -0.856661  0  2.064406  0  0  -0.877051  0  2.031028  0  -1.311855  0  -0.644124  -0.841919  0  2.08773  0
O  O135  1  0.64982316  0.35018861  0.25000527  1  0  -0.912167  0  1.882183  0  0  -0.856624  0  2.064464  0  0  -0.877014  0  2.031085  0  -1.311834  0  -0.64414  -0.841883  0  2.087786  0
