# generated using pymatgen
data_ZnH16C13I2NO4
_symmetry_space_group_name_H-M   'P 1'
_cell_length_a   9.56312333
_cell_length_b   14.61555635
_cell_length_c   16.03938137
_cell_angle_alpha   89.98155877
_cell_angle_beta   90.00002241
_cell_angle_gamma   90.00104364
_symmetry_Int_Tables_number   1
_chemical_formula_structural   ZnH16C13I2NO4
_chemical_formula_sum   'Zn4 H64 C52 I8 N4 O16'
_cell_volume   2241.83011729
_cell_formula_units_Z   4
loop_
 _symmetry_equiv_pos_site_id
 _symmetry_equiv_pos_as_xyz
  1  'x, y, z'
loop_
 _atom_site_type_symbol
 _atom_site_label
 _atom_site_symmetry_multiplicity
 _atom_site_fract_x
 _atom_site_fract_y
 _atom_site_fract_z
 _atom_site_occupancy
 _atom_site_pbe_bader_charge
 _atom_site_pbe_bader_spin_density
 _atom_site_pbe_cm5_charge
 _atom_site_pbe_ddec_charge
 _atom_site_pbe_ddec_spin_density
 _atom_site_pbe_ddec_sum_bond_order
 _atom_site_pbe_magmom
Zn  Zn0  1  0.35243463  0.50432524  0.00035747  1  1.264028  0  0.675267  0.821231  0  2.363763  0
Zn  Zn1  1  0.64873420  0.49571787  0.00015110  1  1.266704  0  0.67516  0.821198  0  2.363747  0
Zn  Zn2  1  0.35126746  0.99571915  0.50015632  1  1.266698  0  0.675194  0.821162  0  2.363715  0
Zn  Zn3  1  0.64757228  0.00433281  0.50035966  1  1.264065  0  0.675205  0.82113  0  2.364067  0
H  H4  1  0.28615528  0.71795186  0.20676681  1  0.06159  0  0.099038  0.091822  0  0.977045  0
H  H5  1  0.56718699  0.40289471  0.70552668  1  0.058123  0  0.087063  0.103875  0  0.995946  0
H  H6  1  0.68379371  0.61460402  0.74997191  1  0.053849  0  0.091028  0.106697  0  1.001424  0
H  H7  1  0.43285993  0.59638842  0.70704582  1  0.061196  0  0.087211  0.104123  0  0.994844  0
H  H8  1  0.43285873  0.90287418  0.20552772  1  0.058355  0  0.087033  0.103811  0  0.995825  0
H  H9  1  0.68369500  0.88597779  0.24887450  1  0.048271  0  0.091296  0.10696  0  1.000437  0
H  H10  1  0.56713418  0.09638777  0.20703300  1  0.060809  0  0.087205  0.104036  0  0.994935  0
H  H11  1  0.31620682  0.11458393  0.24996309  1  0.053615  0  0.090982  0.106714  0  1.001414  0
H  H12  1  0.27008222  0.28560776  0.80260226  1  0.020724  0  0.095688  0.105492  0  0.966984  0
H  H13  1  0.70233806  0.36345204  0.77235890  1  0.040739  0  0.094172  0.107681  0  0.987355  0
H  H14  1  0.72946043  0.71565421  0.80279789  1  0.015761  0  0.095796  0.105632  0  0.966065  0
H  H15  1  0.72733749  0.71083172  0.17437085  1  0.092013  0  0.096272  0.088032  0  0.99837  0
H  H16  1  0.29762084  0.63650254  0.77344621  1  0.02534  0  0.094466  0.108149  0  0.986992  0
H  H17  1  0.29767970  0.86345172  0.27235912  1  0.040296  0  0.094244  0.10777  0  0.987186  0
H  H18  1  0.72992280  0.78557052  0.30262057  1  0.02052  0  0.09573  0.105595  0  0.966998  0
H  H19  1  0.70237890  0.13650631  0.27343172  1  0.02572  0  0.094465  0.10822  0  0.98686  0
H  H20  1  0.27053727  0.21563742  0.30279586  1  0.015884  0  0.095824  0.105699  0  0.966066  0
H  H21  1  0.42319426  0.59765876  0.26189382  1  0.030847  0  0.096918  0.10163  0  0.979756  0
H  H22  1  0.60537964  0.61640824  0.27144631  1  0.015768  0  0.095139  0.096873  0  0.970777  0
H  H23  1  0.57865458  0.40217968  0.26036558  1  0.065697  0  0.097349  0.102361  0  0.980165  0
H  H24  1  0.39635311  0.38403304  0.27015416  1  0.065001  0  0.095207  0.097294  0  0.970662  0
H  H25  1  0.39462818  0.11642097  0.77141821  1  0.01599  0  0.095106  0.096836  0  0.970807  0
H  H26  1  0.71483102  0.28089681  0.20590930  1  0.078016  0  0.099008  0.091497  0  0.978126  0
H  H27  1  0.57680912  0.09768972  0.76187221  1  0.030972  0  0.096989  0.101783  0  0.97987  0
H  H28  1  0.60361372  0.88405242  0.77015351  1  0.065166  0  0.095278  0.097348  0  0.970719  0
H  H29  1  0.42130314  0.90217876  0.76036779  1  0.064421  0  0.0973  0.102317  0  0.980126  0
H  H30  1  0.45646932  0.20189865  0.89078355  1  0.06403  0  0.081836  0.08679  0  1.022784  0
H  H31  1  0.63148028  0.21488066  0.85896481  1  0.046345  0  0.087671  0.095493  0  0.990899  0
H  H32  1  0.54207968  0.79972621  0.89031161  1  0.037196  0  0.081776  0.086335  0  1.023427  0
H  H33  1  0.36727481  0.78577223  0.85846156  1  0.036569  0  0.0874  0.094866  0  0.990264  0
H  H34  1  0.36851098  0.71486859  0.35897074  1  0.046355  0  0.087635  0.095339  0  0.991116  0
H  H35  1  0.54350702  0.70188552  0.39080408  1  0.063435  0  0.081816  0.086675  0  1.022709  0
H  H36  1  0.63271750  0.28577273  0.35844946  1  0.036723  0  0.087391  0.094886  0  0.990319  0
H  H37  1  0.27364054  0.28914496  0.17391736  1  0.098247  0  0.096091  0.087855  0  0.998189  0
H  H38  1  0.45791902  0.29971202  0.39030799  1  0.03725  0  0.081838  0.086378  0  1.023436  0
H  H39  1  0.87572773  0.64148022  0.99055354  1  0.058755  0  0.107699  0.09621  0  0.982963  0
H  H40  1  0.12332085  0.64346589  0.98472023  1  0.088422  0  0.097696  0.083472  0  1.029005  0
H  H41  1  0.12555996  0.35786084  0.00025517  1  0.085789  0  0.107123  0.096124  0  0.986046  0
H  H42  1  0.87790062  0.35539254  0.99409237  1  0.084697  0  0.09636  0.081762  0  1.033189  0
H  H43  1  0.87672232  0.14347337  0.48480388  1  0.088602  0  0.09764  0.083304  0  1.028657  0
H  H44  1  0.12433004  0.14147731  0.49054444  1  0.057865  0  0.10769  0.096253  0  0.983088  0
H  H45  1  0.12206829  0.85539053  0.49411727  1  0.10915  0  0.096384  0.081744  0  1.033026  0
H  H46  1  0.87440933  0.85785622  0.50020379  1  0.086463  0  0.107092  0.096161  0  0.985997  0
H  H47  1  0.87264787  0.58023313  0.89547555  1  0.060359  0  0.111783  0.103091  0  0.980423  0
H  H48  1  0.27268036  0.21086558  0.67435441  1  0.092185  0  0.096331  0.088224  0  0.998224  0
H  H49  1  0.12039675  0.57687868  0.89251207  1  0.066049  0  0.111643  0.100487  0  0.964968  0
H  H50  1  0.12918762  0.41150106  0.90138825  1  0.083739  0  0.111552  0.102772  0  0.983712  0
H  H51  1  0.88130280  0.41441352  0.89774304  1  0.082443  0  0.111312  0.100557  0  0.965841  0
H  H52  1  0.87958086  0.07694164  0.39256142  1  0.067138  0  0.111604  0.100536  0  0.964916  0
H  H53  1  0.12732037  0.08021042  0.39547643  1  0.060317  0  0.11177  0.103174  0  0.980416  0
H  H54  1  0.11873314  0.91439365  0.39775610  1  0.082589  0  0.111244  0.100476  0  0.965937  0
H  H55  1  0.87083572  0.91155319  0.40135563  1  0.082993  0  0.11146  0.102594  0  0.983777  0
H  H56  1  0.87278894  0.56157929  0.12057569  1  0.076767  0  0.10998  0.098476  0  0.976358  0
H  H57  1  0.12082756  0.56923081  0.11820630  1  0.082135  0  0.109687  0.099577  0  0.981687  0
H  H58  1  0.12766437  0.44807230  0.12470364  1  0.035603  0  0.110171  0.098066  0  0.971298  0
H  H59  1  0.71385423  0.21796401  0.70675102  1  0.061724  0  0.098988  0.091742  0  0.97717  0
H  H60  1  0.87956407  0.44021037  0.12226551  1  0.074326  0  0.110446  0.101168  0  0.975089  0
H  H61  1  0.87914861  0.06916031  0.61825498  1  0.083522  0  0.109522  0.099481  0  0.981469  0
H  H62  1  0.12718711  0.06159487  0.62056964  1  0.077154  0  0.110055  0.098705  0  0.976447  0
H  H63  1  0.12048244  0.94022677  0.62228598  1  0.074106  0  0.110544  0.101238  0  0.975063  0
H  H64  1  0.87237074  0.94799990  0.62468781  1  0.085148  0  0.110128  0.097998  0  0.971288  0
H  H65  1  0.72634084  0.78916169  0.67392000  1  0.09936  0  0.096097  0.087872  0  0.998237  0
H  H66  1  0.28515328  0.78088872  0.70592066  1  0.069907  0  0.098994  0.091495  0  0.978049  0
H  H67  1  0.31635558  0.38600557  0.74886062  1  0.047691  0  0.091235  0.106901  0  1.000434  0
C  C68  1  0.50558610  0.61986468  0.88099927  1  1.566842  0  0.221143  0.5924  0  4.101074  0
C  C69  1  0.49936037  0.37038237  0.11125074  1  1.58087  0  0.212986  0.586389  0  4.138088  0
C  C70  1  0.49781026  0.12846490  0.61225608  1  1.577622  0  0.212642  0.587308  0  4.136848  0
C  C71  1  0.50061402  0.87038284  0.61125369  1  1.580345  0  0.213052  0.586213  0  4.137655  0
C  C72  1  0.37036139  0.76183192  0.18359113  1  -0.122586  0  -0.091885  0.005408  0  3.672084  0
C  C73  1  0.64019790  0.75867454  0.18074559  1  -0.15078  0  -0.091084  0.00163  0  3.657629  0
C  C74  1  0.63012513  0.23701738  0.18347723  1  -0.139671  0  -0.091976  0.005995  0  3.670666  0
C  C75  1  0.36043085  0.24108250  0.18069527  1  -0.174769  0  -0.091295  0.002138  0  3.658444  0
C  C76  1  0.35981228  0.25870924  0.68072990  1  -0.15096  0  -0.09125  0.001418  0  3.657659  0
C  C77  1  0.62964465  0.26184465  0.68358395  1  -0.122817  0  -0.091766  0.00567  0  3.671657  0
C  C78  1  0.63955502  0.74109292  0.68069904  1  -0.1757  0  -0.091444  0.001872  0  3.658785  0
C  C79  1  0.49483889  0.38125532  0.88009519  1  1.56459  0  0.222175  0.594706  0  4.097934  0
C  C80  1  0.36986067  0.73701350  0.68348809  1  -0.131428  0  -0.091909  0.006228  0  3.670375  0
C  C81  1  0.34989638  0.31568364  0.76141445  1  0.009313  0  -0.169623  -0.219933  0  3.88626  0
C  C82  1  0.60484784  0.34350155  0.74121725  1  -0.007874  0  -0.16888  -0.221604  0  3.877165  0
C  C83  1  0.64983356  0.68496736  0.76187475  1  0.008633  0  -0.169222  -0.219287  0  3.887027  0
C  C84  1  0.39505573  0.65617186  0.74209296  1  0.001352  0  -0.168857  -0.221689  0  3.877418  0
C  C85  1  0.39517180  0.84348652  0.24122074  1  -0.007516  0  -0.168955  -0.221585  0  3.877404  0
C  C86  1  0.65012384  0.81565733  0.26142517  1  0.009257  0  -0.169716  -0.219998  0  3.886462  0
C  C87  1  0.60493917  0.15617256  0.24208269  1  0.000985  0  -0.168811  -0.221553  0  3.87751  0
C  C88  1  0.35016799  0.18495197  0.26187221  1  0.009423  0  -0.169304  -0.219591  0  3.8875  0
C  C89  1  0.50386286  0.65104174  0.26462698  1  -0.007662  0  -0.149234  -0.159931  0  3.820401  0
C  C90  1  0.49441728  0.11986071  0.38099507  1  1.566638  0  0.221069  0.592387  0  4.101157  0
C  C91  1  0.49764717  0.34906502  0.26361516  1  -0.091503  0  -0.14961  -0.161803  0  3.821198  0
C  C92  1  0.49613608  0.15106308  0.76460588  1  -0.008384  0  -0.149308  -0.160063  0  3.820753  0
C  C93  1  0.50232962  0.84907304  0.76361873  1  -0.090447  0  -0.149612  -0.161792  0  3.821052  0
C  C94  1  0.50415407  0.70334369  0.17871527  1  0.033096  0  -0.022655  -0.027759  0  3.786924  0
C  C95  1  0.49687413  0.29591006  0.17813445  1  0.054436  0  -0.022367  -0.027527  0  3.786567  0
C  C96  1  0.49584798  0.20336708  0.67869729  1  0.033445  0  -0.022501  -0.027734  0  3.787096  0
C  C97  1  0.50311047  0.79591194  0.67813490  1  0.05402  0  -0.022351  -0.027463  0  3.786436  0
C  C98  1  0.49198902  0.31608475  0.80591997  1  0.03043  0  -0.016694  0.043833  0  3.783854  0
C  C99  1  0.50779621  0.68457845  0.80644499  1  0.031919  0  -0.016559  0.043303  0  3.786872  0
C  C100  1  0.50802271  0.81606827  0.30592299  1  0.029832  0  -0.016627  0.04378  0  3.784191  0
C  C101  1  0.50516210  0.88124631  0.38010070  1  1.564858  0  0.222046  0.594504  0  4.098303  0
C  C102  1  0.49219892  0.18457376  0.30643580  1  0.03149  0  -0.016518  0.043266  0  3.787327  0
C  C103  1  0.52289865  0.21826019  0.83685561  1  -0.050497  0  -0.164186  -0.187031  0  3.870142  0
C  C104  1  0.47596420  0.78256818  0.83648050  1  -0.019985  0  -0.164127  -0.18458  0  3.870281  0
C  C105  1  0.47709376  0.71824522  0.33686732  1  -0.049526  0  -0.164182  -0.186704  0  3.869948  0
C  C106  1  0.52402812  0.28256335  0.33647572  1  -0.019938  0  -0.164205  -0.1846  0  3.870393  0
C  C107  1  0.91800849  0.58128505  0.95821478  1  0.295077  0  -0.070608  -0.089581  0  3.809859  0
C  C108  1  0.07940591  0.58148476  0.95625771  1  0.165587  0  -0.071479  -0.085304  0  3.812081  0
C  C109  1  0.08343682  0.41532872  0.96394441  1  0.225235  0  -0.07154  -0.091673  0  3.809382  0
C  C110  1  0.92199758  0.41499852  0.96170495  1  0.183416  0  -0.071781  -0.085286  0  3.810864  0
C  C111  1  0.92059878  0.08150396  0.45630276  1  0.16401  0  -0.071528  -0.085299  0  3.811169  0
C  C112  1  0.91937269  0.50139258  0.09047892  1  0.183352  0  -0.068418  -0.086346  0  3.806189  0
C  C113  1  0.08200455  0.08128755  0.45822432  1  0.295996  0  -0.070549  -0.089699  0  3.809788  0
C  C114  1  0.07800682  0.91499642  0.46170859  1  0.158767  0  -0.071752  -0.085241  0  3.810703  0
C  C115  1  0.91656340  0.91534470  0.46392308  1  0.225518  0  -0.071327  -0.091463  0  3.809368  0
C  C116  1  0.08131598  0.50566630  0.09051271  1  0.300123  0  -0.068388  -0.084262  0  3.806571  0
C  C117  1  0.91870325  0.00561771  0.59052902  1  0.249126  0  -0.068149  -0.083896  0  3.806283  0
C  C118  1  0.08064543  0.00139160  0.59048589  1  0.182558  0  -0.068544  -0.086822  0  3.806462  0
C  C119  1  0.50218772  0.62844352  0.11226907  1  1.577318  0  0.212759  0.587352  0  4.136878  0
I  I120  1  0.27390283  0.80846328  0.06702798  1  -0.019336  0  0.007532  -0.118053  0  1.434265  0
I  I121  1  0.67818942  0.84492592  0.07027402  1  -0.038316  0  -0.006122  -0.133093  0  1.383975  0
I  I122  1  0.72544108  0.18842783  0.06722428  1  -0.018591  0  0.00748  -0.117947  0  1.432233  0
I  I123  1  0.32136676  0.15383502  0.07104499  1  -0.038196  0  -0.005796  -0.132875  0  1.383054  0
I  I124  1  0.32183281  0.34495516  0.57025641  1  -0.037876  0  -0.006012  -0.132999  0  1.384012  0
I  I125  1  0.72613142  0.30850711  0.56702716  1  -0.019498  0  0.0074  -0.118184  0  1.433915  0
I  I126  1  0.67862126  0.65384954  0.57105256  1  -0.038062  0  -0.005778  -0.132871  0  1.383168  0
I  I127  1  0.27452028  0.68841614  0.56723874  1  -0.018585  0  0.007425  -0.118094  0  1.43203  0
N  N128  1  0.86645180  0.49863521  0.00320215  1  -0.973718  0  -0.34176  -0.10339  0  3.449654  0
N  N129  1  0.13472958  0.50139364  0.00338209  1  -0.9771  0  -0.341917  -0.103656  0  3.449761  0
N  N130  1  0.86528251  0.00138722  0.50339832  1  -0.976601  0  -0.341837  -0.103527  0  3.449619  0
N  N131  1  0.13355199  0.99862857  0.50320456  1  -0.973496  0  -0.341889  -0.10331  0  3.449627  0
O  O132  1  0.39019481  0.61186483  0.91956460  1  -1.17652  0  -0.316221  -0.552802  0  2.364404  0
O  O133  1  0.61754951  0.60736791  0.07835516  1  -1.177659  0  -0.310806  -0.544939  0  2.370965  0
O  O134  1  0.61681812  0.40872805  0.09864786  1  -1.177159  0  -0.317922  -0.549025  0  2.372714  0
O  O135  1  0.38398718  0.39179369  0.07748556  1  -1.178341  0  -0.311656  -0.545033  0  2.36992  0
O  O136  1  0.38242839  0.10737153  0.57835635  1  -1.177259  0  -0.310785  -0.544985  0  2.37052  0
O  O137  1  0.61496732  0.08966874  0.59993865  1  -1.175938  0  -0.318185  -0.549828  0  2.375914  0
O  O138  1  0.61600435  0.89181533  0.57749865  1  -1.178612  0  -0.311599  -0.544998  0  2.369616  0
O  O139  1  0.38316211  0.90871894  0.59864876  1  -1.176313  0  -0.317984  -0.548902  0  2.372614  0
O  O140  1  0.61927457  0.57950488  0.89918819  1  -1.172508  0  -0.311186  -0.539828  0  2.368818  0
O  O141  1  0.61053854  0.38928088  0.91833518  1  -1.173184  0  -0.316331  -0.552475  0  2.359509  0
O  O142  1  0.38131140  0.42172927  0.89849744  1  -1.175155  0  -0.311844  -0.540146  0  2.363734  0
O  O143  1  0.38072083  0.07950439  0.39919068  1  -1.172507  0  -0.31123  -0.539829  0  2.368913  0
O  O144  1  0.60981775  0.11184645  0.41954997  1  -1.17632  0  -0.316113  -0.552839  0  2.364521  0
O  O145  1  0.61870687  0.92171130  0.39850935  1  -1.175231  0  -0.311848  -0.540215  0  2.363599  0
O  O146  1  0.38947501  0.88927876  0.41833429  1  -1.173552  0  -0.316206  -0.552197  0  2.359889  0
O  O147  1  0.38502385  0.58963711  0.09995771  1  -1.175128  0  -0.318219  -0.549911  0  2.375417  0
