# generated using pymatgen
data_ZnH6C31(N5O11)2
_symmetry_space_group_name_H-M   'P 1'
_cell_length_a   14.76313453
_cell_length_b   16.01709274
_cell_length_c   28.03571941
_cell_angle_alpha   90.06594556
_cell_angle_beta   89.98484724
_cell_angle_gamma   89.89270336
_symmetry_Int_Tables_number   1
_chemical_formula_structural   ZnH6C31(N5O11)2
_chemical_formula_sum   'Zn2 H12 C62 N20 O44'
_cell_volume   6629.37990783
_cell_formula_units_Z   2
loop_
 _symmetry_equiv_pos_site_id
 _symmetry_equiv_pos_as_xyz
  1  'x, y, z'
loop_
 _atom_site_type_symbol
 _atom_site_label
 _atom_site_symmetry_multiplicity
 _atom_site_fract_x
 _atom_site_fract_y
 _atom_site_fract_z
 _atom_site_occupancy
 _atom_site_pbe_bader_charge
 _atom_site_pbe_bader_spin_density
 _atom_site_pbe_cm5_charge
 _atom_site_pbe_ddec_charge
 _atom_site_pbe_ddec_spin_density
 _atom_site_pbe_ddec_sum_bond_order
 _atom_site_pbe_magmom
Zn  Zn0  1  0.59252313  0.50011461  0.50000578  1  1.31675  0  0.700259  0.886646  0  2.439157  0
Zn  Zn1  1  0.40451907  0.50132480  0.49957915  1  1.309171  0  0.689223  0.879291  0  2.444484  0
H  H2  1  0.94124096  0.43018190  0.57279560  1  0.202229  0  0.157055  0.182492  0  0.904188  0
H  H3  1  0.05403605  0.56998655  0.42942899  1  0.19068  0  0.15423  0.179536  0  0.907884  0
H  H4  1  0.57478230  0.05291323  0.57224104  1  0.117337  0  0.126016  0.133463  0  0.951236  0
H  H5  1  0.42628743  0.94825244  0.42804548  1  0.121865  0  0.125515  0.131797  0  0.951987  0
H  H6  1  0.34314286  0.05044426  0.49946778  1  0.148207  0  0.123344  0.130776  0  0.955988  0
H  H7  1  0.65761507  0.95093382  0.50072822  1  0.096174  0  0.124999  0.132952  0  0.953101  0
H  H8  1  0.35663717  0.52573866  0.64825341  1  0.142711  0  0.123655  0.13234  0  0.968264  0
H  H9  1  0.36480543  0.45645576  0.35187670  1  0.11627  0  0.121646  0.127507  0  0.968902  0
H  H10  1  0.34856307  0.52429684  0.73759976  1  0.135914  0  0.126706  0.139065  0  0.953197  0
H  H11  1  0.35571771  0.45579771  0.26259403  1  0.146615  0  0.125511  0.137463  0  0.956596  0
H  H12  1  0.41991106  0.70248334  0.96600106  1  0.161038  0  0.130195  0.14208  0  0.989643  0
H  H13  1  0.44928586  0.28941882  0.03368980  1  0.13329  0  0.130131  0.142262  0  0.988143  0
C  C14  1  0.49750687  0.66028765  0.49756333  1  1.714354  0  0.224731  0.67116  0  4.2296  0
C  C15  1  0.49468960  0.34114737  0.50182210  1  1.664594  0  0.223816  0.67223  0  4.226891  0
C  C16  1  0.50247791  0.49751312  0.40746531  1  1.557386  0  0.219398  0.598719  0  4.18947  0
C  C17  1  0.49899276  0.50349437  0.59210066  1  1.663933  0  0.220087  0.599242  0  4.183689  0
C  C18  1  0.49521798  0.57587161  0.18008193  1  1.374509  0  0.248794  0.446075  0  4.093081  0
C  C19  1  0.50611617  0.42371199  0.81964290  1  1.358354  0  0.249531  0.446899  0  4.090392  0
C  C20  1  0.47067796  0.42108256  0.17981893  1  1.375275  0  0.251847  0.450164  0  4.09413  0
C  C21  1  0.45910699  0.57414894  0.81988502  1  1.341415  0  0.25284  0.452763  0  4.090208  0
C  C22  1  0.41783076  0.47380058  0.28077623  1  -0.023258  0  -0.064924  -0.127157  0  3.947589  0
C  C23  1  0.41265038  0.51447928  0.71917909  1  -0.002247  0  -0.063546  -0.127054  0  3.939968  0
C  C24  1  0.42279795  0.47432890  0.33020921  1  0.035199  0  -0.056819  -0.042462  0  3.922652  0
C  C25  1  0.41702273  0.51501288  0.66971322  1  0.010456  0  -0.052188  -0.034842  0  3.907503  0
C  C26  1  0.57726209  0.52127407  0.32645803  1  0.203548  0  0.103997  0.043423  0  3.860346  0
C  C27  1  0.57720314  0.48759035  0.67283322  1  0.309476  0  0.103613  0.044152  0  3.857834  0
C  C28  1  0.57347007  0.51987621  0.27664450  1  0.38187  0  0.096714  -0.032675  0  3.861752  0
C  C29  1  0.57394196  0.48882754  0.72267328  1  0.225972  0  0.096517  -0.03316  0  3.860723  0
C  C30  1  0.49283752  0.49677000  0.25375834  1  0.321579  0  0.110244  0.168934  0  3.992042  0
C  C31  1  0.49080294  0.50144757  0.74589348  1  0.354289  0  0.111345  0.170771  0  3.990731  0
C  C32  1  0.47979560  0.49941134  0.10180398  1  0.115304  0  0.019712  0.066511  0  3.966177  0
C  C33  1  0.47972526  0.49771622  0.89792211  1  0.050488  0  0.019331  0.06571  0  3.96682  0
C  C34  1  0.48977844  0.57544212  0.12736637  1  0.059863  0  0.008626  -0.087292  0  3.929622  0
C  C35  1  0.50058796  0.42350706  0.87236045  1  0.075936  0  0.008827  -0.086263  0  3.929024  0
C  C36  1  0.49915676  0.64919528  0.10180913  1  0.273405  0  0.109273  0.046419  0  3.88638  0
C  C37  1  0.52057925  0.35153408  0.89793835  1  0.275843  0  0.10878  0.044676  0  3.888191  0
C  C38  1  0.46720367  0.42370607  0.12721948  1  0.073328  0  0.007707  -0.098599  0  3.92996  0
C  C39  1  0.45629639  0.57123436  0.87249419  1  0.110197  0  0.007704  -0.099371  0  3.933578  0
C  C40  1  0.50204509  0.49837870  0.35376307  1  0.124476  0  0.009959  -0.038976  0  3.893163  0
C  C41  1  0.49887448  0.50130495  0.64580521  1  0.011235  0  0.009028  -0.044165  0  3.892541  0
C  C42  1  0.46740289  0.57467721  0.97391609  1  0.034787  0  0.016119  0.070384  0  3.953915  0
C  C43  1  0.47835351  0.42170918  0.02581758  1  -0.029056  0  0.015849  0.070224  0  3.954354  0
C  C44  1  0.49440732  0.42188369  0.97435706  1  0.070852  0  0.023135  0.020697  0  3.934702  0
C  C45  1  0.48339823  0.57637907  0.02537205  1  0.100389  0  0.022389  0.01974  0  3.936666  0
C  C46  1  0.48022496  0.49774868  0.94887785  1  -0.016732  0  0.015413  0.010713  0  3.906787  0
C  C47  1  0.48021360  0.49948128  0.05085293  1  -0.02515  0  0.01527  0.011102  0  3.908605  0
C  C48  1  0.43860659  0.64443226  0.94835351  1  0.008976  0  -0.06302  -0.156942  0  3.892243  0
C  C49  1  0.45975077  0.34912536  0.05136544  1  0.04725  0  -0.062771  -0.15648  0  3.892166  0
C  C50  1  0.43129510  0.64121823  0.89872216  1  0.189681  0  0.109278  0.103128  0  3.907716  0
C  C51  1  0.45226236  0.35139976  0.10100570  1  0.204388  0  0.109256  0.101871  0  3.907689  0
C  C52  1  0.49897891  0.64918956  0.05177330  1  0.188434  0  0.096859  -0.004446  0  3.868755  0
C  C53  1  0.52036153  0.35152633  0.94797095  1  0.188064  0  0.096385  -0.004733  0  3.868983  0
C  C54  1  0.54259257  0.02952823  0.53982701  1  -0.009307  0  -0.051353  -0.095708  0  3.585384  0
C  C55  1  0.45821198  0.97189360  0.46046568  1  0.007367  0  -0.050787  -0.09499  0  3.581902  0
C  C56  1  0.45659585  0.97292597  0.53884714  1  0.309279  0  0.097702  0.05636  0  3.604852  0
C  C57  1  0.54409958  0.02854465  0.46146482  1  0.271295  0  0.098616  0.070823  0  3.58067  0
C  C58  1  0.49929005  0.75016812  0.49770166  1  0.013573  0  -0.033077  -0.152598  0  3.957307  0
C  C59  1  0.49579598  0.25125382  0.50181224  1  0.211163  0  -0.033859  -0.154153  0  3.95856  0
C  C60  1  0.58763418  0.97307323  0.50098644  1  0.000965  0  -0.0543  -0.102594  0  3.588807  0
C  C61  1  0.41309330  0.02824624  0.49927838  1  -0.063442  0  -0.055463  -0.102132  0  3.598911  0
C  C62  1  0.50164468  0.91403430  0.50025874  1  0.151058  0  0.019797  0.108702  0  3.796908  0
C  C63  1  0.49896752  0.08733778  0.50010883  1  0.195853  0  0.020171  0.107084  0  3.796343  0
C  C64  1  0.50095235  0.82595299  0.49926794  1  -0.308821  0  -0.032211  -0.049668  0  4.092718  0
C  C65  1  0.49792336  0.17544980  0.50057348  1  -0.504714  0  -0.032394  -0.049763  0  4.095683  0
C  C66  1  0.96727767  0.57929497  0.50023927  1  0.303448  0  0.11214  0.043397  0  3.595211  0
C  C67  1  0.02825966  0.42081007  0.50177058  1  0.302504  0  0.113036  0.041867  0  3.599444  0
C  C68  1  0.02807611  0.54049563  0.53995429  1  0.34128  0  0.113119  0.043746  0  3.594287  0
C  C69  1  0.96746307  0.45977233  0.46201033  1  0.318142  0  0.111917  0.043784  0  3.592981  0
C  C70  1  0.02918394  0.53866434  0.46141769  1  -0.010064  0  -0.029819  -0.105769  0  3.536704  0
C  C71  1  0.96619645  0.46122237  0.54069194  1  -0.02507  0  -0.024211  -0.096351  0  3.506428  0
C  C72  1  0.09182634  0.49956595  0.50140125  1  0.135702  0  0.039113  0.020358  0  3.757247  0
C  C73  1  0.90365899  0.50033447  0.50076011  1  0.155765  0  0.043281  0.026936  0  3.74073  0
C  C74  1  0.18781034  0.50001798  0.50110265  1  0.883133  0  0.241477  0.294749  0  3.912697  0
C  C75  1  0.80773796  0.50001458  0.50083512  1  0.878317  0  0.247726  0.302209  0  3.902623  0
N  N76  1  0.48427591  0.49832004  0.20280339  1  -1.185134  0  -0.229336  -0.22134  0  3.62998  0
N  N77  1  0.48329986  0.49905743  0.79690087  1  -1.142558  0  -0.229653  -0.222558  0  3.625909  0
N  N78  1  0.26608690  0.50216450  0.49921918  1  -1.052177  0  -0.241398  -0.227599  0  3.087732  0
N  N79  1  0.72946837  0.49881421  0.50152977  1  -1.043983  0  -0.239247  -0.2202  0  3.100016  0
N  N80  1  0.66224946  0.54754440  0.35064994  1  0.431723  0  0.059007  0.51149  0  4.272956  0
N  N81  1  0.66526458  0.47164967  0.64851822  1  0.45592  0  0.059149  0.517828  0  4.275425  0
N  N82  1  0.05657425  0.58335066  0.58426613  1  0.426747  0  0.0686  0.504108  0  4.246231  0
N  N83  1  0.94139562  0.41300548  0.41849918  1  0.44255  0  0.066336  0.498721  0  4.251665  0
N  N84  1  0.94088216  0.66849534  0.49901876  1  0.457002  0  0.066396  0.500308  0  4.261539  0
N  N85  1  0.05599466  0.33200816  0.50272091  1  0.431838  0  0.066397  0.500233  0  4.250168  0
N  N86  1  0.65350225  0.54448884  0.24835686  1  0.399094  0  0.062661  0.526624  0  4.227957  0
N  N87  1  0.65747938  0.47585944  0.75070792  1  0.428434  0  0.06137  0.525268  0  4.229681  0
N  N88  1  0.50982976  0.73131937  0.12616835  1  0.439896  0  0.060882  0.498216  0  4.289969  0
N  N89  1  0.54315889  0.27139111  0.87363206  1  0.45117  0  0.0616  0.500687  0  4.288673  0
N  N90  1  0.39432539  0.71757089  0.87597662  1  0.441332  0  0.063698  0.505422  0  4.263291  0
N  N91  1  0.42672686  0.27133453  0.12380715  1  0.46597  0  0.063546  0.505924  0  4.268048  0
N  N92  1  0.52141130  0.72892921  0.02753277  1  0.408985  0  0.056012  0.494982  0  4.267296  0
N  N93  1  0.55407294  0.27515211  0.97223839  1  0.417672  0  0.055529  0.493048  0  4.268688  0
N  N94  1  0.40829234  0.94890690  0.58265489  1  0.381409  0  0.058593  0.511596  0  4.231341  0
N  N95  1  0.59219928  0.05303960  0.41766474  1  0.382013  0  0.05862  0.505895  0  4.235225  0
O  O96  1  0.57172741  0.62345972  0.48787107  1  -1.134345  0  -0.30661  -0.530459  0  2.272959  0
O  O97  1  0.41977760  0.37611441  0.49102938  1  -1.139595  0  -0.315236  -0.542636  0  2.254455  0
O  O98  1  0.42169491  0.62621302  0.50734520  1  -1.137565  0  -0.315817  -0.54344  0  2.255565  0
O  O99  1  0.56876651  0.37725868  0.51249526  1  -1.129661  0  -0.308137  -0.535694  0  2.267466  0
O  O100  1  0.57634492  0.47866598  0.42777475  1  -1.142021  0  -0.305677  -0.528777  0  2.313301  0
O  O101  1  0.42398318  0.48646904  0.57222892  1  -1.152228  0  -0.308744  -0.539499  0  2.297812  0
O  O102  1  0.42709388  0.51473440  0.42697760  1  -1.150106  0  -0.311443  -0.546246  0  2.302905  0
O  O103  1  0.57277713  0.52298698  0.57197365  1  -1.146733  0  -0.306978  -0.535194  0  2.331463  0
O  O104  1  0.51021760  0.63912084  0.20338655  1  -1.063872  0  -0.245697  -0.390806  0  2.116959  0
O  O105  1  0.53076693  0.36298709  0.79636234  1  -1.067117  0  -0.246549  -0.391528  0  2.113799  0
O  O106  1  0.44310483  0.63759928  0.79705140  1  -1.05799  0  -0.243432  -0.389876  0  2.090494  0
O  O107  1  0.46372871  0.35625415  0.20263291  1  -1.050111  0  -0.243262  -0.389184  0  2.093228  0
O  O108  1  0.72807825  0.50044489  0.34629518  1  -0.418913  0  -0.128853  -0.318209  0  1.903531  0
O  O109  1  0.65920726  0.61365444  0.37296367  1  -0.405509  0  -0.106914  -0.286099  0  1.893984  0
O  O110  1  0.72227573  0.52783306  0.65078964  1  -0.436869  0  -0.133685  -0.322649  0  1.874633  0
O  O111  1  0.67364805  0.40372038  0.62844460  1  -0.412078  0  -0.113545  -0.29748  0  1.893474  0
O  O112  1  0.99845881  0.62857044  0.60252905  1  -0.38594  0  -0.088591  -0.265201  0  1.850403  0
O  O113  1  0.13335025  0.56739460  0.59898321  1  -0.405805  0  -0.092391  -0.274818  0  1.858126  0
O  O114  1  0.00717035  0.39124486  0.39400404  1  -0.402974  0  -0.110462  -0.293173  0  1.834243  0
O  O115  1  0.86068876  0.40029714  0.41138239  1  -0.368964  0  -0.06401  -0.234108  0  1.902853  0
O  O116  1  0.00616091  0.71673156  0.50014794  1  -0.41264  0  -0.105509  -0.287647  0  1.843721  0
O  O117  1  0.85988519  0.68544431  0.49659344  1  -0.388248  0  -0.074199  -0.249093  0  1.870043  0
O  O118  1  0.99352821  0.28243023  0.49537633  1  -0.379387  0  -0.09802  -0.276929  0  1.845021  0
O  O119  1  0.13601204  0.31659131  0.51133285  1  -0.404182  0  -0.083375  -0.261067  0  1.860553  0
O  O120  1  0.69701305  0.60533271  0.26240051  1  -0.403223  0  -0.105716  -0.28689  0  1.887435  0
O  O121  1  0.67045729  0.50193647  0.21245798  1  -0.427103  0  -0.132495  -0.327035  0  1.872579  0
O  O122  1  0.71086024  0.42195147  0.73655231  1  -0.41623  0  -0.109118  -0.291234  0  1.889693  0
O  O123  1  0.66740846  0.52044017  0.78650124  1  -0.437452  0  -0.130701  -0.324987  0  1.875782  0
O  O124  1  0.43999824  0.76449518  0.14060964  1  -0.375467  0  -0.092639  -0.266232  0  1.88196  0
O  O125  1  0.58749425  0.75934269  0.12693638  1  -0.387581  0  -0.096143  -0.268131  0  1.855108  0
O  O126  1  0.47885341  0.23019113  0.85906388  1  -0.382592  0  -0.090774  -0.264357  0  1.884433  0
O  O127  1  0.62422601  0.25284822  0.87301706  1  -0.384084  0  -0.09903  -0.27234  0  1.852494  0
O  O128  1  0.31308880  0.71510948  0.86576390  1  -0.397714  0  -0.111675  -0.293346  0  1.84662  0
O  O129  1  0.44580365  0.77760824  0.87275074  1  -0.400404  0  -0.096499  -0.271542  0  1.850853  0
O  O130  1  0.34586618  0.26408010  0.13411565  1  -0.421964  0  -0.112448  -0.294628  0  1.850031  0
O  O131  1  0.48648767  0.21802434  0.12703618  1  -0.39973  0  -0.095963  -0.270804  0  1.852279  0
O  O132  1  0.46719926  0.78726061  0.03247188  1  -0.40284  0  -0.102237  -0.283776  0  1.870807  0
O  O133  1  0.59267843  0.72960081  0.00470206  1  -0.389666  0  -0.092459  -0.269997  0  1.86364  0
O  O134  1  0.50879723  0.21085292  0.96727247  1  -0.399665  0  -0.101499  -0.28223  0  1.870759  0
O  O135  1  0.62477329  0.28297632  0.99510542  1  -0.392541  0  -0.092644  -0.269797  0  1.864339  0
O  O136  1  0.37488126  0.00791590  0.60541618  1  -0.439115  0  -0.140766  -0.336113  0  1.83693  0
O  O137  1  0.40503564  0.87424253  0.59352744  1  -0.436679  0  -0.125363  -0.31531  0  1.861807  0
O  O138  1  0.62539211  0.99427466  0.39464923  1  -0.428422  0  -0.137851  -0.331724  0  1.837233  0
O  O139  1  0.59540550  0.12784910  0.40710043  1  -0.416919  0  -0.123817  -0.313416  0  1.866857  0
