# generated using pymatgen
data_Cd3H32C38S6(NO)10
_symmetry_space_group_name_H-M   'P 1'
_cell_length_a   10.59650732
_cell_length_b   11.36988674
_cell_length_c   11.36987866
_cell_angle_alpha   98.78725873
_cell_angle_beta   107.99483825
_cell_angle_gamma   107.99477690
_symmetry_Int_Tables_number   1
_chemical_formula_structural   Cd3H32C38S6(NO)10
_chemical_formula_sum   'Cd3 H32 C38 S6 N10 O10'
_cell_volume   1191.55889021
_cell_formula_units_Z   1
loop_
 _symmetry_equiv_pos_site_id
 _symmetry_equiv_pos_as_xyz
  1  'x, y, z'
loop_
 _atom_site_type_symbol
 _atom_site_label
 _atom_site_symmetry_multiplicity
 _atom_site_fract_x
 _atom_site_fract_y
 _atom_site_fract_z
 _atom_site_occupancy
 _atom_site_hle17_bader_spin_density
 _atom_site_hle17_ddec_charge
 _atom_site_hle17_ddec_spin_density
 _atom_site_hle17_ddec_sum_bond_order
 _atom_site_hle17_magmom
 _atom_site_hse06_10hf_bader_spin_density
 _atom_site_hse06_10hf_ddec_charge
 _atom_site_hse06_10hf_ddec_spin_density
 _atom_site_hse06_10hf_ddec_sum_bond_order
 _atom_site_hse06_10hf_magmom
 _atom_site_hse06_bader_spin_density
 _atom_site_hse06_ddec_charge
 _atom_site_hse06_ddec_spin_density
 _atom_site_hse06_ddec_sum_bond_order
 _atom_site_hse06_magmom
 _atom_site_pbe_bader_spin_density
 _atom_site_pbe_cm5_charge
 _atom_site_pbe_ddec_charge
 _atom_site_pbe_ddec_spin_density
 _atom_site_pbe_ddec_sum_bond_order
 _atom_site_pbe_magmom
Cd  Cd0  1  0.00000066  0.99999943  0.00000022  1  0  1.160082  0  1.852879  0  0  1.003411  0  2.321834  0  0  1.045838  0  2.273848  0  0  0.730718  0.973164  0  2.353579  0
Cd  Cd1  1  0.03487072  0.39282330  0.39282274  1  0  1.148243  0  1.87321  0  0  0.986795  0  2.345027  0  0  1.034711  0  2.296861  0  0  0.77065  0.954391  0  2.378122  0
Cd  Cd2  1  0.96513140  0.60717821  0.60717867  1  0  1.148321  0  1.873121  0  0  0.986899  0  2.344912  0  0  1.034815  0  2.296743  0  0  0.770679  0.954493  0  2.378006  0
H  H3  1  0.75223060  0.89831447  0.62226554  1  0  0.103674  0  0.943192  0  0  0.113286  0  1.001756  0  0  0.115653  0  0.999826  0  0  0.128961  0.111613  0  1.003053  0
H  H4  1  0.24776918  0.37773440  0.10168554  1  0  0.103634  0  0.943236  0  0  0.113274  0  1.001764  0  0  0.11564  0  0.999835  0  0  0.128953  0.111601  0  1.003062  0
H  H5  1  0.24776921  0.10169092  0.37773666  1  0  0.103591  0  0.943292  0  0  0.113267  0  1.001795  0  0  0.115628  0  0.999863  0  0  0.128966  0.111596  0  1.00309  0
H  H6  1  0.75222991  0.62226232  0.89830898  1  0  0.103646  0  0.943251  0  0  0.113287  0  1.001793  0  0  0.115648  0  0.999861  0  0  0.128975  0.111615  0  1.003089  0
H  H7  1  0.75531475  0.10511294  0.35275923  1  0  0.110294  0  0.950064  0  0  0.114172  0  1.01772  0  0  0.117023  0  1.015077  0  0  0.128183  0.111977  0  1.01983  0
H  H8  1  0.24468574  0.64724067  0.89488655  1  0  0.110272  0  0.950093  0  0  0.114208  0  1.017709  0  0  0.117024  0  1.015101  0  0  0.128177  0.112013  0  1.019817  0
H  H9  1  0.24468475  0.89488474  0.64723643  1  0  0.110334  0  0.950084  0  0  0.114236  0  1.017711  0  0  0.117069  0  1.015087  0  0  0.128203  0.112037  0  1.019828  0
H  H10  1  0.75531464  0.35276375  0.10511567  1  0  0.110308  0  0.950115  0  0  0.114181  0  1.017767  0  0  0.11703  0  1.015127  0  0  0.128179  0.111981  0  1.019887  0
H  H11  1  0.49221391  0.76293290  0.50692066  1  0  0.107535  0  0.992227  0  0  0.111383  0  1.062867  0  0  0.114863  0  1.061909  0  0  0.099471  0.108794  0  1.063948  0
H  H12  1  0.50778809  0.49308112  0.23706805  1  0  0.107484  0  0.99224  0  0  0.111358  0  1.062852  0  0  0.114837  0  1.061894  0  0  0.099458  0.108767  0  1.063934  0
H  H13  1  0.50778587  0.23707249  0.49308506  1  0  0.107493  0  0.992285  0  0  0.11135  0  1.062911  0  0  0.114829  0  1.061956  0  0  0.099451  0.108758  0  1.063996  0
H  H14  1  0.49221355  0.50691462  0.76292795  1  0  0.107516  0  0.992265  0  0  0.11137  0  1.062891  0  0  0.11485  0  1.061934  0  0  0.099463  0.108778  0  1.063975  0
H  H15  1  0.49005909  0.98027235  0.22338919  1  0  0.115048  0  0.964314  0  0  0.117951  0  1.035452  0  0  0.12162  0  1.034531  0  0  0.104187  0.115328  0  1.036002  0
H  H16  1  0.50993968  0.77661070  0.01972838  1  0  0.11506  0  0.96429  0  0  0.117956  0  1.035435  0  0  0.121627  0  1.03451  0  0  0.104186  0.115333  0  1.035986  0
H  H17  1  0.50994000  0.01972436  0.77660621  1  0  0.115043  0  0.964358  0  0  0.117989  0  1.035459  0  0  0.121661  0  1.034532  0  0  0.104199  0.115363  0  1.036007  0
H  H18  1  0.49006126  0.22339275  0.98027650  1  0  0.115027  0  0.964382  0  0  0.117954  0  1.035492  0  0  0.121625  0  1.034565  0  0  0.104177  0.11533  0  1.036041  0
H  H19  1  0.27036435  0.80925258  0.18851252  1  0  0.1005  0  0.955077  0  0  0.105685  0  1.025528  0  0  0.109231  0  1.023269  0  0  0.104059  0.103027  0  1.027224  0
H  H20  1  0.72963689  0.81148927  0.19074912  1  0  0.100522  0  0.955026  0  0  0.105702  0  1.025486  0  0  0.109249  0  1.023225  0  0  0.104078  0.103044  0  1.027182  0
H  H21  1  0.72963554  0.19074606  0.81148605  1  0  0.100529  0  0.955109  0  0  0.105695  0  1.025573  0  0  0.109241  0  1.023313  0  0  0.104058  0.103038  0  1.02727  0
H  H22  1  0.27036464  0.18851321  0.80925315  1  0  0.100533  0  0.955037  0  0  0.105711  0  1.025496  0  0  0.109258  0  1.023234  0  0  0.104074  0.103052  0  1.027194  0
H  H23  1  0.27243661  0.65475568  0.39019671  1  0  0.111516  0  0.977117  0  0  0.120467  0  1.040803  0  0  0.123422  0  1.040112  0  0  0.100386  0.118505  0  1.041379  0
H  H24  1  0.72756514  0.60980431  0.34524577  1  0  0.111547  0  0.977098  0  0  0.120484  0  1.040803  0  0  0.123437  0  1.040113  0  0  0.100386  0.118522  0  1.041378  0
H  H25  1  0.72756433  0.34524777  0.60980729  1  0  0.111564  0  0.977089  0  0  0.120494  0  1.040788  0  0  0.123447  0  1.040099  0  0  0.100375  0.118532  0  1.041364  0
H  H26  1  0.27243690  0.39019238  0.65475225  1  0  0.111541  0  0.977101  0  0  0.120479  0  1.040805  0  0  0.123432  0  1.040117  0  0  0.100374  0.118517  0  1.041381  0
H  H27  1  0.87103189  0.05437519  0.54362115  1  0  0.303556  0  0.945565  0  0  0.272686  0  1.020129  0  0  0.284397  0  1.010878  0  0  0.301536  0.264288  0  1.026949  0
H  H28  1  0.12896988  0.45637933  0.94562490  1  0  0.30348  0  0.945689  0  0  0.272665  0  1.020159  0  0  0.284376  0  1.010909  0  0  0.301532  0.264268  0  1.026978  0
H  H29  1  0.12896727  0.94562634  0.45637676  1  0  0.303517  0  0.94562  0  0  0.272631  0  1.020202  0  0  0.284341  0  1.010952  0  0  0.301534  0.264232  0  1.027023  0
H  H30  1  0.87103125  0.54362219  0.05437446  1  0  0.303487  0  0.945699  0  0  0.272649  0  1.020187  0  0  0.284359  0  1.010937  0  0  0.301513  0.264252  0  1.027006  0
H  H31  1  0.01957939  0.78688902  0.12163991  1  0  0.427336  0  0.877024  0  0  0.395175  0  0.942208  0  0  0.405889  0  0.926763  0  0  0.284971  0.387562  0  0.953186  0
H  H32  1  0.98042128  0.87836097  0.21311094  1  0  0.427348  0  0.877006  0  0  0.395185  0  0.942189  0  0  0.405898  0  0.926745  0  0  0.284986  0.387572  0  0.953167  0
H  H33  1  0.98042189  0.21311057  0.87836184  1  0  0.427388  0  0.876948  0  0  0.395191  0  0.942183  0  0  0.405905  0  0.926737  0  0  0.284979  0.387578  0  0.953162  0
H  H34  1  0.01957902  0.12163863  0.78688965  1  0  0.427333  0  0.87703  0  0  0.39517  0  0.942218  0  0  0.405884  0  0.926771  0  0  0.284967  0.387557  0  0.953196  0
C  C35  1  0.68782380  0.90985138  0.53278540  1  0  0.141381  0  3.632786  0  0  0.101461  0  3.883631  0  0  0.10983  0  3.899574  0  0  0.064937  0.096037  0  3.872873  0
C  C36  1  0.31217699  0.46721401  0.09014828  1  0  0.141397  0  3.632859  0  0  0.101474  0  3.883669  0  0  0.109844  0  3.899612  0  0  0.064949  0.096052  0  3.872912  0
C  C37  1  0.31217418  0.09015209  0.46721686  1  0  0.141491  0  3.632759  0  0  0.101499  0  3.88362  0  0  0.10988  0  3.89955  0  0  0.064963  0.096071  0  3.872866  0
C  C38  1  0.68782449  0.53278365  0.90984796  1  0  0.141448  0  3.632775  0  0  0.101462  0  3.883631  0  0  0.10984  0  3.899562  0  0  0.064962  0.096036  0  3.872874  0
C  C39  1  0.68947230  0.02811930  0.37991770  1  0  0.157217  0  3.600651  0  0  0.116209  0  3.853398  0  0  0.125606  0  3.867933  0  0  0.071217  0.109696  0  3.84425  0
C  C40  1  0.31052775  0.62008287  0.97188199  1  0  0.157252  0  3.60067  0  0  0.11616  0  3.85344  0  0  0.125586  0  3.867993  0  0  0.071215  0.109648  0  3.844292  0
C  C41  1  0.31052662  0.97187934  0.62007882  1  0  0.157172  0  3.60085  0  0  0.116145  0  3.853559  0  0  0.125552  0  3.868109  0  0  0.071197  0.109631  0  3.844408  0
C  C42  1  0.68947221  0.37992059  0.02812085  1  0  0.157198  0  3.600839  0  0  0.116184  0  3.853541  0  0  0.125578  0  3.868081  0  0  0.071256  0.10967  0  3.844389  0
C  C43  1  0.54371224  0.83641401  0.46713966  1  0  -0.151853  0  3.68418  0  0  -0.168144  0  3.930886  0  0  -0.176834  0  3.952425  0  0  -0.074888  -0.16236  0  3.916916  0
C  C44  1  0.45628802  0.53286091  0.16358640  1  0  -0.151819  0  3.684224  0  0  -0.168131  0  3.93095  0  0  -0.17682  0  3.95249  0  0  -0.074894  -0.162347  0  3.91698  0
C  C45  1  0.45628673  0.16358945  0.53286289  1  0  -0.151893  0  3.684178  0  0  -0.168176  0  3.930928  0  0  -0.176866  0  3.952465  0  0  -0.07491  -0.16239  0  3.916959  0
C  C46  1  0.54371246  0.46713675  0.83641043  1  0  -0.151887  0  3.684166  0  0  -0.168161  0  3.930911  0  0  -0.176849  0  3.952448  0  0  -0.074907  -0.162375  0  3.916941  0
C  C47  1  0.54440694  0.95810035  0.31054854  1  0  -0.161959  0  3.672316  0  0  -0.177776  0  3.921469  0  0  -0.187198  0  3.942738  0  0  -0.072264  -0.171551  0  3.907993  0
C  C48  1  0.45559257  0.68945176  0.04189994  1  0  -0.161986  0  3.672239  0  0  -0.177772  0  3.921406  0  0  -0.18719  0  3.942666  0  0  -0.072258  -0.171549  0  3.907932  0
C  C49  1  0.45559057  0.04189734  0.68944831  1  0  -0.161983  0  3.67242  0  0  -0.177832  0  3.921556  0  0  -0.187253  0  3.942824  0  0  -0.072271  -0.171602  0  3.908076  0
C  C50  1  0.54440797  0.31055073  0.95810204  1  0  -0.161944  0  3.672423  0  0  -0.177776  0  3.921576  0  0  -0.187196  0  3.942848  0  0  -0.072258  -0.171549  0  3.908099  0
C  C51  1  0.46828366  0.85921162  0.35276089  1  0  0.145604  0  3.756536  0  0  0.161358  0  3.981913  0  0  0.167618  0  4.003136  0  0  0.01726  0.156765  0  3.967984  0
C  C52  1  0.53171658  0.64723884  0.14078767  1  0  0.145656  0  3.756432  0  0  0.16138  0  3.981851  0  0  0.167639  0  4.003075  0  0  0.017292  0.156786  0  3.967924  0
C  C53  1  0.53171623  0.14078701  0.64723856  1  0  0.145684  0  3.756458  0  0  0.161402  0  3.981887  0  0  0.167658  0  4.003111  0  0  0.017279  0.156808  0  3.967957  0
C  C54  1  0.46828331  0.35275980  0.85921178  1  0  0.145631  0  3.756506  0  0  0.161331  0  3.981945  0  0  0.167587  0  4.00317  0  0  0.017241  0.156736  0  3.968017  0
C  C55  1  0.31690100  0.78353638  0.27620016  1  0  -0.06411  0  3.704011  0  0  -0.086663  0  3.955614  0  0  -0.086927  0  3.97429  0  0  -0.077019  -0.085944  0  3.943408  0
C  C56  1  0.68309999  0.72380080  0.21646359  1  0  -0.064102  0  3.703983  0  0  -0.086649  0  3.955605  0  0  -0.086913  0  3.974278  0  0  -0.077018  -0.085931  0  3.943399  0
C  C57  1  0.68309988  0.21646225  0.72379957  1  0  -0.06411  0  3.704112  0  0  -0.086653  0  3.955718  0  0  -0.086915  0  3.974389  0  0  -0.077011  -0.085934  0  3.943515  0
C  C58  1  0.31690072  0.27619976  0.78353726  1  0  -0.064138  0  3.703999  0  0  -0.086673  0  3.955617  0  0  -0.086937  0  3.974288  0  0  -0.077032  -0.085953  0  3.943413  0
C  C59  1  0.23298906  0.68482966  0.30403760  1  0  -0.188042  0  3.624131  0  0  -0.207374  0  3.87971  0  0  -0.216086  0  3.896461  0  0  -0.083251  -0.202412  0  3.869671  0
C  C60  1  0.76701130  0.69596404  0.31517141  1  0  -0.188091  0  3.624196  0  0  -0.207413  0  3.879777  0  0  -0.21612  0  3.896525  0  0  -0.083251  -0.202446  0  3.86973  0
C  C61  1  0.76701066  0.31517090  0.69596385  1  0  -0.188137  0  3.624256  0  0  -0.207436  0  3.879796  0  0  -0.216145  0  3.896546  0  0  -0.083254  -0.202472  0  3.869754  0
C  C62  1  0.23298941  0.30403652  0.68482944  1  0  -0.188046  0  3.62416  0  0  -0.207377  0  3.879736  0  0  -0.216082  0  3.896482  0  0  -0.083224  -0.202413  0  3.869695  0
C  C63  1  0.08109518  0.60793697  0.21766281  1  0  0.690501  0  3.88431  0  0  0.642697  0  4.177847  0  0  0.67805  0  4.168885  0  0  0.207861  0.618454  0  4.183779  0
C  C64  1  0.91890486  0.78233768  0.39206332  1  0  0.690497  0  3.884324  0  0  0.642693  0  4.17785  0  0  0.678045  0  4.168887  0  0  0.207843  0.61845  0  4.183781  0
C  C65  1  0.91890554  0.39206359  0.78233716  1  0  0.690459  0  3.884255  0  0  0.642672  0  4.177742  0  0  0.678024  0  4.168778  0  0  0.207892  0.618429  0  4.183678  0
C  C66  1  0.08109544  0.21766192  0.60793727  1  0  0.690436  0  3.884362  0  0  0.642637  0  4.17788  0  0  0.677989  0  4.168917  0  0  0.207856  0.618395  0  4.183814  0
C  C67  1  0.28858117  0.63724173  0.63724017  1  0  0.314707  0  4.04348  0  0  0.291579  0  4.343884  0  0  0.317085  0  4.356976  0  0  0.14383  0.274538  0  4.334313  0
C  C68  1  0.71141435  0.36275597  0.36275610  1  0  0.314776  0  4.043436  0  0  0.291657  0  4.343833  0  0  0.317164  0  4.356926  0  0  0.143915  0.274616  0  4.334261  0
C  C69  1  0.81782569  0.13276256  0.13276484  1  0  0.309752  0  4.012337  0  0  0.293037  0  4.311046  0  0  0.314668  0  4.324936  0  0  0.148844  0.278453  0  4.30036  0
C  C70  1  0.18217939  0.86723893  0.86723831  1  0  0.310017  0  4.012236  0  0  0.293317  0  4.310916  0  0  0.314949  0  4.324795  0  0  0.149011  0.278733  0  4.300232  0
C  C71  1  0.20586791  0.26557640  0.26557587  1  0  0.293943  0  4.031672  0  0  0.275526  0  4.334405  0  0  0.296929  0  4.348515  0  0  0.145777  0.260723  0  4.32643  0
C  C72  1  0.79412999  0.73442225  0.73442651  1  0  0.293945  0  4.031653  0  0  0.275543  0  4.334364  0  0  0.296948  0  4.34847  0  0  0.145823  0.260741  0  4.326387  0
S  S73  1  0.45314958  0.72464658  0.72464785  1  0  -0.297419  0  2.049214  0  0  -0.272733  0  2.340133  0  0  -0.289583  0  2.339042  0  0  -0.124882  -0.261055  0  2.341632  0
S  S74  1  0.54683933  0.27534730  0.27534943  1  0  -0.297471  0  2.049201  0  0  -0.272778  0  2.34008  0  0  -0.289627  0  2.338991  0  0  -0.124915  -0.261097  0  2.34158  0
S  S75  1  0.28739273  0.39092899  0.39092826  1  0  -0.355233  0  2.167092  0  0  -0.32316  0  2.496426  0  0  -0.342137  0  2.491291  0  0  -0.13667  -0.311221  0  2.501874  0
S  S76  1  0.71260658  0.60907061  0.60907116  1  0  -0.355234  0  2.167016  0  0  -0.323163  0  2.496335  0  0  -0.34214  0  2.491199  0  0  -0.136688  -0.311227  0  2.501782  0
S  S77  1  0.74347250  0.00771840  0.00772353  1  0  -0.365264  0  2.090828  0  0  -0.330162  0  2.399862  0  0  -0.346399  0  2.390106  0  0  -0.154514  -0.315969  0  2.403548  0
S  S78  1  0.25653116  0.99228213  0.99228170  1  0  -0.365327  0  2.09076  0  0  -0.330234  0  2.399794  0  0  -0.346472  0  2.390037  0  0  -0.154529  -0.316047  0  2.403488  0
N  N79  1  0.16555146  0.57217860  0.57218076  1  0  -0.634913  0  2.986462  0  0  -0.56393  0  3.279149  0  0  -0.589796  0  3.281094  0  0  -0.437633  -0.546535  0  3.277484  0
N  N80  1  0.83444282  0.42781621  0.42781734  1  0  -0.634979  0  2.986453  0  0  -0.56402  0  3.279171  0  0  -0.589885  0  3.281114  0  0  -0.437714  -0.546625  0  3.277505  0
N  N81  1  0.14848674  0.17485228  0.17485251  1  0  -0.53191  0  2.854667  0  0  -0.475614  0  3.123275  0  0  -0.496411  0  3.128835  0  0  -0.384423  -0.46208  0  3.120183  0
N  N82  1  0.85151413  0.82514635  0.82514898  1  0  -0.531943  0  2.854717  0  0  -0.475637  0  3.123296  0  0  -0.496434  0  3.128851  0  0  -0.384459  -0.462105  0  3.120203  0
N  N83  1  0.87046417  0.22330749  0.22330745  1  0  -0.538815  0  2.900814  0  0  -0.484811  0  3.175554  0  0  -0.506353  0  3.181812  0  0  -0.390583  -0.469725  0  3.171186  0
N  N84  1  0.12954075  0.77669594  0.77669419  1  0  -0.53908  0  2.900909  0  0  -0.485104  0  3.175686  0  0  -0.506645  0  3.181936  0  0  -0.390745  -0.470018  0  3.171319  0
N  N85  1  0.75694968  0.00202877  0.48800039  1  0  -0.210518  0  3.446763  0  0  -0.135506  0  3.671885  0  0  -0.151454  0  3.687565  0  0  -0.332328  -0.124943  0  3.661784  0
N  N86  1  0.24305185  0.51200057  0.99797213  1  0  -0.2105  0  3.446825  0  0  -0.1355  0  3.671929  0  0  -0.151445  0  3.687597  0  0  -0.332345  -0.124937  0  3.661828  0
N  N87  1  0.24304807  0.99797181  0.51199872  1  0  -0.210496  0  3.446823  0  0  -0.135451  0  3.671949  0  0  -0.151393  0  3.687614  0  0  -0.332345  -0.124883  0  3.661846  0
N  N88  1  0.75695027  0.48800095  0.00202840  1  0  -0.210498  0  3.446923  0  0  -0.135442  0  3.671958  0  0  -0.151382  0  3.687624  0  0  -0.33235  -0.124877  0  3.661854  0
O  O89  1  0.02760584  0.64019484  0.11561254  1  0  -0.619534  0  1.978083  0  0  -0.55658  0  2.188603  0  0  -0.582621  0  2.178595  0  0  -0.316946  -0.538118  0  2.195365  0
O  O90  1  0.97239352  0.88438675  0.35980475  1  0  -0.619511  0  1.978083  0  0  -0.55653  0  2.188615  0  0  -0.582572  0  2.178609  0  0  -0.316923  -0.538069  0  2.195377  0
O  O91  1  0.97239943  0.35980473  0.88438510  1  0  -0.61951  0  1.978006  0  0  -0.556563  0  2.188521  0  0  -0.582604  0  2.178513  0  0  -0.31696  -0.538102  0  2.195285  0
O  O92  1  0.02760538  0.11561189  0.64019441  1  0  -0.619525  0  1.978056  0  0  -0.556549  0  2.188579  0  0  -0.58259  0  2.178572  0  0  -0.316941  -0.538088  0  2.195341  0
O  O93  1  0.00867027  0.51224774  0.24508621  1  0  -0.634308  0  2.010359  0  0  -0.574075  0  2.26344  0  0  -0.6032  0  2.253376  0  0  -0.322966  -0.553097  0  2.269517  0
O  O94  1  0.99133000  0.75491358  0.48775168  1  0  -0.634332  0  2.010312  0  0  -0.574098  0  2.263388  0  0  -0.603223  0  2.253321  0  0  -0.322981  -0.55312  0  2.269464  0
O  O95  1  0.99132632  0.48775477  0.75491374  1  0  -0.634253  0  2.010314  0  0  -0.574021  0  2.263364  0  0  -0.603153  0  2.253316  0  0  -0.322974  -0.553041  0  2.269435  0
O  O96  1  0.00867386  0.24508503  0.51224716  1  0  -0.634272  0  2.010399  0  0  -0.574026  0  2.263447  0  0  -0.603157  0  2.253397  0  0  -0.322969  -0.553046  0  2.269519  0
O  O97  1  0.00000104  0.86706263  0.13293870  1  0  -0.890743  0  1.897738  0  0  -0.831059  0  2.104084  0  0  -0.853405  0  2.070974  0  0  -0.612491  -0.815345  0  2.127065  0
O  O98  1  0.99999983  0.13293600  0.86706279  1  0  -0.890776  0  1.897702  0  0  -0.831069  0  2.104104  0  0  -0.853415  0  2.070989  0  0  -0.612481  -0.81535  0  2.127075  0
