# generated using pymatgen
data_Zn4H17C28S6O31
_symmetry_space_group_name_H-M   'P 1'
_cell_length_a   18.33154925
_cell_length_b   18.31501188
_cell_length_c   18.37150252
_cell_angle_alpha   60.62734870
_cell_angle_beta   60.33085455
_cell_angle_gamma   60.81156586
_symmetry_Int_Tables_number   1
_chemical_formula_structural   Zn4H17C28S6O31
_chemical_formula_sum   'Zn8 H34 C56 S12 O62'
_cell_volume   4419.46048920
_cell_formula_units_Z   2
loop_
 _symmetry_equiv_pos_site_id
 _symmetry_equiv_pos_as_xyz
  1  'x, y, z'
loop_
 _atom_site_type_symbol
 _atom_site_label
 _atom_site_symmetry_multiplicity
 _atom_site_fract_x
 _atom_site_fract_y
 _atom_site_fract_z
 _atom_site_occupancy
 _atom_site_pbe_bader_charge
 _atom_site_pbe_bader_spin_density
 _atom_site_pbe_cm5_charge
 _atom_site_pbe_ddec_charge
 _atom_site_pbe_ddec_spin_density
 _atom_site_pbe_ddec_sum_bond_order
 _atom_site_pbe_magmom
Zn  Zn0  1  0.53612708  0.55052194  0.86930638  1  1.324121  0  0.689782  0.992113  0  2.321911  0
Zn  Zn1  1  0.54304417  0.54750297  0.04464832  1  1.326504  0  0.680509  0.97478  0  2.361365  0
Zn  Zn2  1  0.54635719  0.37255010  0.03742953  1  1.298005  0  0.671563  0.956002  0  2.376481  0
Zn  Zn3  1  0.37172701  0.53512206  0.05409866  1  1.315025  0  0.675701  0.961902  0  2.379643  0
Zn  Zn4  1  0.95108067  0.96129468  0.63699300  1  1.351914  0  0.689601  1.003385  0  2.318295  0
Zn  Zn5  1  0.96416012  0.12915903  0.45775483  1  1.294872  0  0.675113  0.93851  0  2.388078  0
Zn  Zn6  1  0.95634929  0.96558726  0.45089368  1  1.326837  0  0.687768  0.982912  0  2.324159  0
Zn  Zn7  1  0.12773790  0.94988300  0.46890582  1  1.308418  0  0.674493  0.95233  0  2.389501  0
H  H8  1  0.30197066  0.75829698  0.61415683  1  0.126137  0  0.120187  0.120508  0  0.962661  0
H  H9  1  0.02936433  0.84387350  0.25225174  1  0.066313  0  0.103697  0.11949  0  0.981562  0
H  H10  1  0.12579256  0.65051257  0.25550871  1  0.133278  0  0.126842  0.147645  0  0.949935  0
H  H11  1  0.67200210  0.18424812  0.24009465  1  0.091068  0  0.114253  0.119763  0  0.98154  0
H  H12  1  0.77178885  0.09866562  0.32967451  1  0.076934  0  0.111408  0.119526  0  0.990037  0
H  H13  1  0.69193121  0.48637870  0.19803381  1  0.108916  0  0.113913  0.146953  0  0.964937  0
H  H14  1  0.77884415  0.46096846  0.10153602  1  0.117327  0  0.109552  0.141115  0  0.993485  0
H  H15  1  0.38575406  0.69141813  0.71675881  1  0.140791  0  0.124417  0.131186  0  0.96549  0
H  H16  1  0.61603533  0.78905910  0.94816724  1  0.163176  0  0.127161  0.155405  0  0.958415  0
H  H17  1  0.70701487  0.19664799  0.90076260  1  0.107469  0  0.110359  0.117768  0  0.991606  0
H  H18  1  0.80162050  0.10192167  0.80413115  1  0.102431  0  0.110068  0.122938  0  0.991432  0
H  H19  1  0.41096395  0.19292928  0.12593325  1  0.163225  0  0.121392  0.139943  0  0.988531  0
H  H20  1  0.84427769  0.39383428  0.52802193  1  0.057748  0  0.110661  0.135304  0  0.951418  0
H  H21  1  0.76198413  0.38371999  0.51228365  1  0.077908  0  0.096229  0.106801  0  1.031593  0
H  H22  1  0.72464091  0.49298990  0.61906213  1  0.161132  0  0.121723  0.148264  0  0.976958  0
H  H23  1  0.61612664  0.43531906  0.52262671  1  0.653864  0  0.337606  0.399398  0  0.86432  0
H  H24  1  0.29637435  0.99587005  0.34068917  1  0.645083  0  0.310679  0.37559  0  0.949085  0
H  H25  1  0.16088700  0.59524896  0.10392868  1  0.684618  0  0.322065  0.395935  0  0.935723  0
H  H26  1  0.12102428  0.89065186  0.05174400  1  0.624527  0  0.359725  0.4077  0  0.832664  0
H  H27  1  0.86520969  0.29334752  0.36929104  1  0.663996  0  0.311601  0.374022  0  0.957428  0
H  H28  1  0.96053031  0.27097605  0.10018018  1  0.620598  0  0.352631  0.399759  0  0.83903  0
H  H29  1  0.83199690  0.50318497  0.80981976  1  0.648585  0  0.362892  0.416664  0  0.811197  0
H  H30  1  0.03451997  0.35528913  0.32225632  1  0.137597  0  0.112798  0.145874  0  0.983348  0
H  H31  1  0.73663809  0.86150689  0.48940562  1  0.631894  0  0.359446  0.40951  0  0.825896  0
H  H32  1  0.71414799  0.90439840  0.96246069  1  0.651366  0  0.341848  0.407481  0  0.861036  0
H  H33  1  0.56839816  0.95122102  0.77813618  1  0.642016  0  0.367135  0.417166  0  0.813094  0
H  H34  1  0.74040872  0.69400629  0.08319763  1  0.643311  0  0.370395  0.422738  0  0.800819  0
H  H35  1  0.19827569  0.52294997  0.01041013  1  0.654856  0  0.317615  0.384015  0  0.933276  0
H  H36  1  0.08746276  0.31197261  0.40185754  1  0.069804  0  0.108015  0.127164  0  0.96268  0
H  H37  1  0.17253197  0.42133915  0.30132205  1  0.106555  0  0.121913  0.134825  0  0.950729  0
H  H38  1  0.41154066  0.71292239  0.19909883  1  0.094303  0  0.114  0.124674  0  0.983969  0
H  H39  1  0.31503498  0.80895140  0.29413678  1  0.097043  0  0.115232  0.126187  0  0.981087  0
H  H40  1  0.03048686  0.74914841  0.34965759  1  0.10961  0  0.109653  0.142867  0  0.973726  0
H  H41  1  0.14258041  0.79389866  0.78054776  1  0.131275  0  0.117238  0.14254  0  0.994737  0
C  C42  1  0.36295767  0.64013176  0.13995183  1  1.57651  0  0.229977  0.607209  0  4.179594  0
C  C43  1  0.70858275  0.44043565  0.62293097  1  -0.121085  0  -0.064341  -0.196322  0  3.782394  0
C  C44  1  0.22426102  0.32795071  0.22937378  1  -0.041396  0  0.007085  0.06109  0  3.854635  0
C  C45  1  0.64062372  0.37390738  0.85307929  1  1.591895  0  0.231633  0.611116  0  4.170747  0
C  C46  1  0.31196150  0.30105082  0.17537767  1  0.056815  0  0.000956  -0.04388  0  3.931281  0
C  C47  1  0.34418317  0.21570749  0.17039325  1  0.002359  0  -0.063265  -0.09057  0  3.915345  0
C  C48  1  0.29356690  0.15894689  0.22182718  1  -0.160743  0  -0.00406  -0.102563  0  3.929153  0
C  C49  1  0.20732901  0.18335620  0.28352903  1  0.005767  0  0.000655  -0.078359  0  3.923878  0
C  C50  1  0.17473719  0.27003572  0.28277788  1  0.020925  0  0.011506  0.093686  0  3.856909  0
C  C51  1  0.09781232  0.33324869  0.33120468  1  -0.047303  0  -0.140439  -0.220443  0  3.825841  0
C  C52  1  0.15309404  0.39994037  0.26915030  1  -0.095711  0  -0.064755  -0.19416  0  3.788056  0
C  C53  1  0.29348571  0.63861629  0.82962331  1  -0.186217  0  -0.016468  -0.242759  0  3.815005  0
C  C54  1  0.21161804  0.72483298  0.22417056  1  0.047076  0  -0.004744  0.038249  0  3.887669  0
C  C55  1  0.30400763  0.69886663  0.19511664  1  0.012199  0  -0.007565  -0.061729  0  3.9664  0
C  C56  1  0.33962215  0.73139757  0.22135043  1  0.006702  0  -0.072991  -0.089551  0  3.944796  0
C  C57  1  0.63695727  0.64083015  0.86082380  1  1.634898  0  0.224911  0.602256  0  4.213828  0
C  C58  1  0.28554539  0.78505735  0.27471788  1  -0.046439  0  -0.066747  -0.07367  0  3.934821  0
C  C59  1  0.19234443  0.80985111  0.30458588  1  0.038182  0  -0.005699  -0.07043  0  3.957375  0
C  C60  1  0.15743244  0.77917492  0.27683520  1  -0.077743  0  0.002931  0.076357  0  3.885726  0
C  C61  1  0.07180348  0.77952878  0.28321120  1  0.010044  0  -0.142432  -0.21007  0  3.841127  0
C  C62  1  0.13247567  0.71671849  0.22483563  1  -0.132726  0  -0.059888  -0.192842  0  3.787825  0
C  C63  1  0.73229637  0.34765395  0.20692162  1  0.023308  0  0.008418  0.10394  0  3.873124  0
C  C64  1  0.71643220  0.35559774  0.70114515  1  -0.151227  0  0.00017  0.051724  0  3.867364  0
C  C65  1  0.68867012  0.30899207  0.19895337  1  0.032247  0  -0.003247  -0.062805  0  3.93966  0
C  C66  1  0.70445821  0.21752490  0.24471104  1  0.015845  0  -0.070762  -0.079986  0  3.948907  0
C  C67  1  0.76080583  0.16935422  0.29479658  1  -0.002601  0  -0.076333  -0.091479  0  3.946767  0
C  C68  1  0.80550994  0.20885124  0.30224696  1  -0.024737  0  -0.009413  -0.066598  0  3.9627  0
C  C69  1  0.37176999  0.35472012  0.13069515  1  1.581183  0  0.227301  0.604836  0  4.176713  0
C  C70  1  0.78937185  0.29938892  0.25616166  1  -0.02837  0  -0.012476  0.000864  0  3.940891  0
C  C71  1  0.81628811  0.37901651  0.22593508  1  -0.181973  0  -0.000827  -0.224311  0  3.761163  0
C  C72  1  0.74852211  0.43357525  0.17346486  1  -0.011521  0  -0.144033  -0.233141  0  3.837345  0
C  C73  1  0.71174394  0.74224159  0.83037339  1  0.030436  0  0.003597  0.07108  0  3.917069  0
C  C74  1  0.70340906  0.68960599  0.80227376  1  0.078317  0  0.006352  -0.047688  0  3.913702  0
C  C75  1  0.69280778  0.31976252  0.79331933  1  0.063042  0  -0.003814  -0.056986  0  3.948132  0
C  C76  1  0.75781759  0.68994160  0.71444374  1  -0.095645  0  0.010077  -0.090693  0  3.814538  0
C  C77  1  0.79986266  0.75517598  0.65389941  1  -0.090239  0  0.005841  -0.099435  0  3.834808  0
C  C78  1  0.80477879  0.81101442  0.68308734  1  0.075658  0  0.011907  -0.030365  0  3.859013  0
C  C79  1  0.76277450  0.79815750  0.77385560  1  -0.029683  0  0.000958  0.040527  0  3.904076  0
C  C80  1  0.73640852  0.83417769  0.84549314  1  -0.16428  0  0.007624  -0.22067  0  3.681186  0
C  C81  1  0.63133124  0.36283282  0.14245551  1  1.54191  0  0.231826  0.608958  0  4.174838  0
C  C82  1  0.68644275  0.76187316  0.91241615  1  -0.117609  0  -0.063514  -0.220811  0  3.700196  0
C  C83  1  0.15131965  0.12569093  0.35103964  1  1.601723  0  0.241705  0.621938  0  4.137289  0
C  C84  1  0.85749120  0.87433532  0.62733554  1  1.637243  0  0.231555  0.609904  0  4.180866  0
C  C85  1  0.86640014  0.15340741  0.62599909  1  1.571828  0  0.230526  0.610172  0  4.176833  0
C  C86  1  0.72518205  0.22668394  0.82895902  1  -0.050975  0  -0.077435  -0.093434  0  3.964099  0
C  C87  1  0.13527763  0.86516419  0.36318232  1  1.54635  0  0.235156  0.61834  0  4.160367  0
C  C88  1  0.86477373  0.15269793  0.35667914  1  1.541045  0  0.239659  0.623666  0  4.132598  0
C  C89  1  0.13142484  0.86127948  0.64889810  1  1.562944  0  0.226503  0.652206  0  4.159298  0
C  C90  1  0.35232883  0.60526919  0.88092144  1  1.584315  0  0.231593  0.639687  0  4.166318  0
C  C91  1  0.26640371  0.74872801  0.68495271  1  -0.034184  0  -0.055776  -0.006867  0  3.946776  0
C  C92  1  0.18059670  0.79848969  0.71122277  1  -0.033765  0  -0.077749  -0.211181  0  3.853272  0
C  C93  1  0.31759893  0.69086986  0.74386711  1  0.049259  0  -0.040738  0.007698  0  3.905465  0
C  C94  1  0.77904310  0.17378613  0.77503356  1  -0.083101  0  -0.075327  -0.084076  0  3.953704  0
C  C95  1  0.80734658  0.21115420  0.68179194  1  0.044177  0  -0.011386  -0.07612  0  3.974409  0
C  C96  1  0.77537616  0.30311933  0.64674578  1  0.080322  0  0.002531  0.07441  0  3.874882  0
C  C97  1  0.78048430  0.38153991  0.56174211  1  0.010928  0  -0.145419  -0.211688  0  3.853988  0
S  S98  1  0.60344393  0.49782224  0.60333325  1  3.04188  0  0.53221  1.167893  0  5.941807  0
S  S99  1  0.65506987  0.94847300  0.82562000  1  3.040684  0  0.547614  1.127256  0  5.922059  0
S  S100  1  0.72457792  0.65625569  0.99989292  1  3.11262  0  0.55252  1.162497  0  5.90618  0
S  S101  1  0.18992984  0.61636443  0.88397713  1  3.134912  0  0.538036  1.185508  0  6.020697  0
S  S102  1  0.34144214  0.05497674  0.20317065  1  3.111278  0  0.529484  1.153894  0  6.045964  0
S  S103  1  0.09045126  0.50087598  0.20341183  1  3.033317  0  0.545344  1.179021  0  5.914684  0
S  S104  1  0.11456231  0.75971668  0.12105128  1  3.03468  0  0.557334  1.190559  0  5.855484  0
S  S105  1  0.78579119  0.42199779  0.31212453  1  3.136295  0  0.536947  1.150315  0  6.020797  0
S  S106  1  0.93183742  0.36814050  0.15115976  1  3.053169  0  0.542929  1.13492  0  5.931136  0
S  S107  1  0.79647520  0.58646325  0.69272858  1  3.086761  0  0.549803  1.14276  0  5.949461  0
S  S108  1  0.84290647  0.76930557  0.53625493  1  3.086099  0  0.551709  1.146717  0  5.963199  0
S  S109  1  0.81957912  0.84027897  0.87026913  1  3.131962  0  0.54781  1.135293  0  5.97183  0
O  O110  1  0.50157284  0.50270384  0.99964398  1  -1.213444  0  -0.572838  -1.038884  0  2.527488  0
O  O111  1  0.05171689  0.89326772  0.37787056  1  -1.141498  0  -0.307808  -0.53506  0  2.331508  0
O  O112  1  0.88297282  0.19036968  0.38638595  1  -1.17589  0  -0.297149  -0.541154  0  2.389487  0
O  O113  1  0.32394232  0.61024534  0.12454040  1  -1.162832  0  -0.309304  -0.533247  0  2.380619  0
O  O114  1  0.17463783  0.87700449  0.56550545  1  -1.166952  0  -0.322104  -0.557624  0  2.323513  0
O  O115  1  0.89278264  0.07013680  0.37130937  1  -1.152293  0  -0.300601  -0.528601  0  2.335897  0
O  O116  1  0.04802526  0.89544862  0.68449446  1  -1.161218  0  -0.312338  -0.542451  0  2.303725  0
O  O117  1  0.87969217  0.07071275  0.66528265  1  -1.176672  0  -0.308002  -0.541249  0  2.401701  0
O  O118  1  0.17408426  0.87926673  0.39407244  1  -1.172362  0  -0.307644  -0.535455  0  2.360672  0
O  O119  1  0.06864098  0.16601300  0.37213456  1  -1.161713  0  -0.290775  -0.498635  0  2.357681  0
O  O120  1  0.85920076  0.91948956  0.54824745  1  -1.162163  0  -0.30123  -0.519315  0  2.388176  0
O  O121  1  0.60046529  0.63460778  0.82174499  1  -1.152603  0  -0.301208  -0.524493  0  2.337187  0
O  O122  1  0.61559886  0.45756076  0.81626593  1  -1.157547  0  -0.299741  -0.523041  0  2.381512  0
O  O123  1  0.62017993  0.61692909  0.94338124  1  -1.171357  0  -0.296735  -0.523832  0  2.403127  0
O  O124  1  0.45170282  0.32203870  0.08521896  1  -1.164406  0  -0.306971  -0.527832  0  2.305358  0
O  O125  1  0.61587633  0.44614587  0.11494962  1  -1.160858  0  -0.30298  -0.524599  0  2.341483  0
O  O126  1  0.31953639  0.57468854  0.96525900  1  -1.160318  0  -0.308553  -0.541207  0  2.402614  0
O  O127  1  0.60421545  0.32220111  0.12589654  1  -1.169393  0  -0.310264  -0.539363  0  2.31342  0
O  O128  1  0.42919047  0.61365800  0.83696661  1  -1.170926  0  -0.311004  -0.540738  0  2.349248  0
O  O129  1  0.53230459  0.51099930  0.68323861  1  -1.292931  0  -0.310944  -0.518203  0  2.137526  0
O  O130  1  0.61543444  0.57052649  0.52137602  1  -1.296656  0  -0.330372  -0.547753  0  2.074589  0
O  O131  1  0.59196278  0.42542208  0.58671405  1  -1.197285  0  -0.366404  -0.53885  0  2.121113  0
O  O132  1  0.33868667  0.42833271  0.14411144  1  -1.169909  0  -0.317109  -0.550268  0  2.344947  0
O  O133  1  0.27462717  0.04343173  0.19357174  1  -1.286082  0  -0.328962  -0.546169  0  2.098943  0
O  O134  1  0.42772291  0.04956126  0.13664034  1  -1.298895  0  -0.316051  -0.516731  0  2.097807  0
O  O135  1  0.35741351  0.98640067  0.29443523  1  -1.22122  0  -0.370587  -0.531242  0  2.150311  0
O  O136  1  0.04240072  0.47774401  0.18016305  1  -1.254802  0  -0.289852  -0.492465  0  2.143233  0
O  O137  1  0.04635242  0.56446005  0.24918071  1  -1.292566  0  -0.324057  -0.549749  0  2.0958  0
O  O138  1  0.16664139  0.53336597  0.11419346  1  -1.248074  0  -0.35258  -0.561118  0  2.322423  0
O  O139  1  0.16429183  0.69222552  0.07926892  1  -1.305376  0  -0.290007  -0.524083  0  2.292782  0
O  O140  1  0.02171525  0.80564472  0.13286410  1  -1.281755  0  -0.307694  -0.526012  0  2.076002  0
O  O141  1  0.16618448  0.83210384  0.06034003  1  -1.17748  0  -0.359374  -0.534898  0  2.113509  0
O  O142  1  0.79447844  0.50809547  0.27189455  1  -1.269739  0  -0.294362  -0.483085  0  2.107717  0
O  O143  1  0.44633061  0.62460714  0.11320646  1  -1.164803  0  -0.309094  -0.537293  0  2.343338  0
O  O144  1  0.70181913  0.40879403  0.37562001  1  -1.305096  0  -0.323306  -0.546655  0  2.101089  0
O  O145  1  0.86124688  0.35602925  0.35438622  1  -1.25205  0  -0.348084  -0.514316  0  2.251067  0
O  O146  1  0.94002235  0.45436790  0.10225855  1  -1.239393  0  -0.265064  -0.435769  0  2.136962  0
O  O147  1  0.99035443  0.29514943  0.19837218  1  -1.284664  0  -0.310615  -0.526294  0  2.14949  0
O  O148  1  0.93363186  0.33549496  0.08207974  1  -1.156967  0  -0.359148  -0.523243  0  2.123072  0
O  O149  1  0.74046698  0.58236767  0.66296925  1  -1.250546  0  -0.268308  -0.453193  0  2.191993  0
O  O150  1  0.89092544  0.56729063  0.64981567  1  -1.264244  0  -0.302303  -0.51227  0  2.117638  0
O  O151  1  0.78149033  0.51833557  0.79365284  1  -1.186141  0  -0.345554  -0.522373  0  2.169857  0
O  O152  1  0.93222158  0.76961599  0.49863194  1  -1.270977  0  -0.278683  -0.479347  0  2.178267  0
O  O153  1  0.81788874  0.71372241  0.52447422  1  -1.269959  0  -0.291949  -0.514129  0  2.195338  0
O  O154  1  0.62760149  0.33164209  0.93580734  1  -1.179184  0  -0.316539  -0.548125  0  2.347682  0
O  O155  1  0.77969256  0.86894506  0.50004723  1  -1.166081  0  -0.354662  -0.521841  0  2.147479  0
O  O156  1  0.88942590  0.75789619  0.87583170  1  -1.236662  0  -0.256842  -0.421205  0  2.134298  0
O  O157  1  0.83446825  0.92402140  0.81391242  1  -1.277726  0  -0.284068  -0.508633  0  2.256164  0
O  O158  1  0.76130844  0.84583489  0.96845244  1  -1.197044  0  -0.350107  -0.521328  0  2.173189  0
O  O159  1  0.62752894  0.97507210  0.89962668  1  -1.263862  0  -0.28073  -0.485656  0  2.13526  0
O  O160  1  0.68799052  0.00097067  0.73502319  1  -1.27184  0  -0.28805  -0.489542  0  2.130187  0
O  O161  1  0.57070326  0.93145906  0.83734254  1  -1.17097  0  -0.343067  -0.507076  0  2.133751  0
O  O162  1  0.64337548  0.64535392  0.07137732  1  -1.285193  0  -0.304038  -0.527586  0  2.141546  0
O  O163  1  0.78742638  0.59155868  0.95644461  1  -1.28587  0  -0.294321  -0.492375  0  2.128726  0
O  O164  1  0.77965934  0.67016389  0.03401211  1  -1.170346  0  -0.322921  -0.480428  0  2.243367  0
O  O165  1  0.99870862  0.00116665  0.50396927  1  -1.225604  0  -0.572093  -1.033004  0  2.533146  0
O  O166  1  0.12661628  0.67832832  0.93159588  1  -1.288355  0  -0.318662  -0.538163  0  2.108391  0
O  O167  1  0.17294530  0.60962969  0.81969199  1  -1.283376  0  -0.311985  -0.515878  0  2.10595  0
O  O168  1  0.21198658  0.51938123  0.95222046  1  -1.231472  0  -0.361395  -0.520009  0  2.191435  0
O  O169  1  0.18813886  0.04270369  0.38689403  1  -1.184657  0  -0.298898  -0.551535  0  2.383618  0
O  O170  1  0.89576547  0.87475128  0.66868229  1  -1.143343  0  -0.291629  -0.523492  0  2.376168  0
O  O171  1  0.89858363  0.19197806  0.54251125  1  -1.16665  0  -0.314204  -0.53135  0  2.32366  0
