# generated using pymatgen
data_CdH14(C5N2)2
_symmetry_space_group_name_H-M   'P 1'
_cell_length_a   8.64551652
_cell_length_b   8.64556326
_cell_length_c   13.88312498
_cell_angle_alpha   90.00014636
_cell_angle_beta   89.99964804
_cell_angle_gamma   120.00030328
_symmetry_Int_Tables_number   1
_chemical_formula_structural   CdH14(C5N2)2
_chemical_formula_sum   'Cd3 H42 C30 N12'
_cell_volume   898.67109991
_cell_formula_units_Z   3
loop_
 _symmetry_equiv_pos_site_id
 _symmetry_equiv_pos_as_xyz
  1  'x, y, z'
loop_
 _atom_site_type_symbol
 _atom_site_label
 _atom_site_symmetry_multiplicity
 _atom_site_fract_x
 _atom_site_fract_y
 _atom_site_fract_z
 _atom_site_occupancy
 _atom_site_hle17_bader_spin_density
 _atom_site_hle17_ddec_charge
 _atom_site_hle17_ddec_spin_density
 _atom_site_hle17_ddec_sum_bond_order
 _atom_site_hle17_magmom
 _atom_site_hse06_10hf_bader_spin_density
 _atom_site_hse06_10hf_ddec_charge
 _atom_site_hse06_10hf_ddec_spin_density
 _atom_site_hse06_10hf_ddec_sum_bond_order
 _atom_site_hse06_10hf_magmom
 _atom_site_hse06_bader_spin_density
 _atom_site_hse06_ddec_charge
 _atom_site_hse06_ddec_spin_density
 _atom_site_hse06_ddec_sum_bond_order
 _atom_site_hse06_magmom
 _atom_site_pbe_bader_spin_density
 _atom_site_pbe_cm5_charge
 _atom_site_pbe_ddec_charge
 _atom_site_pbe_ddec_spin_density
 _atom_site_pbe_ddec_sum_bond_order
 _atom_site_pbe_magmom
Cd  Cd0  1  0.46371142  0.46370975  0.00000019  1  0  0.977988  0  1.884708  0  0  0.766543  0  2.342428  0  0  0.811676  0  2.306945  0  0  0.804814  0.735296  0  2.366232  0
Cd  Cd1  1  0.53629558  0.00000334  0.66666948  1  0  0.978002  0  1.884703  0  0  0.766541  0  2.342439  0  0  0.811678  0  2.30695  0  0  0.804834  0.735294  0  2.366246  0
Cd  Cd2  1  0.00000465  0.53629961  0.33333171  1  0  0.977965  0  1.884714  0  0  0.766518  0  2.342437  0  0  0.811654  0  2.306947  0  0  0.804813  0.735268  0  2.366242  0
H  H3  1  0.52545097  0.22959468  0.13272217  1  0  0.070692  0  0.949807  0  0  0.08832  0  1.014008  0  0  0.089912  0  1.012496  0  0  0.092819  0.087133  0  1.015155  0
H  H4  1  0.77040956  0.29585645  0.79939442  1  0  0.070733  0  0.949805  0  0  0.088397  0  1.013965  0  0  0.089987  0  1.012458  0  0  0.092843  0.087208  0  1.015114  0
H  H5  1  0.70414484  0.47455248  0.46605187  1  0  0.070654  0  0.949947  0  0  0.088284  0  1.014131  0  0  0.089878  0  1.012615  0  0  0.092795  0.087094  0  1.015278  0
H  H6  1  0.22959137  0.52544692  0.86727661  1  0  0.070704  0  0.949818  0  0  0.088344  0  1.013984  0  0  0.089934  0  1.012478  0  0  0.09282  0.087157  0  1.015133  0
H  H7  1  0.29585500  0.77041158  0.20060617  1  0  0.070703  0  0.949823  0  0  0.088367  0  1.013982  0  0  0.089958  0  1.012472  0  0  0.092832  0.08718  0  1.015132  0
H  H8  1  0.47455400  0.70414276  0.53394859  1  0  0.07066  0  0.94988  0  0  0.088265  0  1.014086  0  0  0.089858  0  1.012569  0  0  0.092813  0.087076  0  1.015231  0
H  H9  1  0.68929187  0.24372416  0.21342488  1  0  0.076894  0  0.94052  0  0  0.09479  0  1.001068  0  0  0.096348  0  1.000167  0  0  0.093119  0.093676  0  1.001725  0
H  H10  1  0.75627976  0.44556758  0.88009686  1  0  0.0769  0  0.940485  0  0  0.094814  0  1.001021  0  0  0.096375  0  1.000116  0  0  0.093145  0.0937  0  1.001679  0
H  H11  1  0.55442817  0.31071143  0.54675288  1  0  0.076884  0  0.940537  0  0  0.094802  0  1.001055  0  0  0.096361  0  1.000154  0  0  0.093115  0.093686  0  1.001712  0
H  H12  1  0.24371900  0.68928666  0.78657298  1  0  0.076925  0  0.940481  0  0  0.094824  0  1.001009  0  0  0.096383  0  1.000107  0  0  0.09314  0.093711  0  1.001668  0
H  H13  1  0.44557069  0.75628453  0.11990286  1  0  0.076875  0  0.940493  0  0  0.094798  0  1.001011  0  0  0.096358  0  1.000107  0  0  0.093135  0.093685  0  1.00167  0
H  H14  1  0.31071144  0.55442837  0.45324722  1  0  0.076865  0  0.940511  0  0  0.094787  0  1.001021  0  0  0.096345  0  1.00012  0  0  0.093112  0.09367  0  1.001677  0
H  H15  1  0.38692192  0.08283690  0.28998302  1  0  0.098077  0  0.957006  0  0  0.119188  0  1.016499  0  0  0.120481  0  1.017151  0  0  0.083127  0.118224  0  1.016082  0
H  H16  1  0.91717095  0.30409115  0.95665413  1  0  0.098001  0  0.957098  0  0  0.119139  0  1.016567  0  0  0.120435  0  1.017217  0  0  0.083103  0.118175  0  1.016149  0
H  H17  1  0.69591206  0.61307331  0.62331414  1  0  0.098095  0  0.957053  0  0  0.119213  0  1.016529  0  0  0.120508  0  1.017179  0  0  0.083136  0.118249  0  1.016112  0
H  H18  1  0.08283575  0.38691972  0.71001608  1  0  0.098052  0  0.957035  0  0  0.119186  0  1.016497  0  0  0.120481  0  1.017147  0  0  0.083124  0.118223  0  1.01608  0
H  H19  1  0.30409145  0.91717151  0.04334412  1  0  0.097982  0  0.957094  0  0  0.119126  0  1.016557  0  0  0.120423  0  1.017205  0  0  0.083095  0.118162  0  1.016139  0
H  H20  1  0.61307609  0.69591210  0.37668473  1  0  0.098112  0  0.956989  0  0  0.119215  0  1.016488  0  0  0.120505  0  1.017142  0  0  0.08314  0.11825  0  1.016071  0
H  H21  1  0.35665967  0.26904974  0.26919756  1  0  0.096453  0  0.966714  0  0  0.114155  0  1.031966  0  0  0.115196  0  1.033318  0  0  0.08096  0.113374  0  1.031066  0
H  H22  1  0.73095744  0.08761223  0.93587225  1  0  0.096518  0  0.966665  0  0  0.114216  0  1.03192  0  0  0.115257  0  1.033271  0  0  0.081012  0.113436  0  1.031018  0
H  H23  1  0.91238832  0.64333693  0.60253024  1  0  0.096481  0  0.966795  0  0  0.11417  0  1.032056  0  0  0.11521  0  1.033409  0  0  0.080952  0.113389  0  1.031154  0
H  H24  1  0.26904993  0.35665824  0.73080065  1  0  0.096467  0  0.966709  0  0  0.114173  0  1.031954  0  0  0.115214  0  1.033305  0  0  0.080971  0.113393  0  1.031053  0
H  H25  1  0.08761121  0.73095412  0.06412790  1  0  0.096472  0  0.966689  0  0  0.114167  0  1.031956  0  0  0.115206  0  1.033308  0  0  0.080978  0.113386  0  1.031053  0
H  H26  1  0.64333836  0.91238746  0.39746979  1  0  0.096491  0  0.966762  0  0  0.114188  0  1.032016  0  0  0.115228  0  1.033368  0  0  0.080969  0.113407  0  1.031114  0
H  H27  1  0.52161566  0.28570070  0.35204460  1  0  0.091747  0  0.972203  0  0  0.111003  0  1.038513  0  0  0.11187  0  1.039372  0  0  0.082265  0.11033  0  1.037942  0
H  H28  1  0.71430665  0.23591962  0.01871578  1  0  0.091738  0  0.972236  0  0  0.110992  0  1.038546  0  0  0.11186  0  1.039405  0  0  0.082241  0.110318  0  1.037977  0
H  H29  1  0.76407904  0.47837767  0.68537486  1  0  0.091716  0  0.972166  0  0  0.110953  0  1.038508  0  0  0.11182  0  1.039365  0  0  0.082231  0.11028  0  1.037939  0
H  H30  1  0.28569954  0.52161490  0.64795412  1  0  0.091814  0  0.972211  0  0  0.11105  0  1.038538  0  0  0.111917  0  1.039397  0  0  0.082274  0.110378  0  1.037968  0
H  H31  1  0.23591966  0.71430524  0.98128422  1  0  0.091737  0  0.972193  0  0  0.11099  0  1.038504  0  0  0.111858  0  1.039363  0  0  0.082242  0.110316  0  1.037936  0
H  H32  1  0.47837776  0.76407796  0.31462553  1  0  0.091726  0  0.972177  0  0  0.110965  0  1.038516  0  0  0.111832  0  1.039372  0  0  0.08224  0.110292  0  1.037945  0
H  H33  1  0.98777582  0.89179065  0.24691223  1  0  0.084794  0  0.978423  0  0  0.096772  0  1.040738  0  0  0.098566  0  1.040529  0  0  0.107848  0.095481  0  1.040921  0
H  H34  1  0.10821307  0.09598285  0.91358669  1  0  0.084819  0  0.978302  0  0  0.096812  0  1.040613  0  0  0.098607  0  1.0404  0  0  0.107831  0.095519  0  1.040798  0
H  H35  1  0.90400643  0.01222433  0.58024011  1  0  0.084813  0  0.978473  0  0  0.096756  0  1.04082  0  0  0.098541  0  1.040615  0  0  0.107859  0.095465  0  1.041003  0
H  H36  1  0.89179074  0.98777646  0.75308671  1  0  0.084791  0  0.978424  0  0  0.096767  0  1.040743  0  0  0.098561  0  1.040533  0  0  0.107841  0.095477  0  1.040924  0
H  H37  1  0.09598566  0.10821712  0.08641704  1  0  0.084848  0  0.978361  0  0  0.096849  0  1.040649  0  0  0.09864  0  1.040441  0  0  0.107898  0.095557  0  1.040833  0
H  H38  1  0.01222690  0.90400901  0.41975921  1  0  0.0848  0  0.978546  0  0  0.096747  0  1.04089  0  0  0.098531  0  1.040686  0  0  0.107855  0.095457  0  1.041072  0
H  H39  1  0.78617738  0.85933901  0.08480932  1  0  0.084112  0  0.979788  0  0  0.094753  0  1.044349  0  0  0.09684  0  1.043679  0  0  0.106609  0.093245  0  1.04491  0
H  H40  1  0.14066183  0.92683527  0.75148329  1  0  0.084101  0  0.979855  0  0  0.094832  0  1.044315  0  0  0.096921  0  1.043643  0  0  0.106625  0.093323  0  1.044875  0
H  H41  1  0.07315832  0.21382252  0.41813643  1  0  0.084113  0  0.97975  0  0  0.094737  0  1.044331  0  0  0.096827  0  1.043657  0  0  0.106579  0.093229  0  1.044892  0
H  H42  1  0.85933885  0.78617595  0.91518845  1  0  0.084094  0  0.979867  0  0  0.094774  0  1.044379  0  0  0.096861  0  1.04371  0  0  0.106613  0.093267  0  1.04494  0
H  H43  1  0.92683489  0.14066893  0.24851946  1  0  0.084059  0  0.979888  0  0  0.094804  0  1.044335  0  0  0.096893  0  1.043663  0  0  0.106625  0.093295  0  1.044896  0
H  H44  1  0.21382137  0.07315544  0.58186216  1  0  0.084105  0  0.979813  0  0  0.094754  0  1.044364  0  0  0.096842  0  1.043691  0  0  0.106593  0.093247  0  1.044924  0
C  C45  1  0.78236570  0.75727161  0.13187790  1  0  -0.039822  0  3.835225  0  0  -0.071883  0  4.096449  0  0  -0.070515  0  4.118175  0  0  -0.031046  -0.072792  0  4.081727  0
C  C46  1  0.24273188  0.02508965  0.79855391  1  0  -0.039945  0  3.835344  0  0  -0.072101  0  4.096587  0  0  -0.070734  0  4.118314  0  0  -0.031095  -0.073006  0  4.081859  0
C  C47  1  0.97490269  0.21763590  0.46520552  1  0  -0.039825  0  3.835345  0  0  -0.07187  0  4.096571  0  0  -0.070503  0  4.118295  0  0  -0.031009  -0.072777  0  4.081844  0
C  C48  1  0.75727051  0.78236236  0.86811999  1  0  -0.039875  0  3.835353  0  0  -0.071977  0  4.096575  0  0  -0.07061  0  4.1183  0  0  -0.031074  -0.072885  0  4.081852  0
C  C49  1  0.02509179  0.24273770  0.20144830  1  0  -0.03982  0  3.835337  0  0  -0.071983  0  4.096582  0  0  -0.070616  0  4.11831  0  0  -0.031086  -0.072891  0  4.081857  0
C  C50  1  0.21763672  0.97490253  0.53479493  1  0  -0.039835  0  3.83525  0  0  -0.0719  0  4.096482  0  0  -0.070533  0  4.118205  0  0  -0.030997  -0.072809  0  4.081759  0
C  C51  1  0.69569604  0.48932046  0.18767869  1  0  0.357804  0  3.748836  0  0  0.339273  0  4.005344  0  0  0.354198  0  4.023196  0  0  0.192887  0.329444  0  3.992846  0
C  C52  1  0.51068157  0.20637034  0.85435294  1  0  0.357728  0  3.749438  0  0  0.339235  0  4.005906  0  0  0.354162  0  4.023759  0  0  0.192966  0.329404  0  3.99341  0
C  C53  1  0.79361899  0.30430214  0.52100677  1  0  0.357994  0  3.748731  0  0  0.339418  0  4.005298  0  0  0.354343  0  4.023151  0  0  0.193004  0.329588  0  3.992797  0
C  C54  1  0.48931854  0.69569451  0.81231960  1  0  0.3578  0  3.748823  0  0  0.339236  0  4.005371  0  0  0.354162  0  4.023224  0  0  0.192878  0.329408  0  3.992875  0
C  C55  1  0.20637447  0.51068510  0.14564949  1  0  0.357731  0  3.749306  0  0  0.33921  0  4.005795  0  0  0.354137  0  4.023649  0  0  0.193002  0.329383  0  3.993295  0
C  C56  1  0.30430407  0.79361894  0.47899378  1  0  0.358074  0  3.748664  0  0  0.339475  0  4.005251  0  0  0.354399  0  4.023104  0  0  0.193052  0.329644  0  3.992751  0
C  C57  1  0.88089535  0.77345364  0.21303740  1  0  -0.028321  0  3.82459  0  0  -0.058033  0  4.082582  0  0  -0.056247  0  4.104494  0  0  -0.025608  -0.059175  0  4.067677  0
C  C58  1  0.22655238  0.10743900  0.87971009  1  0  -0.028325  0  3.824495  0  0  -0.058058  0  4.082517  0  0  -0.056268  0  4.104422  0  0  -0.025598  -0.059201  0  4.067623  0
C  C59  1  0.89255013  0.11910324  0.54636456  1  0  -0.028266  0  3.824721  0  0  -0.057954  0  4.082695  0  0  -0.056155  0  4.104595  0  0  -0.025582  -0.059102  0  4.067802  0
C  C60  1  0.77345191  0.88089498  0.78696180  1  0  -0.028314  0  3.824645  0  0  -0.058026  0  4.082641  0  0  -0.05624  0  4.104557  0  0  -0.025588  -0.059168  0  4.067737  0
C  C61  1  0.10744310  0.22655592  0.12029277  1  0  -0.028433  0  3.824571  0  0  -0.058184  0  4.082599  0  0  -0.056394  0  4.104504  0  0  -0.025691  -0.059326  0  4.067698  0
C  C62  1  0.11910229  0.89255018  0.45363465  1  0  -0.02832  0  3.82475  0  0  -0.058016  0  4.082737  0  0  -0.056213  0  4.104634  0  0  -0.025639  -0.05916  0  4.067835  0
C  C63  1  0.59412099  0.29120479  0.20075360  1  0  -0.158259  0  3.748067  0  0  -0.196579  0  4.001772  0  0  -0.198184  0  4.01222  0  0  -0.159117  -0.195403  0  3.994442  0
C  C64  1  0.70879923  0.30291511  0.86742534  1  0  -0.158288  0  3.748058  0  0  -0.196675  0  4.00181  0  0  -0.198284  0  4.012259  0  0  -0.159147  -0.195495  0  3.994475  0
C  C65  1  0.69708129  0.40587946  0.53408190  1  0  -0.158256  0  3.748125  0  0  -0.196578  0  4.001836  0  0  -0.198183  0  4.012288  0  0  -0.159116  -0.195391  0  3.994489  0
C  C66  1  0.29120323  0.59411821  0.79924576  1  0  -0.158323  0  3.74803  0  0  -0.196622  0  4.001724  0  0  -0.198229  0  4.012173  0  0  -0.159124  -0.195448  0  3.994399  0
C  C67  1  0.30291613  0.70880260  0.13257531  1  0  -0.158262  0  3.747954  0  0  -0.196645  0  4.001707  0  0  -0.198253  0  4.012158  0  0  -0.159164  -0.195476  0  3.994387  0
C  C68  1  0.40587957  0.69708073  0.46591864  1  0  -0.15821  0  3.747928  0  0  -0.196501  0  4.001652  0  0  -0.198105  0  4.012101  0  0  -0.159104  -0.195313  0  3.994302  0
C  C69  1  0.45682611  0.22890596  0.28279154  1  0  -0.273774  0  3.697828  0  0  -0.341926  0  3.933843  0  0  -0.344772  0  3.945067  0  0  -0.248181  -0.339702  0  3.926038  0
C  C70  1  0.77110086  0.22792275  0.94946288  1  0  -0.273775  0  3.697787  0  0  -0.341952  0  3.93385  0  0  -0.344801  0  3.945075  0  0  -0.248222  -0.339728  0  3.926044  0
C  C71  1  0.77207527  0.54316852  0.61612247  1  0  -0.273814  0  3.697994  0  0  -0.341952  0  3.934012  0  0  -0.344798  0  3.945236  0  0  -0.248158  -0.33973  0  3.926204  0
C  C72  1  0.22890490  0.45682456  0.71720732  1  0  -0.273838  0  3.697836  0  0  -0.342019  0  3.933873  0  0  -0.344861  0  3.945086  0  0  -0.248223  -0.339795  0  3.926069  0
C  C73  1  0.22792433  0.77110082  0.05053634  1  0  -0.273691  0  3.697699  0  0  -0.341868  0  3.933738  0  0  -0.344715  0  3.944961  0  0  -0.248164  -0.339641  0  3.925934  0
C  C74  1  0.54316981  0.77207513  0.38387711  1  0  -0.273862  0  3.69787  0  0  -0.341992  0  3.933891  0  0  -0.344833  0  3.945111  0  0  -0.248188  -0.339771  0  3.92608  0
N  N75  1  0.66630065  0.57750689  0.11620284  1  0  -0.46928  0  3.271537  0  0  -0.380386  0  3.545248  0  0  -0.403585  0  3.562706  0  0  -0.385929  -0.364592  0  3.532928  0
N  N76  1  0.42249702  0.08879060  0.78287703  1  0  -0.46907  0  3.271572  0  0  -0.380176  0  3.54528  0  0  -0.403376  0  3.562742  0  0  -0.385919  -0.364382  0  3.532957  0
N  N77  1  0.91120234  0.33369786  0.44953059  1  0  -0.469407  0  3.271492  0  0  -0.380514  0  3.545245  0  0  -0.403714  0  3.562703  0  0  -0.386042  -0.364718  0  3.532924  0
N  N78  1  0.57750549  0.66629675  0.88379539  1  0  -0.469206  0  3.271493  0  0  -0.3803  0  3.545212  0  0  -0.403499  0  3.562671  0  0  -0.385902  -0.364505  0  3.53289  0
N  N79  1  0.08879015  0.42249938  0.21712491  1  0  -0.469106  0  3.271642  0  0  -0.380213  0  3.545352  0  0  -0.403414  0  3.562815  0  0  -0.385943  -0.364417  0  3.533026  0
N  N80  1  0.33369918  0.91120115  0.55046980  1  0  -0.469383  0  3.27137  0  0  -0.380477  0  3.545133  0  0  -0.403676  0  3.562591  0  0  -0.386057  -0.364683  0  3.532816  0
N  N81  1  0.82526963  0.60408875  0.24814619  1  0  -0.480083  0  3.263137  0  0  -0.392703  0  3.539586  0  0  -0.415936  0  3.556197  0  0  -0.392153  -0.376877  0  3.527826  0
N  N82  1  0.39591557  0.22117809  0.91482010  1  0  -0.480135  0  3.263352  0  0  -0.392751  0  3.539758  0  0  -0.415985  0  3.556372  0  0  -0.392211  -0.376926  0  3.528001  0
N  N83  1  0.77881211  0.17472899  0.58147363  1  0  -0.480183  0  3.26326  0  0  -0.39275  0  3.539672  0  0  -0.415986  0  3.556287  0  0  -0.392166  -0.376925  0  3.527915  0
N  N84  1  0.60408802  0.82526974  0.75185327  1  0  -0.480067  0  3.263196  0  0  -0.392659  0  3.539619  0  0  -0.415893  0  3.556232  0  0  -0.392149  -0.376834  0  3.527864  0
N  N85  1  0.22118126  0.39591983  0.08518244  1  0  -0.480082  0  3.263327  0  0  -0.392659  0  3.539693  0  0  -0.415891  0  3.556305  0  0  -0.392178  -0.376831  0  3.527928  0
N  N86  1  0.17473154  0.77881320  0.41852637  1  0  -0.480248  0  3.26326  0  0  -0.392804  0  3.539666  0  0  -0.41604  0  3.55628  0  0  -0.392208  -0.376978  0  3.527907  0
