# generated using pymatgen
data_CuH7C5IN3
_symmetry_space_group_name_H-M   'P 1'
_cell_length_a   4.19923003
_cell_length_b   11.88058250
_cell_length_c   15.02577077
_cell_angle_alpha   90.00070933
_cell_angle_beta   99.15112746
_cell_angle_gamma   90.00005144
_symmetry_Int_Tables_number   1
_chemical_formula_structural   CuH7C5IN3
_chemical_formula_sum   'Cu4 H28 C20 I4 N12'
_cell_volume   740.08414958
_cell_formula_units_Z   4
loop_
 _symmetry_equiv_pos_site_id
 _symmetry_equiv_pos_as_xyz
  1  'x, y, z'
loop_
 _atom_site_type_symbol
 _atom_site_label
 _atom_site_symmetry_multiplicity
 _atom_site_fract_x
 _atom_site_fract_y
 _atom_site_fract_z
 _atom_site_occupancy
 _atom_site_hle17_bader_spin_density
 _atom_site_hle17_ddec_charge
 _atom_site_hle17_ddec_spin_density
 _atom_site_hle17_ddec_sum_bond_order
 _atom_site_hle17_magmom
 _atom_site_hse06_10hf_bader_spin_density
 _atom_site_hse06_10hf_ddec_charge
 _atom_site_hse06_10hf_ddec_spin_density
 _atom_site_hse06_10hf_ddec_sum_bond_order
 _atom_site_hse06_10hf_magmom
 _atom_site_hse06_bader_spin_density
 _atom_site_hse06_ddec_charge
 _atom_site_hse06_ddec_spin_density
 _atom_site_hse06_ddec_sum_bond_order
 _atom_site_hse06_magmom
 _atom_site_pbe_bader_spin_density
 _atom_site_pbe_cm5_charge
 _atom_site_pbe_ddec_charge
 _atom_site_pbe_ddec_spin_density
 _atom_site_pbe_ddec_sum_bond_order
 _atom_site_pbe_magmom
Cu  Cu0  1  0.71620881  0.03680703  0.07891233  1  0  0.282187  0  2.026043  0  0  0.196417  0  2.477131  0  0  0.211644  0  2.424052  0  0  0.255152  0.187265  0  2.51354  0
Cu  Cu1  1  0.28378900  0.53681545  0.42108844  1  0  0.282115  0  2.026069  0  0  0.196362  0  2.477118  0  0  0.211568  0  2.424066  0  0  0.255105  0.18721  0  2.513506  0
Cu  Cu2  1  0.28378829  0.96318487  0.92109041  1  0  0.282161  0  2.026081  0  0  0.196352  0  2.477171  0  0  0.211593  0  2.424085  0  0  0.25512  0.1872  0  2.513593  0
Cu  Cu3  1  0.71621267  0.46318992  0.57890915  1  0  0.282181  0  2.026077  0  0  0.19638  0  2.4772  0  0  0.211627  0  2.424072  0  0  0.255141  0.187211  0  2.513619  0
H  H4  1  0.42441670  0.84302555  0.35789548  1  0  0.113542  0  0.968457  0  0  0.122098  0  1.033355  0  0  0.125705  0  1.033135  0  0  0.092869  0.119435  0  1.033849  0
H  H5  1  0.57556386  0.34301808  0.14209957  1  0  0.113658  0  0.968261  0  0  0.122148  0  1.033233  0  0  0.125761  0  1.033006  0  0  0.092893  0.119524  0  1.033693  0
H  H6  1  0.57556816  0.15697645  0.64210277  1  0  0.113587  0  0.968502  0  0  0.122138  0  1.033408  0  0  0.125754  0  1.033178  0  0  0.092881  0.119518  0  1.033854  0
H  H7  1  0.42440402  0.65697298  0.85789598  1  0  0.113692  0  0.968331  0  0  0.122188  0  1.03329  0  0  0.125773  0  1.03309  0  0  0.092896  0.119556  0  1.03377  0
H  H8  1  0.71500255  0.97894744  0.47031430  1  0  0.081773  0  0.966339  0  0  0.096686  0  1.023914  0  0  0.098533  0  1.021616  0  0  0.100934  0.095305  0  1.025557  0
H  H9  1  0.28498421  0.47894482  0.02968898  1  0  0.081748  0  0.966419  0  0  0.096644  0  1.024013  0  0  0.098488  0  1.021725  0  0  0.100931  0.095269  0  1.025644  0
H  H10  1  0.28499214  0.02104867  0.52968834  1  0  0.081747  0  0.966416  0  0  0.096629  0  1.024037  0  0  0.09847  0  1.021751  0  0  0.10093  0.095248  0  1.02568  0
H  H11  1  0.71498132  0.52105045  0.97030781  1  0  0.081754  0  0.966297  0  0  0.096634  0  1.023913  0  0  0.098477  0  1.021626  0  0  0.100939  0.095264  0  1.025529  0
H  H12  1  0.01044970  0.14142817  0.41484913  1  0  0.107016  0  0.994281  0  0  0.115481  0  1.060994  0  0  0.11882  0  1.060916  0  0  0.084837  0.113104  0  1.061259  0
H  H13  1  0.98956588  0.64142984  0.08515471  1  0  0.10702  0  0.994415  0  0  0.115492  0  1.061116  0  0  0.118834  0  1.061033  0  0  0.084837  0.113118  0  1.06138  0
H  H14  1  0.98957158  0.85856541  0.58515592  1  0  0.107048  0  0.994364  0  0  0.115492  0  1.061109  0  0  0.118835  0  1.061028  0  0  0.084843  0.113125  0  1.061365  0
H  H15  1  0.01043103  0.35856879  0.91484402  1  0  0.106978  0  0.994357  0  0  0.115447  0  1.061077  0  0  0.11879  0  1.060995  0  0  0.08483  0.113079  0  1.061334  0
H  H16  1  0.07181953  0.17924685  0.17908622  1  0  0.291488  0  0.961316  0  0  0.274134  0  1.037401  0  0  0.281521  0  1.030495  0  0  0.263002  0.268862  0  1.042326  0
H  H17  1  0.92818667  0.67924971  0.32091694  1  0  0.291522  0  0.961214  0  0  0.27414  0  1.037313  0  0  0.281529  0  1.030402  0  0  0.263013  0.268872  0  1.042227  0
H  H18  1  0.92820165  0.82074926  0.82091684  1  0  0.29153  0  0.961354  0  0  0.274157  0  1.037409  0  0  0.281546  0  1.030499  0  0  0.263024  0.268892  0  1.042321  0
H  H19  1  0.07181266  0.32075145  0.67908189  1  0  0.291558  0  0.961266  0  0  0.274153  0  1.037364  0  0  0.281539  0  1.030454  0  0  0.26302  0.268888  0  1.042272  0
H  H20  1  0.21663826  0.22070025  0.28715696  1  0  0.311322  0  0.921238  0  0  0.296829  0  0.982945  0  0  0.303449  0  0.978531  0  0  0.29056  0.292173  0  0.986012  0
H  H21  1  0.78336824  0.72069797  0.21284595  1  0  0.311256  0  0.921335  0  0  0.296708  0  0.983087  0  0  0.303324  0  0.978684  0  0  0.290533  0.292053  0  0.986154  0
H  H22  1  0.78338305  0.77929923  0.71284876  1  0  0.311355  0  0.921311  0  0  0.296698  0  0.983207  0  0  0.303316  0  0.978803  0  0  0.290555  0.292044  0  0.986273  0
H  H23  1  0.21663103  0.27930319  0.78715155  1  0  0.311277  0  0.921364  0  0  0.296715  0  0.983129  0  0  0.30333  0  0.978723  0  0  0.290524  0.292059  0  0.986196  0
H  H24  1  0.37377847  0.87847056  0.11853501  1  0  0.284393  0  0.969662  0  0  0.264946  0  1.049868  0  0  0.273169  0  1.040875  0  0  0.258855  0.258737  0  1.056799  0
H  H25  1  0.62622397  0.37847448  0.38145928  1  0  0.284422  0  0.969579  0  0  0.264975  0  1.049784  0  0  0.273195  0  1.040793  0  0  0.258872  0.25877  0  1.056703  0
H  H26  1  0.62623053  0.12152807  0.88146488  1  0  0.284419  0  0.969606  0  0  0.264965  0  1.04983  0  0  0.273187  0  1.040836  0  0  0.258863  0.258756  0  1.056759  0
H  H27  1  0.37378234  0.62152921  0.61853452  1  0  0.284424  0  0.969613  0  0  0.264972  0  1.049833  0  0  0.273195  0  1.04084  0  0  0.258829  0.258762  0  1.056759  0
H  H28  1  0.25473120  0.80444792  0.20590211  1  0  0.308088  0  0.934765  0  0  0.293539  0  0.997251  0  0  0.29984  0  0.993349  0  0  0.289669  0.289145  0  0.99985  0
H  H29  1  0.74526377  0.30444882  0.29409848  1  0  0.308086  0  0.934787  0  0  0.293543  0  0.997255  0  0  0.299843  0  0.993358  0  0  0.289679  0.28915  0  0.999854  0
H  H30  1  0.74526822  0.19555408  0.79409873  1  0  0.30808  0  0.934741  0  0  0.29348  0  0.997286  0  0  0.299784  0  0.99338  0  0  0.289676  0.289087  0  0.999884  0
H  H31  1  0.25473320  0.69555571  0.70590159  1  0  0.308099  0  0.934693  0  0  0.293501  0  0.997226  0  0  0.299803  0  0.993325  0  0  0.289636  0.289108  0  0.999823  0
C  C32  1  0.57273593  0.92963323  0.24516411  1  0  0.486175  0  3.796607  0  0  0.461662  0  4.051648  0  0  0.481916  0  4.064984  0  0  0.210571  0.448078  0  4.042413  0
C  C33  1  0.42726466  0.42963086  0.25483393  1  0  0.486315  0  3.796627  0  0  0.461735  0  4.051758  0  0  0.482008  0  4.065056  0  0  0.210615  0.44815  0  4.04253  0
C  C34  1  0.42726336  0.07037045  0.75483406  1  0  0.486351  0  3.796273  0  0  0.461731  0  4.051409  0  0  0.482022  0  4.064708  0  0  0.210604  0.448146  0  4.042183  0
C  C35  1  0.57273469  0.57036861  0.74516557  1  0  0.486368  0  3.796429  0  0  0.461738  0  4.051591  0  0  0.482012  0  4.064896  0  0  0.210604  0.448156  0  4.042356  0
C  C36  1  0.88729004  0.09118222  0.27575695  1  0  0.48133  0  3.810952  0  0  0.456653  0  4.06608  0  0  0.477039  0  4.079619  0  0  0.212438  0.443051  0  4.056655  0
C  C37  1  0.11270811  0.59118241  0.22424237  1  0  0.481287  0  3.810887  0  0  0.456605  0  4.066042  0  0  0.476985  0  4.07957  0  0  0.212443  0.443003  0  4.056617  0
C  C38  1  0.11271433  0.90881557  0.72424675  1  0  0.481401  0  3.810674  0  0  0.456608  0  4.065906  0  0  0.477007  0  4.07944  0  0  0.212404  0.443005  0  4.056484  0
C  C39  1  0.88729106  0.40881875  0.77575313  1  0  0.481494  0  3.810678  0  0  0.456648  0  4.066025  0  0  0.477033  0  4.079558  0  0  0.21247  0.443046  0  4.056596  0
C  C40  1  0.56030965  0.91356151  0.33701161  1  0  -0.275537  0  3.747446  0  0  -0.292527  0  4.002417  0  0  -0.306841  0  4.023913  0  0  -0.129367  -0.283333  0  3.988168  0
C  C41  1  0.43968117  0.41355853  0.16298587  1  0  -0.275788  0  3.747417  0  0  -0.292696  0  4.002436  0  0  -0.307028  0  4.023926  0  0  -0.129451  -0.283545  0  3.988161  0
C  C42  1  0.43967758  0.08644301  0.66298606  1  0  -0.2757  0  3.747646  0  0  -0.292671  0  4.002665  0  0  -0.307  0  4.02414  0  0  -0.129419  -0.283515  0  3.988389  0
C  C43  1  0.56030368  0.58644178  0.83701237  1  0  -0.275774  0  3.747404  0  0  -0.292694  0  4.002461  0  0  -0.306992  0  4.023961  0  0  -0.129419  -0.283546  0  3.988186  0
C  C44  1  0.72006830  0.98953053  0.39857044  1  0  0.025198  0  3.829784  0  0  0.004933  0  4.083226  0  0  0.015754  0  4.098418  0  0  -0.083841  -0.001874  0  4.072658  0
C  C45  1  0.27992334  0.48953493  0.10143247  1  0  0.025305  0  3.829891  0  0  0.005068  0  4.083325  0  0  0.015887  0  4.098517  0  0  -0.083814  -0.001743  0  4.072778  0
C  C46  1  0.27993841  0.01046642  0.60143202  1  0  0.025256  0  3.830043  0  0  0.005015  0  4.083507  0  0  0.015837  0  4.098699  0  0  -0.083803  -0.001793  0  4.072951  0
C  C47  1  0.72006155  0.51047128  0.89856644  1  0  0.025202  0  3.829799  0  0  0.004982  0  4.083238  0  0  0.015803  0  4.098423  0  0  -0.083876  -0.001824  0  4.072687  0
C  C48  1  0.88504497  0.07947814  0.36860182  1  0  -0.284114  0  3.758825  0  0  -0.300495  0  4.015446  0  0  -0.314754  0  4.036159  0  0  -0.129632  -0.291412  0  4.001732  0
C  C49  1  0.11495555  0.57948191  0.13139881  1  0  -0.284147  0  3.759024  0  0  -0.300548  0  4.015676  0  0  -0.314802  0  4.03638  0  0  -0.129637  -0.291472  0  4.001964  0
C  C50  1  0.11497383  0.92051797  0.63140180  1  0  -0.284208  0  3.758964  0  0  -0.300569  0  4.015651  0  0  -0.314824  0  4.036353  0  0  -0.129672  -0.291495  0  4.001928  0
C  C51  1  0.88502683  0.42052178  0.86859800  1  0  -0.284142  0  3.758827  0  0  -0.300498  0  4.015529  0  0  -0.314751  0  4.036233  0  0  -0.129641  -0.291427  0  4.001808  0
I  I52  1  0.19060891  0.15085219  0.01629470  1  0  -0.383366  0  1.809776  0  0  -0.317393  0  2.265316  0  0  -0.331891  0  2.217809  0  0  -0.146202  -0.307414  0  2.299354  0
I  I53  1  0.80939700  0.65085422  0.48370684  1  0  -0.383347  0  1.809878  0  0  -0.317384  0  2.265438  0  0  -0.331884  0  2.217937  0  0  -0.146197  -0.307406  0  2.299447  0
I  I54  1  0.80939780  0.84914391  0.98370776  1  0  -0.383354  0  1.809809  0  0  -0.317399  0  2.265365  0  0  -0.331897  0  2.217854  0  0  -0.146203  -0.307421  0  2.299409  0
I  I55  1  0.19060477  0.34914778  0.51629276  1  0  -0.383382  0  1.809817  0  0  -0.317418  0  2.26537  0  0  -0.3319  0  2.217819  0  0  -0.146223  -0.307437  0  2.299383  0
N  N56  1  0.73415669  0.01713483  0.21394921  1  0  -0.479166  0  3.185929  0  0  -0.401778  0  3.465765  0  0  -0.423438  0  3.470333  0  0  -0.375958  -0.387612  0  3.462438  0
N  N57  1  0.26584804  0.51713352  0.28604832  1  0  -0.479125  0  3.185731  0  0  -0.401726  0  3.465611  0  0  -0.423365  0  3.470139  0  0  -0.375947  -0.387557  0  3.462271  0
N  N58  1  0.26586209  0.98286549  0.78605374  1  0  -0.479262  0  3.185648  0  0  -0.401688  0  3.465429  0  0  -0.423396  0  3.47002  0  0  -0.375929  -0.387522  0  3.462105  0
N  N59  1  0.73415109  0.48286848  0.71394651  1  0  -0.479297  0  3.185823  0  0  -0.401776  0  3.465716  0  0  -0.423437  0  3.470271  0  0  -0.376041  -0.387608  0  3.462371  0
N  N60  1  0.03161156  0.18370674  0.24436276  1  0  -0.670009  0  3.10945  0  0  -0.629074  0  3.333161  0  0  -0.648758  0  3.329477  0  0  -0.592728  -0.615245  0  3.335328  0
N  N61  1  0.96839223  0.68370773  0.25563968  1  0  -0.669936  0  3.109314  0  0  -0.628898  0  3.333146  0  0  -0.648596  0  3.329501  0  0  -0.592705  -0.615073  0  3.335306  0
N  N62  1  0.96840248  0.81629021  0.75564200  1  0  -0.670032  0  3.109529  0  0  -0.628878  0  3.333448  0  0  -0.648579  0  3.329807  0  0  -0.592697  -0.615052  0  3.33561  0
N  N63  1  0.03160941  0.31629342  0.74435725  1  0  -0.670026  0  3.109377  0  0  -0.628889  0  3.333266  0  0  -0.648606  0  3.329663  0  0  -0.592677  -0.615065  0  3.335425  0
N  N64  1  0.42989805  0.85200100  0.18375870  1  0  -0.680323  0  3.132626  0  0  -0.642102  0  3.362328  0  0  -0.661692  0  3.358198  0  0  -0.601149  -0.628255  0  3.36506  0
N  N65  1  0.57010431  0.35200303  0.31623800  1  0  -0.680369  0  3.132667  0  0  -0.642128  0  3.362392  0  0  -0.661733  0  3.35826  0  0  -0.601161  -0.628284  0  3.365119  0
N  N66  1  0.57010613  0.14800015  0.81624100  1  0  -0.680376  0  3.132485  0  0  -0.642094  0  3.362309  0  0  -0.661686  0  3.358157  0  0  -0.601174  -0.62825  0  3.36504  0
N  N67  1  0.42990222  0.64800150  0.68376047  1  0  -0.680425  0  3.132426  0  0  -0.642093  0  3.362218  0  0  -0.661694  0  3.358086  0  0  -0.601035  -0.628245  0  3.36494  0
