# generated using pymatgen
data_KH5(C2O3)2
_symmetry_space_group_name_H-M   'P 1'
_cell_length_a   7.61383400
_cell_length_b   7.72518010
_cell_length_c   11.17261978
_cell_angle_alpha   89.99971429
_cell_angle_beta   102.36373575
_cell_angle_gamma   90.00037220
_symmetry_Int_Tables_number   1
_chemical_formula_structural   KH5(C2O3)2
_chemical_formula_sum   'K4 H20 C16 O24'
_cell_volume   641.91310465
_cell_formula_units_Z   4
loop_
 _symmetry_equiv_pos_site_id
 _symmetry_equiv_pos_as_xyz
  1  'x, y, z'
loop_
 _atom_site_type_symbol
 _atom_site_label
 _atom_site_symmetry_multiplicity
 _atom_site_fract_x
 _atom_site_fract_y
 _atom_site_fract_z
 _atom_site_occupancy
 _atom_site_hle17_bader_spin_density
 _atom_site_hle17_ddec_charge
 _atom_site_hle17_ddec_spin_density
 _atom_site_hle17_ddec_sum_bond_order
 _atom_site_hle17_magmom
 _atom_site_hse06_10hf_bader_spin_density
 _atom_site_hse06_10hf_ddec_charge
 _atom_site_hse06_10hf_ddec_spin_density
 _atom_site_hse06_10hf_ddec_sum_bond_order
 _atom_site_hse06_10hf_magmom
 _atom_site_hse06_bader_spin_density
 _atom_site_hse06_ddec_charge
 _atom_site_hse06_ddec_spin_density
 _atom_site_hse06_ddec_sum_bond_order
 _atom_site_hse06_magmom
 _atom_site_pbe_bader_spin_density
 _atom_site_pbe_cm5_charge
 _atom_site_pbe_ddec_charge
 _atom_site_pbe_ddec_spin_density
 _atom_site_pbe_ddec_sum_bond_order
 _atom_site_pbe_magmom
K  K0  1  0.77368764  0.07433282  0.52763911  1  0  0.935591  0  0.442118  0  0  0.884792  0  0.626707  0  0  0.900518  0  0.602711  0  0  0.754382  0.873122  0  0.643773  0
K  K1  1  0.22630555  0.57433981  0.97235896  1  0  0.935589  0  0.442117  0  0  0.884803  0  0.626708  0  0  0.90052  0  0.602721  0  0  0.754389  0.87313  0  0.643775  0
K  K2  1  0.22631588  0.92566676  0.47235873  1  0  0.935589  0  0.442112  0  0  0.884795  0  0.626693  0  0  0.900524  0  0.602693  0  0  0.754372  0.873126  0  0.643759  0
K  K3  1  0.77369798  0.42565976  0.02764067  1  0  0.935596  0  0.442095  0  0  0.884796  0  0.626702  0  0  0.900499  0  0.602741  0  0  0.754392  0.873122  0  0.643767  0
H  H4  1  0.71897787  0.42124298  0.35383604  1  0  0.393964  0  0.905573  0  0  0.360013  0  0.986859  0  0  0.373552  0  0.973133  0  0  0.302963  0.350564  0  0.996326  0
H  H5  1  0.28102251  0.92124621  0.14616144  1  0  0.393941  0  0.905612  0  0  0.359989  0  0.98689  0  0  0.373528  0  0.973165  0  0  0.302961  0.350538  0  0.996359  0
H  H6  1  0.28101895  0.57875530  0.64616799  1  0  0.393951  0  0.90568  0  0  0.360103  0  0.986771  0  0  0.373645  0  0.973044  0  0  0.302986  0.350652  0  0.996238  0
H  H7  1  0.71897832  0.07875466  0.85383692  1  0  0.393944  0  0.9056  0  0  0.359986  0  0.986896  0  0  0.373526  0  0.97317  0  0  0.302957  0.350537  0  0.996363  0
H  H8  1  0.30395284  0.43639435  0.45156342  1  0  0.090794  0  0.904745  0  0  0.099241  0  0.963565  0  0  0.101439  0  0.961951  0  0  0.12778  0.097614  0  0.964906  0
H  H9  1  0.69604764  0.93639575  0.04843581  1  0  0.090744  0  0.904778  0  0  0.099176  0  0.963625  0  0  0.101373  0  0.962012  0  0  0.127773  0.097549  0  0.964965  0
H  H10  1  0.69604801  0.56360523  0.54843851  1  0  0.090776  0  0.904777  0  0  0.09922  0  0.963606  0  0  0.101417  0  0.961993  0  0  0.127791  0.097594  0  0.964946  0
H  H11  1  0.30395185  0.06360641  0.95156324  1  0  0.090785  0  0.904743  0  0  0.099232  0  0.963567  0  0  0.101429  0  0.961953  0  0  0.127787  0.097605  0  0.964905  0
H  H12  1  0.30004779  0.20278477  0.30599289  1  0  0.071757  0  0.951976  0  0  0.074221  0  1.024635  0  0  0.077383  0  1.021598  0  0  0.120524  0.071871  0  1.026967  0
H  H13  1  0.69994596  0.70278645  0.19400617  1  0  0.071782  0  0.951954  0  0  0.074241  0  1.024595  0  0  0.077403  0  1.021558  0  0  0.120524  0.071888  0  1.026927  0
H  H14  1  0.69994902  0.79721221  0.69400846  1  0  0.071771  0  0.951976  0  0  0.074233  0  1.02462  0  0  0.077392  0  1.021587  0  0  0.120517  0.071883  0  1.02695  0
H  H15  1  0.30005219  0.29721442  0.80599269  1  0  0.071744  0  0.951971  0  0  0.074214  0  1.024625  0  0  0.077369  0  1.021595  0  0  0.120502  0.071875  0  1.026944  0
H  H16  1  0.11812550  0.21518450  0.13904843  1  0  0.377515  0  0.913874  0  0  0.348974  0  0.995053  0  0  0.359786  0  0.982434  0  0  0.30022  0.341302  0  1.004021  0
H  H17  1  0.88187101  0.71518484  0.36095098  1  0  0.377472  0  0.913923  0  0  0.348923  0  0.995132  0  0  0.359734  0  0.982513  0  0  0.300173  0.341251  0  1.004103  0
H  H18  1  0.88187668  0.78481507  0.86095101  1  0  0.377533  0  0.913839  0  0  0.348992  0  0.995021  0  0  0.359804  0  0.982403  0  0  0.300224  0.341322  0  1.003989  0
H  H19  1  0.11812579  0.28481344  0.63904858  1  0  0.377438  0  0.913964  0  0  0.348885  0  0.99518  0  0  0.359697  0  0.982561  0  0  0.300157  0.341216  0  1.004145  0
H  H20  1  0.13460968  0.64619677  0.24814996  1  0  0.370941  0  0.90913  0  0  0.348212  0  0.982038  0  0  0.357895  0  0.970998  0  0  0.302273  0.341345  0  0.989911  0
H  H21  1  0.86539046  0.14619651  0.25184932  1  0  0.370943  0  0.909151  0  0  0.348232  0  0.982017  0  0  0.357916  0  0.970975  0  0  0.30228  0.341365  0  0.98989  0
H  H22  1  0.86539250  0.35380022  0.75185038  1  0  0.370936  0  0.909219  0  0  0.348239  0  0.982056  0  0  0.357924  0  0.971011  0  0  0.302277  0.341371  0  0.98993  0
H  H23  1  0.13461038  0.85380436  0.74814992  1  0  0.370982  0  0.909158  0  0  0.348272  0  0.982013  0  0  0.357956  0  0.970971  0  0  0.302281  0.341405  0  0.989888  0
C  C24  1  0.02692604  0.38411536  0.36973930  1  0  0.658104  0  3.827634  0  0  0.600297  0  4.141774  0  0  0.633823  0  4.132503  0  0  0.22032  0.577519  0  4.147463  0
C  C25  1  0.97307011  0.88411407  0.13026037  1  0  0.65798  0  3.827779  0  0  0.600217  0  4.14185  0  0  0.633741  0  4.132579  0  0  0.220276  0.577434  0  4.147543  0
C  C26  1  0.97307212  0.61588162  0.63026134  1  0  0.65803  0  3.827678  0  0  0.600207  0  4.141859  0  0  0.633732  0  4.132591  0  0  0.220285  0.577432  0  4.147547  0
C  C27  1  0.02692938  0.11588680  0.86973957  1  0  0.65804  0  3.827715  0  0  0.600197  0  4.141909  0  0  0.633721  0  4.132638  0  0  0.22026  0.577419  0  4.147596  0
C  C28  1  0.21397841  0.45108013  0.36092795  1  0  0.06181  0  3.647937  0  0  0.03716  0  3.903563  0  0  0.038573  0  3.909742  0  0  -0.001184  0.03607  0  3.8994  0
C  C29  1  0.78602215  0.95108016  0.13906945  1  0  0.061954  0  3.647793  0  0  0.037262  0  3.903426  0  0  0.038679  0  3.9096  0  0  -0.001175  0.036171  0  3.899263  0
C  C30  1  0.78602109  0.54891815  0.63907289  1  0  0.061898  0  3.647815  0  0  0.037217  0  3.903483  0  0  0.038636  0  3.90965  0  0  -0.001211  0.036127  0  3.899315  0
C  C31  1  0.21397868  0.04892200  0.86092801  1  0  0.061886  0  3.647841  0  0  0.037224  0  3.903479  0  0  0.038644  0  3.909648  0  0  -0.001197  0.036133  0  3.899314  0
C  C32  1  0.28418387  0.33503808  0.26893109  1  0  0.05282  0  3.664193  0  0  0.030262  0  3.908451  0  0  0.031189  0  3.915061  0  0  -0.004144  0.029627  0  3.904022  0
C  C33  1  0.71581333  0.83504089  0.23106712  1  0  0.052788  0  3.664066  0  0  0.030299  0  3.908255  0  0  0.031224  0  3.91486  0  0  -0.004143  0.029673  0  3.903829  0
C  C34  1  0.71581563  0.66496020  0.73107065  1  0  0.052811  0  3.664217  0  0  0.030293  0  3.908397  0  0  0.031221  0  3.915005  0  0  -0.004096  0.02966  0  3.903966  0
C  C35  1  0.28418750  0.16496128  0.76892944  1  0  0.052818  0  3.664184  0  0  0.030294  0  3.908393  0  0  0.031224  0  3.915  0  0  -0.004092  0.029656  0  3.903962  0
C  C36  1  0.47073792  0.39452730  0.25723818  1  0  0.686049  0  3.733843  0  0  0.638827  0  4.034409  0  0  0.671598  0  4.02401  0  0  0.24058  0.616361  0  4.041213  0
C  C37  1  0.52926231  0.89453530  0.24275937  1  0  0.68619  0  3.733722  0  0  0.638903  0  4.034363  0  0  0.671677  0  4.023959  0  0  0.240586  0.61642  0  4.041194  0
C  C38  1  0.52926159  0.60547098  0.74276625  1  0  0.685958  0  3.734006  0  0  0.638746  0  4.034555  0  0  0.671518  0  4.024155  0  0  0.24046  0.616282  0  4.041356  0
C  C39  1  0.47073852  0.10546816  0.75723898  1  0  0.686194  0  3.733775  0  0  0.638939  0  4.034385  0  0  0.671712  0  4.02398  0  0  0.240614  0.616462  0  4.041209  0
O  O40  1  0.89728892  0.49343086  0.35432657  1  0  -0.62503  0  2.072804  0  0  -0.555888  0  2.300036  0  0  -0.582848  0  2.290289  0  0  -0.298974  -0.537231  0  2.306385  0
O  O41  1  0.10271054  0.99342389  0.14567321  1  0  -0.624942  0  2.072871  0  0  -0.555825  0  2.300087  0  0  -0.582788  0  2.290343  0  0  -0.298923  -0.537153  0  2.306426  0
O  O42  1  0.10270923  0.50657001  0.64567498  1  0  -0.624945  0  2.072814  0  0  -0.55587  0  2.300042  0  0  -0.582832  0  2.290299  0  0  -0.298937  -0.537219  0  2.306397  0
O  O43  1  0.89728895  0.00657309  0.85432763  1  0  -0.624979  0  2.072805  0  0  -0.555834  0  2.300069  0  0  -0.582796  0  2.290326  0  0  -0.298924  -0.537177  0  2.306416  0
O  O44  1  0.00949195  0.22434939  0.38813019  1  0  -0.689214  0  2.005167  0  0  -0.644075  0  2.255661  0  0  -0.66776  0  2.245186  0  0  -0.403109  -0.627462  0  2.262433  0
O  O45  1  0.99050194  0.72434575  0.11187240  1  0  -0.689211  0  2.00521  0  0  -0.644068  0  2.255675  0  0  -0.667752  0  2.2452  0  0  -0.403112  -0.627456  0  2.262451  0
O  O46  1  0.99050889  0.77564889  0.61186995  1  0  -0.689214  0  2.005163  0  0  -0.644066  0  2.255672  0  0  -0.66775  0  2.245197  0  0  -0.403107  -0.627453  0  2.262443  0
O  O47  1  0.00949487  0.27565253  0.88812716  1  0  -0.689231  0  2.005275  0  0  -0.644077  0  2.255787  0  0  -0.667763  0  2.24531  0  0  -0.403103  -0.627467  0  2.262557  0
O  O48  1  0.21592117  0.62852206  0.32950941  1  0  -0.574715  0  2.086779  0  0  -0.536017  0  2.313342  0  0  -0.549987  0  2.302142  0  0  -0.456305  -0.526045  0  2.321065  0
O  O49  1  0.78408021  0.12852317  0.17048922  1  0  -0.574765  0  2.086744  0  0  -0.536041  0  2.313275  0  0  -0.55001  0  2.302072  0  0  -0.456326  -0.526071  0  2.320998  0
O  O50  1  0.78407967  0.37147363  0.67049073  1  0  -0.574716  0  2.086788  0  0  -0.536009  0  2.313299  0  0  -0.549978  0  2.302093  0  0  -0.456281  -0.526038  0  2.321022  0
O  O51  1  0.21591794  0.87147641  0.82951054  1  0  -0.574808  0  2.086749  0  0  -0.536097  0  2.313286  0  0  -0.550066  0  2.30208  0  0  -0.456334  -0.526125  0  2.32101  0
O  O52  1  0.16142343  0.33654875  0.15363651  1  0  -0.605127  0  2.1205  0  0  -0.567021  0  2.358884  0  0  -0.581586  0  2.34686  0  0  -0.468695  -0.556589  0  2.367095  0
O  O53  1  0.83857379  0.83655021  0.34636438  1  0  -0.605109  0  2.120466  0  0  -0.566995  0  2.358779  0  0  -0.581582  0  2.3468  0  0  -0.468637  -0.556563  0  2.366989  0
O  O54  1  0.83857742  0.66345082  0.84636542  1  0  -0.605147  0  2.12047  0  0  -0.567044  0  2.358824  0  0  -0.581618  0  2.346819  0  0  -0.468712  -0.556613  0  2.367034  0
O  O55  1  0.16142704  0.16344936  0.65363487  1  0  -0.605057  0  2.120547  0  0  -0.566932  0  2.358865  0  0  -0.581521  0  2.34689  0  0  -0.468615  -0.5565  0  2.367077  0
O  O56  1  0.50388766  0.45348301  0.16170644  1  0  -0.633775  0  1.96289  0  0  -0.594652  0  2.19487  0  0  -0.615942  0  2.184511  0  0  -0.395398  -0.579944  0  2.201801  0
O  O57  1  0.49611426  0.95349658  0.33828936  1  0  -0.633861  0  1.962859  0  0  -0.594691  0  2.194818  0  0  -0.615985  0  2.184456  0  0  -0.395434  -0.579981  0  2.201762  0
O  O58  1  0.49611320  0.54651527  0.83829818  1  0  -0.633682  0  1.963027  0  0  -0.594568  0  2.195007  0  0  -0.615859  0  2.184644  0  0  -0.3953  -0.579864  0  2.20194  0
O  O59  1  0.50388927  0.04651205  0.66170938  1  0  -0.633886  0  1.962878  0  0  -0.594745  0  2.194856  0  0  -0.616038  0  2.184494  0  0  -0.395468  -0.580037  0  2.201797  0
O  O60  1  0.59070896  0.37592839  0.36127275  1  0  -0.571489  0  2.089022  0  0  -0.524388  0  2.318423  0  0  -0.547653  0  2.303606  0  0  -0.341236  -0.508165  0  2.328222  0
O  O61  1  0.40928982  0.87593378  0.13872555  1  0  -0.571488  0  2.08902  0  0  -0.524371  0  2.318437  0  0  -0.547636  0  2.303621  0  0  -0.341211  -0.508141  0  2.328246  0
O  O62  1  0.40928920  0.62407118  0.63873148  1  0  -0.571526  0  2.089056  0  0  -0.524482  0  2.318343  0  0  -0.54775  0  2.303528  0  0  -0.341264  -0.508254  0  2.328141  0
O  O63  1  0.59070968  0.12406967  0.86127440  1  0  -0.571485  0  2.089051  0  0  -0.524375  0  2.318463  0  0  -0.547637  0  2.303645  0  0  -0.341219  -0.508147  0  2.328265  0
