# generated using pymatgen
data_CuH10C4(ClO2)2
_symmetry_space_group_name_H-M   'P 1'
_cell_length_a   7.11904217
_cell_length_b   8.18851785
_cell_length_c   8.48548649
_cell_angle_alpha   75.79688384
_cell_angle_beta   65.19559897
_cell_angle_gamma   64.25586503
_symmetry_Int_Tables_number   1
_chemical_formula_structural   CuH10C4(ClO2)2
_chemical_formula_sum   'Cu2 H20 C8 Cl4 O8'
_cell_volume   403.24556902
_cell_formula_units_Z   2
loop_
 _symmetry_equiv_pos_site_id
 _symmetry_equiv_pos_as_xyz
  1  'x, y, z'
loop_
 _atom_site_type_symbol
 _atom_site_label
 _atom_site_symmetry_multiplicity
 _atom_site_fract_x
 _atom_site_fract_y
 _atom_site_fract_z
 _atom_site_occupancy
 _atom_site_pbe_cm5_charge
 _atom_site_pbe_ddec_charge
 _atom_site_pbe_ddec_spin_density
 _atom_site_pbe_ddec_sum_bond_order
 _atom_site_pbe_magmom
Cu  Cu0  1  0.67029354  0.24993736  0.75001414  1  0.594056  0.837985  -0.722078  2.192991  -0.567
Cu  Cu1  1  0.32970789  0.75005992  0.24998479  1  0.594055  0.837969  -0.722079  2.192993  -0.567
H  H2  1  0.93867443  0.83111809  0.07281564  1  0.106223  0.071636  -0.000142  0.985225  0.0
H  H3  1  0.15741990  0.33100714  0.57259322  1  0.105771  0.071336  -0.000141  0.984555  0.0
H  H4  1  0.06132818  0.16888869  0.92718004  1  0.106194  0.071588  -0.000141  0.985195  0.0
H  H5  1  0.84257650  0.66899561  0.42740934  1  0.105779  0.071325  -0.000141  0.984578  0.0
H  H6  1  0.20812695  0.82149629  0.76131521  1  0.096806  0.080848  -0.002528  1.022474  -0.003
H  H7  1  0.20858076  0.32169187  0.26120459  1  0.096665  0.080265  -0.00253  1.023818  -0.003
H  H8  1  0.79187790  0.17849827  0.23868331  1  0.09682  0.080848  -0.002528  1.02252  -0.003
H  H9  1  0.79141526  0.67830952  0.73879755  1  0.096655  0.080257  -0.00253  1.023798  -0.003
H  H10  1  0.94144365  0.83271276  0.78371085  1  0.089674  0.066893  -0.000805  1.031027  -0.001
H  H11  1  0.44184505  0.33286847  0.28332651  1  0.089213  0.065581  -0.000808  1.031536  -0.001
H  H12  1  0.05856020  0.16728179  0.21628712  1  0.089675  0.066941  -0.000805  1.031006  -0.001
H  H13  1  0.55815524  0.66713021  0.71667746  1  0.089218  0.065585  -0.000808  1.031606  -0.001
H  H14  1  0.60524125  0.03128865  0.11769731  1  0.275673  0.335413  0.000307  0.998658  0.0
H  H15  1  0.24603106  0.53112641  0.61756115  1  0.275521  0.335387  0.000307  0.998296  0.0
H  H16  1  0.39476284  0.96871268  0.88229828  1  0.27565  0.335367  0.000307  0.998657  0.0
H  H17  1  0.75396777  0.46887362  0.38244045  1  0.275496  0.335395  0.000307  0.998303  0.0
H  H18  1  0.10116723  0.04608492  0.56792741  1  0.283147  0.341801  -0.000531  0.968843  -0.001
H  H19  1  0.28463652  0.54631104  0.06780346  1  0.282457  0.341406  -0.000529  0.969663  -0.001
H  H20  1  0.89883437  0.95391235  0.43206980  1  0.283142  0.341833  -0.000531  0.968847  -0.001
H  H21  1  0.71536332  0.45368899  0.93219868  1  0.282446  0.341389  -0.000529  0.969676  -0.001
C  C22  1  0.93375952  0.95551719  0.98521100  1  -0.015801  0.137497  -1.6e-05  3.828878  0.0
C  C23  1  0.12549812  0.45549064  0.48510716  1  -0.014509  0.139554  -1.8e-05  3.82408  0.0
C  C24  1  0.06624735  0.04447737  0.01478859  1  -0.015833  0.13744  -1.6e-05  3.828988  0.0
C  C25  1  0.87449908  0.54451074  0.51489379  1  -0.014518  0.139579  -1.8e-05  3.824002  0.0
C  C26  1  0.02936058  0.90617892  0.79936806  1  -0.092772  -0.011869  -0.001927  3.887634  -0.001
C  C27  1  0.26484431  0.40630345  0.29913477  1  -0.091584  -0.008712  -0.001916  3.884588  -0.001
C  C28  1  0.97063902  0.09382384  0.20063440  1  -0.092769  -0.0119  -0.001927  3.887642  -0.001
C  C29  1  0.73515074  0.59369934  0.70087069  1  -0.09157  -0.008685  -0.001916  3.884523  -0.001
Cl  Cl30  1  0.30588977  0.43112009  0.86007307  1  -0.235007  -0.455399  -0.089681  1.309606  -0.109
Cl  Cl31  1  0.40295541  0.93118237  0.36018239  1  -0.2349  -0.455389  -0.089798  1.309105  -0.109
Cl  Cl32  1  0.69411132  0.56887722  0.13992930  1  -0.235008  -0.455389  -0.089681  1.309612  -0.109
Cl  Cl33  1  0.59704415  0.06881899  0.63981621  1  -0.234897  -0.455384  -0.089798  1.309131  -0.109
O  O34  1  0.70669073  0.08327962  0.02103602  1  -0.405325  -0.530983  -0.000149  2.372915  -0.001
O  O35  1  0.18927588  0.58312706  0.52091121  1  -0.406212  -0.533355  -0.000159  2.372427  -0.001
O  O36  1  0.29330893  0.91672444  0.97895945  1  -0.405281  -0.530901  -0.000149  2.373007  -0.001
O  O37  1  0.81071553  0.41687707  0.47909253  1  -0.406178  -0.533341  -0.000159  2.372391  -0.001
O  O38  1  0.99947456  0.07423588  0.68953264  1  -0.39987  -0.454753  -0.043373  2.520649  -0.06
O  O39  1  0.23636727  0.57445763  0.18943655  1  -0.399217  -0.455137  -0.043486  2.519553  -0.061
O  O40  1  0.00052423  0.92576275  0.31046510  1  -0.399859  -0.454767  -0.043373  2.520554  -0.06
O  O41  1  0.76363374  0.42554240  0.81056441  1  -0.399222  -0.455152  -0.043485  2.519505  -0.061
