# generated using pymatgen
data_ZnH2C19N4(OF)4
_symmetry_space_group_name_H-M   'P 1'
_cell_length_a   9.56252311
_cell_length_b   10.97336204
_cell_length_c   13.83306322
_cell_angle_alpha   83.98760742
_cell_angle_beta   97.35362397
_cell_angle_gamma   96.55095093
_symmetry_Int_Tables_number   1
_chemical_formula_structural   ZnH2C19N4(OF)4
_chemical_formula_sum   'Zn2 H4 C38 N8 O8 F8'
_cell_volume   1424.20910200
_cell_formula_units_Z   2
loop_
 _symmetry_equiv_pos_site_id
 _symmetry_equiv_pos_as_xyz
  1  'x, y, z'
loop_
 _atom_site_type_symbol
 _atom_site_label
 _atom_site_symmetry_multiplicity
 _atom_site_fract_x
 _atom_site_fract_y
 _atom_site_fract_z
 _atom_site_occupancy
 _atom_site_pbe_bader_charge
 _atom_site_pbe_bader_spin_density
 _atom_site_pbe_cm5_charge
 _atom_site_pbe_ddec_charge
 _atom_site_pbe_ddec_spin_density
 _atom_site_pbe_ddec_sum_bond_order
 _atom_site_pbe_magmom
Zn  Zn0  1  0.86108614  0.47965794  0.52316354  1  1.292245  0  0.681942  0.830673  0  2.426675  0
Zn  Zn1  1  0.13891192  0.52034783  0.47683115  1  1.292516  0  0.682063  0.830781  0  2.426395  0
H  H2  1  0.06415283  0.09565581  0.65775564  1  0.095758  0  0.123292  0.152022  0  0.958634  0
H  H3  1  0.93585567  0.90434856  0.34225207  1  0.095815  0  0.123306  0.152074  0  0.958719  0
H  H4  1  0.32814215  0.39862459  0.37936742  1  0.230243  0  0.14663  0.143955  0  0.97118  0
H  H5  1  0.67185718  0.60137369  0.62064297  1  0.230158  0  0.146696  0.143975  0  0.971281  0
C  C6  1  0.99863492  0.73560486  0.49873138  1  1.602142  0  0.227808  0.635488  0  4.143443  0
C  C7  1  0.00138808  0.26439975  0.50126950  1  1.602553  0  0.227724  0.635335  0  4.143707  0
C  C8  1  0.43603909  0.54035121  0.11244032  1  0.524816  0  0.10722  0.153723  0  4.044815  0
C  C9  1  0.56397164  0.45963505  0.88755390  1  0.525246  0  0.107226  0.153935  0  4.045033  0
C  C10  1  0.30920545  0.58532596  0.07704979  1  0.585001  0  0.101185  0.130521  0  4.064328  0
C  C11  1  0.69079345  0.41466058  0.92294579  1  0.584852  0  0.100926  0.130052  0  4.065051  0
C  C12  1  0.03378630  0.92873088  0.58529926  1  0.427919  0  0.098133  0.255681  0  4.0601  0
C  C13  1  0.96620754  0.07126784  0.41470170  1  0.427825  0  0.098216  0.255913  0  4.060513  0
C  C14  1  0.03615594  0.05487693  0.58846733  1  0.059861  0  -0.087303  -0.203057  0  3.972936  0
C  C15  1  0.96384580  0.94512768  0.41153297  1  0.059728  0  -0.087349  -0.203208  0  3.973118  0
C  C16  1  0.00185921  0.12776562  0.50143247  1  0.076674  0  -0.016924  -0.10409  0  3.99568  0
C  C17  1  0.99814487  0.87223750  0.49856456  1  0.076717  0  -0.016964  -0.103984  0  3.995648  0
C  C18  1  0.40487617  0.44414808  0.43304708  1  0.553298  0  0.10557  0.067317  0  3.773731  0
C  C19  1  0.59511985  0.55584998  0.56696434  1  0.554325  0  0.105536  0.067249  0  3.773667  0
C  C20  1  0.54800355  0.42151099  0.44582180  1  0.636238  0  0.17429  0.196295  0  3.965704  0
C  C21  1  0.45199013  0.57848245  0.55418878  1  0.63591  0  0.174288  0.196419  0  3.965775  0
C  C22  1  0.05622369  0.49609542  0.68909430  1  1.607012  0  0.222281  0.621086  0  4.160738  0
C  C23  1  0.94378844  0.50390587  0.31089515  1  1.607765  0  0.222302  0.621041  0  4.160766  0
C  C24  1  0.11868171  0.52300643  0.79072925  1  0.134775  0  -0.002293  -0.154787  0  3.915703  0
C  C25  1  0.88131378  0.47698242  0.20927014  1  0.135203  0  -0.00229  -0.154923  0  3.916075  0
C  C26  1  0.11369474  0.61824629  0.94219278  1  0.073291  0  0.017231  -0.008944  0  4.005871  0
C  C27  1  0.88630031  0.38173699  0.05780751  1  0.135503  0  0.017236  -0.008882  0  4.006048  0
C  C28  1  0.05252246  0.59486986  0.84677652  1  0.150023  0  0.036816  0.0539  0  4.007765  0
C  C29  1  0.94747371  0.40511438  0.15322388  1  0.088433  0  0.036804  0.053938  0  4.008007  0
C  C30  1  0.24698514  0.48041195  0.83063448  1  0.5496  0  0.135648  0.274402  0  3.980211  0
C  C31  1  0.75301950  0.51957862  0.16935950  1  0.549481  0  0.135645  0.274478  0  3.980261  0
C  C32  1  0.32608938  0.51882192  0.91767567  1  0.077364  0  0.005363  -0.038381  0  3.934728  0
C  C33  1  0.67391071  0.48116477  0.08231860  1  0.077864  0  0.005376  -0.038361  0  3.934944  0
C  C34  1  0.24959829  0.57927430  0.97825165  1  0.077369  0  0.01079  -0.008887  0  3.989478  0
C  C35  1  0.75040280  0.42071151  0.02174280  1  0.076319  0  0.010759  -0.008854  0  3.98979  0
C  C36  1  0.47059555  0.49359552  0.95039916  1  0.088683  0  0.005881  -0.015322  0  3.942164  0
C  C37  1  0.52940840  0.50639357  0.04958972  1  0.033728  0  0.005727  -0.015422  0  3.942407  0
C  C38  1  0.08094135  0.36092822  0.18968988  1  0.881059  0  0.186994  0.248547  0  4.010047  0
C  C39  1  0.91905144  0.63905661  0.81031296  1  0.880698  0  0.186986  0.248512  0  4.010188  0
C  C40  1  0.03207522  0.67622105  0.99987550  1  0.857564  0  0.169537  0.219398  0  4.058901  0
C  C41  1  0.96792290  0.32375190  0.00013069  1  0.858366  0  0.169365  0.219013  0  4.058782  0
C  C42  1  0.59253929  0.33711166  0.38687744  1  0.881908  0  0.198243  0.209516  0  3.944898  0
C  C43  1  0.40745940  0.66288002  0.61313532  1  0.882053  0  0.198211  0.209388  0  3.944566  0
N  N44  1  0.64142306  0.47810344  0.51301479  1  -1.188407  0  -0.271696  -0.166416  0  3.418645  0
N  N45  1  0.35857220  0.52189394  0.48699293  1  -1.187496  0  -0.271746  -0.166608  0  3.418977  0
N  N46  1  0.19074844  0.32429276  0.21579333  1  -1.086787  0  -0.289221  -0.334143  0  2.707834  0
N  N47  1  0.80925109  0.67568660  0.78421350  1  -1.086728  0  -0.289223  -0.334122  0  2.708163  0
N  N48  1  0.95604981  0.72035713  0.04278455  1  -1.093703  0  -0.296924  -0.330923  0  2.69577  0
N  N49  1  0.04394941  0.27960465  0.95722513  1  -1.094872  0  -0.296764  -0.330661  0  2.695447  0
N  N50  1  0.61686938  0.26627300  0.33554597  1  -1.005742  0  -0.247042  -0.253166  0  2.645461  0
N  N51  1  0.38313404  0.73372532  0.66446641  1  -1.005737  0  -0.247033  -0.253102  0  2.645047  0
O  O52  1  0.88832385  0.66878515  0.52174092  1  -1.155821  0  -0.310322  -0.547561  0  2.314302  0
O  O53  1  0.11169374  0.33121147  0.47827844  1  -1.156119  0  -0.310192  -0.547305  0  2.314654  0
O  O54  1  0.11003716  0.69901489  0.47539139  1  -1.153554  0  -0.308897  -0.528535  0  2.307912  0
O  O55  1  0.88995728  0.30099547  0.52458813  1  -1.153768  0  -0.308946  -0.52856  0  2.307764  0
O  O56  1  0.92258688  0.47753482  0.67171109  1  -1.121645  0  -0.298267  -0.507517  0  2.288286  0
O  O57  1  0.07739628  0.52244173  0.32828647  1  -1.12219  0  -0.298208  -0.507399  0  2.289012  0
O  O58  1  0.14528754  0.49924936  0.62805808  1  -1.159509  0  -0.311986  -0.567229  0  2.394192  0
O  O59  1  0.85470319  0.50077787  0.37193842  1  -1.159852  0  -0.312099  -0.567359  0  2.393525  0
F  F60  1  0.23474521  0.62555193  0.14140197  1  -0.61373  0  -0.065166  -0.077436  0  1.4331  0
F  F61  1  0.76526192  0.37443475  0.85859685  1  -0.613888  0  -0.065085  -0.077288  0  1.433307  0
F  F62  1  0.70759156  0.60806521  0.21378695  1  -0.613432  0  -0.068706  -0.096328  0  1.433257  0
F  F63  1  0.29240643  0.39192830  0.78620024  1  -0.613595  0  -0.068777  -0.096414  0  1.433334  0
F  F64  1  0.46578714  0.52633706  0.21044884  1  -0.610846  0  -0.075214  -0.104046  0  1.474772  0
F  F65  1  0.53422141  0.47364907  0.78954583  1  -0.610931  0  -0.075211  -0.104094  0  1.474833  0
F  F66  1  0.06849909  0.85722680  0.66984057  1  -0.632816  0  -0.104683  -0.145611  0  1.337645  0
F  F67  1  0.93147963  0.14276946  0.33017230  1  -0.632738  0  -0.104717  -0.145698  0  1.338111  0
