# generated using pymatgen
data_CoH6C6(NO3)2
_symmetry_space_group_name_H-M   'P 1'
_cell_length_a   7.06823659
_cell_length_b   7.06998674
_cell_length_c   10.38959249
_cell_angle_alpha   86.87518040
_cell_angle_beta   117.47572863
_cell_angle_gamma   113.74937642
_symmetry_Int_Tables_number   1
_chemical_formula_structural   CoH6C6(NO3)2
_chemical_formula_sum   'Co2 H12 C12 N4 O12'
_cell_volume   416.07499240
_cell_formula_units_Z   2
loop_
 _symmetry_equiv_pos_site_id
 _symmetry_equiv_pos_as_xyz
  1  'x, y, z'
loop_
 _atom_site_type_symbol
 _atom_site_label
 _atom_site_symmetry_multiplicity
 _atom_site_fract_x
 _atom_site_fract_y
 _atom_site_fract_z
 _atom_site_occupancy
 _atom_site_hle17_ddec_charge
 _atom_site_hle17_ddec_spin_density
 _atom_site_hle17_ddec_sum_bond_order
 _atom_site_hle17_magmom
 _atom_site_hse06_10hf_ddec_charge
 _atom_site_hse06_10hf_ddec_spin_density
 _atom_site_hse06_10hf_ddec_sum_bond_order
 _atom_site_hse06_10hf_magmom
 _atom_site_hse06_ddec_charge
 _atom_site_hse06_ddec_spin_density
 _atom_site_hse06_ddec_sum_bond_order
 _atom_site_hse06_magmom
 _atom_site_pbe_cm5_charge
 _atom_site_pbe_ddec_charge
 _atom_site_pbe_ddec_spin_density
 _atom_site_pbe_ddec_sum_bond_order
 _atom_site_pbe_magmom
Co  Co0  1  0.49999643  0.99999876  0.99999701  1  0.791635  1.197218  2.509239  1.112  0.793183  1.060768  2.931802  0.997  0.835696  1.037068  2.874605  0.984  0.699033  0.769922  1.064288  2.965749  0.99
Co  Co1  1  0.49999836  0.49999804  0.50000050  1  0.788631  1.195521  2.511904  1.111  0.790106  1.05909  2.934271  0.995  0.832213  1.035953  2.878262  0.983  0.698674  0.768274  1.064014  2.966894  0.99
H  H2  1  0.16865550  0.14338431  0.83251511  1  0.419863  -0.000394  0.881273  0.0  0.390106  -1.2e-05  0.948294  0.0  0.399112  -9.9e-05  0.935469  0.0  0.293452  0.38411  6.9e-05  0.956787  0.0
H  H3  1  0.81089522  0.33621456  0.66749846  1  0.419711  -0.000427  0.88109  0.0  0.389898  -3.4e-05  0.948497  0.0  0.398954  -0.000112  0.935584  0.0  0.293651  0.383997  6.7e-05  0.956814  0.0
H  H4  1  0.83135193  0.85662409  0.16748642  1  0.419861  -0.000398  0.881243  0.0  0.390103  -1.2e-05  0.948285  0.0  0.399109  -9.9e-05  0.93546  0.0  0.293453  0.384108  6.9e-05  0.956776  0.0
H  H5  1  0.18910498  0.66377658  0.33250154  1  0.419794  -0.000428  0.881073  0.0  0.389967  -3.4e-05  0.948428  0.0  0.399024  -0.000112  0.935514  0.0  0.293668  0.384066  6.7e-05  0.956746  0.0
H  H6  1  0.21220127  0.05891478  0.71485679  1  0.427849  0.000292  0.815939  0.001  0.408878  0.000647  0.877091  0.001  0.417073  0.000428  0.868141  0.001  0.31699  0.403144  0.000922  0.883259  0.001
H  H7  1  0.84363227  0.49714960  0.78511597  1  0.427805  0.000306  0.814935  0.001  0.408586  0.00067  0.876569  0.001  0.416791  0.000442  0.867598  0.001  0.316974  0.403107  0.000911  0.882352  0.001
H  H8  1  0.78780993  0.94109825  0.28514464  1  0.427859  0.000293  0.815866  0.001  0.408898  0.000647  0.877004  0.001  0.417093  0.000428  0.868053  0.001  0.31701  0.403165  0.000922  0.883167  0.001
H  H9  1  0.15636071  0.50284015  0.21488129  1  0.427889  0.000305  0.814809  0.001  0.408646  0.00067  0.8765  0.001  0.416849  0.000442  0.867529  0.001  0.317017  0.403164  0.000911  0.882293  0.001
H  H10  1  0.21950195  0.55028866  0.85647036  1  0.121303  0.00059  0.955028  0.001  0.123163  0.000325  1.02146  0.0  0.128364  0.000235  1.015096  0.0  0.132205  0.119041  0.000435  1.026815  0.0
H  H11  1  0.19356265  0.36304351  0.64329123  1  0.121441  0.000598  0.955655  0.001  0.123281  0.000325  1.022071  0.0  0.128468  0.000234  1.015751  0.0  0.13236  0.119078  0.000435  1.027673  0.0
H  H12  1  0.78049125  0.44972017  0.14352666  1  0.121305  0.000591  0.95508  0.001  0.123189  0.000325  1.021485  0.0  0.128389  0.000235  1.015125  0.0  0.132221  0.119068  0.000435  1.02684  0.0
H  H13  1  0.80642300  0.63695607  0.35670599  1  0.12151  0.000597  0.95558  0.001  0.123372  0.000325  1.021956  0.0  0.128557  0.000235  1.015639  0.0  0.13237  0.119168  0.000434  1.027558  0.0
C  C14  1  0.83433423  0.13145738  0.90942233  1  0.602057  -0.009645  3.911763  -0.006  0.554366  -0.003632  4.222651  -0.002  0.590999  -0.002034  4.213299  -0.001  0.210484  0.528341  -0.005671  4.229899  -0.003
C  C15  1  0.72225326  0.92484469  0.59080237  1  0.603272  -0.009626  3.910063  -0.006  0.555048  -0.003564  4.222632  -0.002  0.591729  -0.001986  4.213285  -0.001  0.211201  0.528915  -0.005664  4.230044  -0.003
C  C16  1  0.16567445  0.86854751  0.09056989  1  0.601974  -0.009647  3.91206  -0.006  0.554401  -0.003632  4.222771  -0.002  0.591015  -0.002034  4.213441  -0.001  0.210464  0.528372  -0.005671  4.230018  -0.003
C  C17  1  0.27776227  0.07516203  0.40920701  1  0.603012  -0.009622  3.910362  -0.006  0.554834  -0.003564  4.222854  -0.002  0.591514  -0.001986  4.213503  -0.001  0.211099  0.528698  -0.005665  4.230271  -0.003
C  C18  1  0.64212739  0.92726484  0.81190149  1  0.05725  -0.014432  3.649328  -0.007  0.054463  -0.00815  3.894201  -0.004  0.059863  -0.005266  3.901122  -0.002  0.12054  0.049243  -0.009891  3.892347  -0.004
C  C19  1  0.61564979  0.83018477  0.68829176  1  0.056857  -0.015048  3.648278  -0.007  0.051827  -0.008336  3.895573  -0.004  0.057161  -0.005307  3.902596  -0.003  0.120314  0.046969  -0.009959  3.893515  -0.004
C  C20  1  0.35787333  0.07273906  0.18810038  1  0.057105  -0.014408  3.649292  -0.007  0.054243  -0.008151  3.894181  -0.004  0.059648  -0.005267  3.901106  -0.002  0.120466  0.049036  -0.009892  3.892309  -0.004
C  C21  1  0.38435798  0.16980951  0.31171685  1  0.057073  -0.015062  3.6483  -0.007  0.052025  -0.008331  3.895616  -0.004  0.057365  -0.005304  3.902625  -0.002  0.120365  0.047165  -0.009954  3.893556  -0.004
C  C22  1  0.33232292  0.62704941  0.80793739  1  0.122556  -0.027919  3.569216  -0.015  0.093515  -0.012935  3.819862  -0.006  0.1057  -0.008719  3.818821  -0.004  0.072396  0.08419  -0.015359  3.823148  -0.008
C  C23  1  0.31912481  0.52434551  0.69199477  1  0.121976  -0.028119  3.571446  -0.015  0.092806  -0.012823  3.82228  -0.006  0.105064  -0.008637  3.821188  -0.004  0.071667  0.083368  -0.015359  3.825683  -0.008
C  C24  1  0.66766965  0.37295298  0.19205668  1  0.122611  -0.027895  3.569089  -0.015  0.093526  -0.012936  3.819716  -0.006  0.105716  -0.00872  3.818672  -0.004  0.072433  0.084193  -0.01536  3.823011  -0.008
C  C25  1  0.68086723  0.47565072  0.30800506  1  0.121907  -0.028137  3.571331  -0.015  0.092745  -0.012819  3.822163  -0.006  0.105002  -0.008634  3.82107  -0.004  0.071644  0.08331  -0.015355  3.82557  -0.008
N  N26  1  0.48991746  0.82636967  0.86541690  1  -0.227151  -0.04501  3.362437  -0.035  -0.190033  -0.020334  3.643939  -0.016  -0.200143  -0.013644  3.650728  -0.01  -0.33896  -0.185116  -0.022075  3.640839  -0.017
N  N27  1  0.46103036  0.62447028  0.63461911  1  -0.224784  -0.044008  3.362552  -0.034  -0.186997  -0.020001  3.644363  -0.015  -0.197097  -0.013502  3.651249  -0.01  -0.337786  -0.182362  -0.022005  3.640867  -0.017
N  N28  1  0.51008055  0.17363096  0.13457855  1  -0.227123  -0.045018  3.36247  -0.035  -0.189927  -0.020328  3.643912  -0.016  -0.200043  -0.013641  3.650704  -0.01  -0.338949  -0.185013  -0.02207  3.64081  -0.017
N  N29  1  0.53897181  0.37552403  0.36538326  1  -0.224773  -0.043972  3.362731  -0.034  -0.18702  -0.019996  3.644575  -0.015  -0.197124  -0.013499  3.651462  -0.01  -0.337745  -0.182385  -0.021999  3.641078  -0.017
O  O30  1  0.02649949  0.22164885  0.90866119  1  -0.577627  -0.012006  1.985202  -0.01  -0.535849  -0.004925  2.211865  -0.004  -0.561227  -0.00303  2.203555  -0.003  -0.298644  -0.518467  -0.006648  2.217831  -0.006
O  O31  1  0.81336327  0.11775413  0.59168975  1  -0.579024  -0.01224  1.984742  -0.01  -0.536735  -0.005038  2.21133  -0.004  -0.562078  -0.003078  2.202957  -0.003  -0.299387  -0.519024  -0.006669  2.217098  -0.006
O  O32  1  0.97350082  0.77835182  0.09133870  1  -0.577648  -0.012006  1.984999  -0.01  -0.535904  -0.004926  2.211603  -0.004  -0.561279  -0.00303  2.203305  -0.003  -0.298659  -0.518522  -0.006649  2.217568  -0.006
O  O33  1  0.18663703  0.88223068  0.40831134  1  -0.579123  -0.01224  1.98469  -0.01  -0.536793  -0.005038  2.211194  -0.004  -0.56214  -0.003078  2.202819  -0.003  -0.299434  -0.519079  -0.00667  2.216964  -0.006
O  O34  1  0.78579993  0.19425856  0.00061878  1  -0.538415  -0.012927  2.0784  -0.009  -0.5208  -0.004433  2.356616  -0.003  -0.558889  -0.004975  2.348  -0.004  -0.297642  -0.494749  -0.001986  2.361758  -0.001
O  O35  1  0.69367474  0.78515771  0.49948775  1  -0.538512  -0.012844  2.078198  -0.009  -0.520567  -0.004357  2.356539  -0.003  -0.558645  -0.004959  2.348031  -0.004  -0.298011  -0.494922  -0.001978  2.362051  -0.001
O  O36  1  0.21419544  0.80575175  0.99937780  1  -0.538335  -0.012911  2.078847  -0.009  -0.520763  -0.00443  2.357031  -0.003  -0.558838  -0.004972  2.348416  -0.004  -0.297656  -0.494717  -0.001984  2.362177  -0.001
O  O37  1  0.30632166  0.21483051  0.50051618  1  -0.538283  -0.012842  2.078371  -0.009  -0.520351  -0.004354  2.356684  -0.003  -0.558421  -0.004956  2.348171  -0.004  -0.297861  -0.494717  -0.001976  2.362215  -0.001
O  O38  1  0.28964615  0.12689006  0.81626670  1  -0.803603  0.023159  1.927122  0.043  -0.773592  0.02327  2.124023  0.04  -0.797853  0.018719  2.099245  0.033  -0.560418  -0.754129  0.028138  2.140035  0.047
O  O39  1  0.81072276  0.47344006  0.68381999  1  -0.802968  0.023299  1.926238  0.043  -0.773026  0.023395  2.123977  0.04  -0.79732  0.018771  2.099197  0.033  -0.560237  -0.753846  0.028127  2.139129  0.047
O  O40  1  0.71036799  0.87312284  0.18373450  1  -0.803622  0.02316  1.926987  0.043  -0.773657  0.02327  2.123993  0.04  -0.797916  0.018719  2.099211  0.033  -0.560456  -0.754183  0.028138  2.139977  0.047
O  O41  1  0.18927337  0.52655277  0.31617801  1  -0.803118  0.023301  1.926095  0.043  -0.773162  0.023395  2.123756  0.04  -0.797453  0.018771  2.098979  0.033  -0.560305  -0.753981  0.028127  2.138911  0.047
