# generated using pymatgen
data_CoH14C20NO7
_symmetry_space_group_name_H-M   'P 1'
_cell_length_a   6.95572940
_cell_length_b   9.51190243
_cell_length_c   13.08887337
_cell_angle_alpha   92.95026516
_cell_angle_beta   101.17459337
_cell_angle_gamma   94.99840045
_symmetry_Int_Tables_number   1
_chemical_formula_structural   CoH14C20NO7
_chemical_formula_sum   'Co2 H28 C40 N2 O14'
_cell_volume   844.26738534
_cell_formula_units_Z   2
loop_
 _symmetry_equiv_pos_site_id
 _symmetry_equiv_pos_as_xyz
  1  'x, y, z'
loop_
 _atom_site_type_symbol
 _atom_site_label
 _atom_site_symmetry_multiplicity
 _atom_site_fract_x
 _atom_site_fract_y
 _atom_site_fract_z
 _atom_site_occupancy
 _atom_site_hle17_ddec_charge
 _atom_site_hle17_ddec_spin_density
 _atom_site_hle17_ddec_sum_bond_order
 _atom_site_hle17_magmom
 _atom_site_hse06_10hf_ddec_charge
 _atom_site_hse06_10hf_ddec_spin_density
 _atom_site_hse06_10hf_ddec_sum_bond_order
 _atom_site_hse06_10hf_magmom
 _atom_site_hse06_ddec_charge
 _atom_site_hse06_ddec_spin_density
 _atom_site_hse06_ddec_sum_bond_order
 _atom_site_hse06_magmom
 _atom_site_pbe_cm5_charge
 _atom_site_pbe_ddec_charge
 _atom_site_pbe_ddec_spin_density
 _atom_site_pbe_ddec_sum_bond_order
 _atom_site_pbe_magmom
Co  Co0  1  0.68401666  0.96700546  0.60776801  1  1.0592  2.964387  1.852641  2.581  1.023138  2.874565  2.259787  2.641  1.097845  2.910945  2.192198  2.717  0.678264  0.959007  2.843938  2.320975  2.573
Co  Co1  1  0.31599273  0.03298616  0.39223638  1  1.059105  -2.96434  1.852696  -2.581  1.023237  -2.874569  2.259827  -2.641  1.097922  -2.910939  2.192228  -2.717  0.678298  0.959098  -2.843936  2.320992  -2.573
H  H2  1  0.69314149  0.51643936  0.95720501  1  0.09779  8e-06  0.952176  0.0  0.108146  5e-06  1.014189  0.0  0.111117  3e-06  1.01261  0.0  0.103577  0.106131  6e-06  1.015183  0.0
H  H3  1  0.30685441  0.48357128  0.04279969  1  0.097785  -6e-06  0.952202  0.0  0.108126  -5e-06  1.014248  0.0  0.111098  -3e-06  1.012664  0.0  0.103531  0.106109  -6e-06  1.015237  0.0
H  H4  1  0.65989147  0.56961825  0.14024432  1  0.093271  -1.6e-05  0.956271  0.0  0.10346  -7e-06  1.019608  0.0  0.106545  -5e-06  1.018256  0.0  0.10045  0.101181  -9e-06  1.020835  0.0
H  H5  1  0.34010025  0.43038285  0.85976110  1  0.093325  1.8e-05  0.956355  0.0  0.103466  7e-06  1.019721  0.0  0.106552  5e-06  1.018366  0.0  0.100453  0.10119  9e-06  1.020945  0.0
H  H6  1  0.94674847  0.19862092  0.23146576  1  0.107562  0.000101  0.965044  0.0  0.114137  0.000137  1.03318  0.0  0.117811  0.00015  1.031216  0.0  0.103205  0.111343  0.000123  1.034644  0.0
H  H7  1  0.05324994  0.80137816  0.76852951  1  0.107528  -0.000102  0.965056  0.0  0.114094  -0.000137  1.033216  0.0  0.117769  -0.00015  1.031249  0.0  0.103166  0.1113  -0.000123  1.034668  0.0
H  H8  1  0.97564527  0.14548239  0.04768488  1  0.095149  -1.2e-05  0.957768  0.0  0.103768  1e-05  1.022685  0.0  0.106836  4e-06  1.020802  0.0  0.103177  0.101949  1.6e-05  1.023507  0.0
H  H9  1  0.02435753  0.85452726  0.95231125  1  0.095121  1.1e-05  0.957759  0.0  0.10376  -1e-05  1.022658  0.0  0.106828  -4e-06  1.020775  0.0  0.103164  0.101942  -1.6e-05  1.023476  0.0
H  H10  1  0.82841893  0.65167707  0.30235398  1  0.097215  0.000105  0.95535  0.0  0.105649  -1.3e-05  1.022592  0.0  0.1093  -6e-06  1.019331  0.0  0.104008  0.103261  -1.9e-05  1.024493  0.0
H  H11  1  0.17159109  0.34831985  0.69764764  1  0.097177  -0.000101  0.955364  0.0  0.105616  1.3e-05  1.022609  0.0  0.109268  5e-06  1.019349  0.0  0.104009  0.103228  1.9e-05  1.024503  0.0
H  H12  1  0.71228713  0.50851464  0.59197921  1  0.111051  0.000172  0.93689  0.0  0.121124  0.000118  0.996785  0.0  0.125072  3.2e-05  0.9939  0.0  0.110018  0.118334  0.00025  0.998789  0.0
H  H13  1  0.28772326  0.49148438  0.40802483  1  0.111003  -0.000168  0.936936  0.0  0.121078  -0.000118  0.996853  0.0  0.125051  -3.3e-05  0.993922  0.0  0.109993  0.118274  -0.00025  0.998865  0.0
H  H14  1  0.74928908  0.20422940  0.34424554  1  0.112441  0.000377  0.951544  0.0  0.120186  0.000228  1.016356  0.0  0.123173  0.000178  1.014674  0.0  0.110424  0.118301  0.000287  1.017278  0.0
H  H15  1  0.25070530  0.79577067  0.65575627  1  0.112404  -0.000376  0.951565  0.0  0.120145  -0.000229  1.016398  0.0  0.12313  -0.000178  1.014717  0.0  0.110416  0.118264  -0.000287  1.017312  0.0
H  H16  1  0.40247795  0.12867666  0.70713689  1  0.095159  0.001032  0.954513  0.002  0.100087  0.000561  1.021049  0.001  0.103648  0.000396  1.016982  0.001  0.120949  0.096696  0.000758  1.025115  0.002
H  H17  1  0.59752269  0.87131603  0.29286366  1  0.095198  -0.001031  0.954463  -0.002  0.10016  -0.000561  1.020967  -0.001  0.103725  -0.000396  1.01689  -0.001  0.120946  0.096761  -0.000758  1.025034  -0.002
H  H18  1  0.33603031  0.15821528  0.88525820  1  0.110014  -8.1e-05  0.960112  -0.001  0.121743  0.000283  1.018131  0.0  0.12529  0.000193  1.016481  0.0  0.108993  0.118686  0.000389  1.020381  0.0
H  H19  1  0.66396241  0.84177318  0.11474067  1  0.110064  8.3e-05  0.960241  0.001  0.121812  -0.000283  1.018194  0.0  0.125366  -0.000194  1.016551  0.0  0.109012  0.118763  -0.000389  1.020447  0.0
H  H20  1  0.68248447  0.80811353  0.96527979  1  0.107104  -9.8e-05  0.958787  -0.001  0.118718  0.000237  1.017482  0.0  0.121944  0.00016  1.016297  0.0  0.110006  0.116035  0.000333  1.019139  0.0
H  H21  1  0.31750810  0.19187387  0.03471902  1  0.10715  9.9e-05  0.958911  0.001  0.118803  -0.000237  1.017539  0.0  0.122033  -0.00016  1.01635  0.0  0.110024  0.116122  -0.000333  1.019186  0.0
H  H22  1  0.72483573  0.78957066  0.78272562  1  0.09002  0.001183  0.936662  0.002  0.09939  0.000783  0.997195  0.001  0.102315  0.000582  0.994366  0.001  0.123877  0.096652  0.000986  1.000226  0.002
H  H23  1  0.27515574  0.21041884  0.21727546  1  0.089955  -0.00118  0.936557  -0.002  0.099346  -0.000783  0.997107  -0.001  0.102274  -0.000582  0.99427  -0.001  0.123839  0.096613  -0.000986  1.000137  -0.002
H  H24  1  0.75911688  0.33672972  0.73923285  1  0.42129  -1.6e-05  0.875452  0.0  0.390773  -2.8e-05  0.946225  0.0  0.40382  -5.5e-05  0.927687  0.0  0.309128  0.381375  5e-06  0.959496  0.0
H  H25  1  0.24086594  0.66328307  0.26076459  1  0.421439  1.6e-05  0.8752  0.0  0.390886  2.8e-05  0.946076  0.0  0.403935  5.5e-05  0.927531  0.0  0.309127  0.381488  -5e-06  0.959346  0.0
H  H26  1  0.96289753  0.09970825  0.74341112  1  0.4217  -0.000129  0.880882  -0.001  0.391693  0.000306  0.944584  0.0  0.402371  0.000161  0.92927  0.0  0.292125  0.384442  0.00043  0.95484  0.001
H  H27  1  0.03710949  0.90031093  0.25658582  1  0.421759  0.000129  0.880787  0.001  0.391734  -0.000305  0.94453  0.0  0.402412  -0.00016  0.929218  0.0  0.292146  0.384488  -0.000429  0.954785  -0.001
H  H28  1  0.04329840  0.07940760  0.63730144  1  0.441965  7.4e-05  0.857596  0.0  0.411896  0.000464  0.920665  0.001  0.423333  0.000301  0.904197  0.001  0.297502  0.403644  0.000625  0.932375  0.001
H  H29  1  0.95670252  0.92059888  0.36269514  1  0.442003  -7.4e-05  0.857551  0.0  0.411926  -0.000464  0.920644  -0.001  0.423361  -0.0003  0.904181  -0.001  0.297503  0.403682  -0.000625  0.932344  -0.001
C  C30  1  0.86142583  0.29515282  0.88250622  1  0.654987  3e-05  3.836729  0.0  0.602507  5e-06  4.1386  0.0  0.635256  -2e-06  4.132217  0.0  0.22911  0.580605  2.5e-05  4.141871  0.0
C  C31  1  0.13855646  0.70486630  0.11749374  1  0.655121  -3.5e-05  3.836608  0.0  0.602617  -5e-06  4.138459  0.0  0.635366  4e-06  4.132083  0.0  0.229281  0.58071  -2.5e-05  4.141757  0.0
C  C32  1  0.84082252  0.32919150  0.99136798  1  -0.099589  0.00046  3.805302  0.001  -0.074782  0.000101  4.038839  0.0  -0.085514  7.5e-05  4.065623  0.0  -0.026641  -0.067379  0.000176  4.019574  0.0
C  C33  1  0.15916646  0.67081284  0.00862968  1  -0.099692  -0.000457  3.805218  -0.001  -0.074836  -0.000102  4.038707  0.0  -0.085567  -7.6e-05  4.065493  0.0  -0.0267  -0.067435  -0.000176  4.019455  0.0
C  C34  1  0.75023996  0.44828680  0.01790586  1  -0.059542  -0.000265  3.746867  0.0  -0.086368  -2.9e-05  3.99801  0.0  -0.085305  -3.1e-05  4.01948  0.0  -0.084694  -0.086588  -3.4e-05  3.982754  0.0
C  C35  1  0.24975234  0.55171963  0.98209526  1  -0.059404  0.000264  3.746901  0.0  -0.086225  3e-05  3.997979  0.0  -0.085163  3e-05  4.019454  0.0  -0.084608  -0.086443  3.4e-05  3.98272  0.0
C  C36  1  0.73388453  0.47849563  0.12063528  1  -0.121976  0.000403  3.736903  0.001  -0.140418  5.5e-05  3.988601  0.0  -0.145558  4.2e-05  4.009805  0.0  -0.09227  -0.137011  0.000112  3.97429  0.0
C  C37  1  0.26611036  0.52150761  0.87936900  1  -0.122165  -0.000413  3.737164  -0.001  -0.140572  -5.5e-05  3.988883  0.0  -0.145711  -4.1e-05  4.010085  0.0  -0.092292  -0.137173  -0.000112  3.974578  0.0
C  C38  1  0.80676197  0.39080943  0.19955708  1  0.079053  -0.000393  3.76768  -0.001  0.090522  3e-06  3.997259  0.0  0.093762  -2e-05  4.020708  0.0  0.002488  0.087946  -1.4e-05  3.981704  0.0
C  C39  1  0.19323083  0.60918959  0.80044530  1  0.079148  0.0004  3.76776  0.001  0.090575  -4e-06  3.997342  0.0  0.093815  1.9e-05  4.020787  0.0  0.002467  0.087998  1.4e-05  3.981792  0.0
C  C40  1  0.89276787  0.26965138  0.17190318  1  -0.119096  0.000484  3.712548  0.001  -0.136578  0.000102  3.962335  0.0  -0.141685  0.000109  3.983206  0.0  -0.088742  -0.132827  8.8e-05  3.947748  0.0
C  C41  1  0.10722904  0.73034662  0.82809496  1  -0.119084  -0.000484  3.712664  -0.001  -0.136565  -0.000101  3.96247  0.0  -0.14167  -0.00011  3.983343  0.0  -0.088704  -0.132813  -8.8e-05  3.94787  0.0
C  C42  1  0.90983909  0.23965610  0.06918600  1  -0.060767  -0.000263  3.753475  0.0  -0.087212  -1.8e-05  4.004077  0.0  -0.086526  -2.6e-05  4.025694  0.0  -0.083401  -0.086428  -0.0  3.987469  0.0
C  C43  1  0.09015570  0.76034825  0.93081068  1  -0.060786  0.000264  3.753551  0.0  -0.087254  1.9e-05  4.004139  0.0  -0.086574  2.7e-05  4.025762  0.0  -0.083429  -0.086469  0.0  3.987528  0.0
C  C44  1  0.78832765  0.42377296  0.30838970  1  0.037234  0.00257  3.778464  0.004  0.057443  0.00057  4.013134  0.001  0.05335  0.000485  4.037023  0.001  -0.006699  0.060365  0.000585  3.995943  0.001
C  C45  1  0.21166937  0.57622501  0.69161227  1  0.037151  -0.002569  3.778438  -0.004  0.057428  -0.000569  4.013032  -0.001  0.053337  -0.000487  4.036914  -0.001  -0.006704  0.060352  -0.000585  3.995841  -0.001
C  C46  1  0.79800262  0.56413025  0.34930893  1  -0.081646  -0.004722  3.667716  -0.006  -0.118073  -0.001659  3.916799  -0.002  -0.115287  -0.001117  3.934559  -0.001  -0.072747  -0.118554  -0.000886  3.903192  -0.001
C  C47  1  0.20200627  0.43586987  0.65068966  1  -0.08153  0.004711  3.667861  0.006  -0.117984  0.001659  3.91692  0.002  -0.115195  0.001119  3.934677  0.001  -0.072738  -0.118464  0.000886  3.903312  0.001
C  C48  1  0.77281839  0.59479357  0.45127177  1  -0.070301  0.005421  3.776164  0.008  -0.044028  0.002076  4.012297  0.003  -0.053975  0.001421  4.03607  0.002  -0.017829  -0.037883  0.002605  3.996715  0.004
C  C49  1  0.22719590  0.40520339  0.54872643  1  -0.070461  -0.005423  3.776488  -0.008  -0.044196  -0.002075  4.012607  -0.003  -0.054148  -0.001421  4.036389  -0.002  -0.017858  -0.038057  -0.002604  3.99703  -0.004
C  C50  1  0.73638029  0.48452069  0.51354664  1  -0.046587  -0.001036  3.677773  -0.001  -0.085326  0.000807  3.926127  0.001  -0.081465  0.00044  3.943867  0.001  -0.06747  -0.088631  -0.000273  3.915688  0.0
C  C51  1  0.26363752  0.51547941  0.48645661  1  -0.04644  0.001025  3.677859  0.001  -0.085224  -0.000807  3.926219  -0.001  -0.081366  -0.000442  3.943957  -0.001  -0.067399  -0.088518  0.000273  3.915778  0.0
C  C52  1  0.72856110  0.34437560  0.47409015  1  -0.067224  0.004026  3.779768  0.005  -0.039744  0.001504  4.012832  0.002  -0.049408  0.001109  4.03432  0.001  -0.016341  -0.034415  0.0018  4.000054  0.002
C  C53  1  0.27145399  0.65562554  0.52591518  1  -0.067307  -0.00402  3.779763  -0.005  -0.03978  -0.001503  4.012803  -0.002  -0.049451  -0.001109  4.034289  -0.001  -0.016336  -0.034447  -0.0018  4.000019  -0.002
C  C54  1  0.75663001  0.31442338  0.37275373  1  -0.067478  -0.004635  3.637408  -0.006  -0.105196  -0.001642  3.885889  -0.002  -0.101717  -0.001101  3.90268  -0.002  -0.068065  -0.106435  -0.000903  3.873789  -0.001
C  C55  1  0.24337317  0.68557670  0.62724891  1  -0.067304  0.004633  3.637266  0.006  -0.105082  0.001643  3.88575  0.002  -0.101606  0.001102  3.902554  0.002  -0.068007  -0.106325  0.000902  3.87365  0.001
C  C56  1  0.77836096  0.74508578  0.49205395  1  0.647784  -0.003063  3.892766  -0.007  0.600189  0.001048  4.193823  -0.001  0.636354  0.000826  4.188415  0.0  0.210128  0.574502  0.000852  4.195657  -0.001
C  C57  1  0.22165648  0.25491441  0.50793781  1  0.647807  0.003073  3.892654  0.007  0.600305  -0.001047  4.193571  0.001  0.63647  -0.000821  4.188169  0.0  0.210179  0.574629  -0.000852  4.195398  0.001
C  C58  1  0.68678995  0.22695379  0.53896467  1  0.661908  -0.004327  3.861196  -0.008  0.612663  -0.002011  4.158489  -0.004  0.650996  -0.001409  4.150501  -0.003  0.217172  0.585471  -0.002826  4.161202  -0.006
C  C59  1  0.31321776  0.77304626  0.46104298  1  0.662264  0.004326  3.86093  0.008  0.612968  0.002012  4.158239  0.004  0.651309  0.001409  4.150232  0.003  0.217193  0.585768  0.002827  4.160966  0.006
C  C60  1  0.46284018  0.06117266  0.76757327  1  0.145387  -0.019351  3.66516  -0.026  0.11662  -0.003563  3.926113  -0.005  0.128636  -0.002934  3.936729  -0.004  0.049641  0.106242  -0.004711  3.922684  -0.006
C  C61  1  0.53715791  0.93881264  0.23242444  1  0.14535  0.019354  3.665194  0.026  0.116535  0.003564  3.926152  0.005  0.128554  0.002934  3.936776  0.004  0.04961  0.106173  0.004712  3.922726  0.006
C  C62  1  0.42894705  0.07733714  0.86829580  1  -0.144627  0.020875  3.671279  0.027  -0.162603  0.004954  3.914683  0.007  -0.169848  0.004011  3.931923  0.006  -0.077896  -0.159263  0.006236  3.907315  0.009
C  C63  1  0.57104672  0.92264814  0.13170379  1  -0.144739  -0.020884  3.671716  -0.027  -0.162722  -0.004952  3.915089  -0.007  -0.16998  -0.004009  3.932334  -0.006  -0.077871  -0.159389  -0.006235  3.907741  -0.009
C  C64  1  0.51192015  0.99041752  0.94535361  1  0.094004  -0.022254  3.747771  -0.03  0.105817  -0.005989  3.977515  -0.008  0.111907  -0.004303  3.996584  -0.006  0.012593  0.099972  -0.008703  3.96754  -0.012
C  C65  1  0.48807528  0.00956881  0.05464771  1  0.094116  0.022257  3.747706  0.03  0.105946  0.00599  3.977414  0.008  0.112038  0.004301  3.996488  0.006  0.012586  0.100102  0.008703  3.96745  0.012
C  C66  1  0.61749950  0.88315102  0.91212336  1  -0.148748  0.020305  3.69602  0.027  -0.167163  0.004894  3.940548  0.007  -0.174412  0.004056  3.959138  0.006  -0.077828  -0.163842  0.006022  3.931825  0.009
C  C67  1  0.38249425  0.11683427  0.08787547  1  -0.148738  -0.020308  3.695981  -0.027  -0.167163  -0.004895  3.94047  -0.007  -0.174414  -0.004057  3.95906  -0.006  -0.077792  -0.163835  -0.006023  3.931741  -0.009
C  C68  1  0.64353778  0.87203039  0.80984134  1  0.131278  -0.018822  3.679543  -0.025  0.106063  -0.002988  3.932912  -0.005  0.116085  -0.002559  3.94703  -0.004  0.048866  0.097506  -0.003826  3.926518  -0.005
C  C69  1  0.35645604  0.12795488  0.19015978  1  0.131278  0.018812  3.679382  0.025  0.106003  0.00299  3.932793  0.005  0.116025  0.00256  3.946921  0.004  0.048888  0.097437  0.003827  3.926418  0.005
N  N70  1  0.57331932  0.96225355  0.73847837  1  -0.330713  0.057244  3.325199  0.088  -0.283756  0.033722  3.624201  0.046  -0.306743  0.02737  3.633675  0.037  -0.339609  -0.267889  0.040286  3.620033  0.056
N  N71  1  0.42667620  0.03773384  0.26152148  1  -0.330689  -0.057249  3.325109  -0.088  -0.283737  -0.03372  3.624127  -0.046  -0.306728  -0.027368  3.633605  -0.037  -0.339645  -0.267871  -0.040284  3.619965  -0.056
O  O72  1  0.95800112  0.19842883  0.85897129  1  -0.590018  -7.3e-05  1.956743  0.0  -0.540499  -7e-05  2.177931  0.0  -0.562592  -0.000114  2.170183  0.0  -0.295529  -0.525027  -1.2e-05  2.182591  0.0
O  O73  1  0.04200006  0.80157977  0.14102465  1  -0.589961  7.6e-05  1.957047  0.0  -0.540445  6.9e-05  2.178309  0.0  -0.562509  0.000113  2.170506  0.0  -0.295535  -0.524973  1.2e-05  2.182982  0.0
O  O74  1  0.76684844  0.37653598  0.81416078  1  -0.554642  7.3e-05  2.083035  0.0  -0.502263  3.6e-05  2.2928  0.0  -0.524334  -1.3e-05  2.276072  0.0  -0.330871  -0.487139  0.000127  2.304358  0.0
O  O75  1  0.23313795  0.62347046  0.18583826  1  -0.554834  -7.3e-05  2.082607  0.0  -0.502433  -3.6e-05  2.292376  0.0  -0.524516  1.4e-05  2.27566  0.0  -0.330977  -0.487309  -0.000127  2.303937  0.0
O  O76  1  0.71443738  0.76514976  0.57747237  1  -0.624082  0.059103  2.060269  0.094  -0.590418  0.038906  2.337608  0.059  -0.632273  0.028988  2.330473  0.043  -0.317766  -0.555477  0.049306  2.33959  0.075
O  O77  1  0.28557573  0.23485150  0.42251673  1  -0.624122  -0.059106  2.060072  -0.094  -0.590565  -0.038904  2.337438  -0.059  -0.632409  -0.028988  2.330271  -0.043  -0.317888  -0.555632  -0.049305  2.339422  -0.075
O  O78  1  0.83454052  0.84603879  0.44283798  1  -0.616165  0.005251  1.990095  0.008  -0.56737  0.006052  2.222132  0.009  -0.593558  0.004344  2.211733  0.006  -0.304735  -0.547994  0.007087  2.228583  0.011
O  O79  1  0.16547320  0.15395612  0.55715091  1  -0.616104  -0.005264  1.989972  -0.008  -0.567357  -0.006056  2.222009  -0.009  -0.593549  -0.004349  2.211613  -0.006  -0.304729  -0.547977  -0.007093  2.228457  -0.011
O  O80  1  0.64298293  0.10020496  0.49445532  1  -0.644886  0.041665  2.159289  0.064  -0.615754  0.025124  2.459567  0.036  -0.658953  0.017479  2.448601  0.024  -0.306195  -0.578201  0.033629  2.463256  0.05
O  O81  1  0.35704352  0.89979299  0.50555324  1  -0.644998  -0.041668  2.159399  -0.064  -0.615806  -0.025117  2.459615  -0.036  -0.659006  -0.017475  2.448644  -0.024  -0.306117  -0.57825  -0.033624  2.463306  -0.05
O  O82  1  0.69391421  0.24697779  0.63582523  1  -0.638217  0.006852  2.052025  0.011  -0.590276  0.007058  2.294348  0.011  -0.61995  0.005566  2.284464  0.008  -0.299905  -0.566089  0.009066  2.298898  0.014
O  O83  1  0.30606373  0.75302966  0.36417916  1  -0.638545  -0.006859  2.051833  -0.011  -0.590592  -0.007062  2.294251  -0.011  -0.620271  -0.00557  2.284338  -0.008  -0.300007  -0.566402  -0.009073  2.2988  -0.014
O  O84  1  0.96678566  0.02969059  0.68477195  1  -0.826237  0.039562  1.930104  0.062  -0.787896  0.032189  2.135877  0.047  -0.817663  0.026084  2.100786  0.038  -0.570465  -0.76258  0.038215  2.160064  0.056
O  O85  1  0.03322164  0.97032853  0.31523342  1  -0.826374  -0.03957  1.930102  -0.063  -0.788037  -0.032193  2.135842  -0.047  -0.817808  -0.026091  2.100746  -0.038  -0.570497  -0.762704  -0.038219  2.15998  -0.056
