# generated using pymatgen
data_ZnH24C22(NO)4
_symmetry_space_group_name_H-M   'P 1'
_cell_length_a   5.96339065
_cell_length_b   8.95634373
_cell_length_c   10.66661822
_cell_angle_alpha   88.54161323
_cell_angle_beta   72.63243018
_cell_angle_gamma   90.65227771
_symmetry_Int_Tables_number   1
_chemical_formula_structural   ZnH24C22(NO)4
_chemical_formula_sum   'Zn1 H24 C22 N4 O4'
_cell_volume   543.44903894
_cell_formula_units_Z   1
loop_
 _symmetry_equiv_pos_site_id
 _symmetry_equiv_pos_as_xyz
  1  'x, y, z'
loop_
 _atom_site_type_symbol
 _atom_site_label
 _atom_site_symmetry_multiplicity
 _atom_site_fract_x
 _atom_site_fract_y
 _atom_site_fract_z
 _atom_site_occupancy
 _atom_site_hle17_bader_spin_density
 _atom_site_hle17_ddec_charge
 _atom_site_hle17_ddec_spin_density
 _atom_site_hle17_ddec_sum_bond_order
 _atom_site_hle17_magmom
 _atom_site_hse06_10hf_bader_spin_density
 _atom_site_hse06_10hf_ddec_charge
 _atom_site_hse06_10hf_ddec_spin_density
 _atom_site_hse06_10hf_ddec_sum_bond_order
 _atom_site_hse06_10hf_magmom
 _atom_site_hse06_bader_spin_density
 _atom_site_hse06_ddec_charge
 _atom_site_hse06_ddec_spin_density
 _atom_site_hse06_ddec_sum_bond_order
 _atom_site_hse06_magmom
 _atom_site_pbe_bader_spin_density
 _atom_site_pbe_cm5_charge
 _atom_site_pbe_ddec_charge
 _atom_site_pbe_ddec_spin_density
 _atom_site_pbe_ddec_sum_bond_order
 _atom_site_pbe_magmom
Zn  Zn0  1  0.50001655  0.50000259  0.49999790  1  0  1.016229  0  1.875341  0  0  0.830142  0  2.32416  0  0  0.879904  0  2.270615  0  0  0.669655  0.794931  0  2.361834  0
H  H1  1  0.70721387  0.18911930  0.71125259  1  0  0.116492  0  0.941971  0  0  0.122385  0  1.008671  0  0  0.126233  0  1.0067  0  0  0.112554  0.119041  0  1.011432  0
H  H2  1  0.29279702  0.81090416  0.28872176  1  0  0.116511  0  0.941854  0  0  0.122379  0  1.0086  0  0  0.126258  0  1.006595  0  0  0.112539  0.119036  0  1.011359  0
H  H3  1  0.99972744  0.34427486  0.54413197  1  0  0.098764  0  0.954449  0  0  0.101099  0  1.023357  0  0  0.104443  0  1.020253  0  0  0.120406  0.098716  0  1.025617  0
H  H4  1  0.00032648  0.65572959  0.45584807  1  0  0.09881  0  0.954385  0  0  0.101148  0  1.023277  0  0  0.104469  0  1.020239  0  0  0.120392  0.098768  0  1.025532  0
H  H5  1  0.40868842  0.40910476  0.79171440  1  0  0.081143  0  0.964558  0  0  0.08811  0  1.027757  0  0  0.090578  0  1.026478  0  0  0.114912  0.086132  0  1.02905  0
H  H6  1  0.59131831  0.59087055  0.20828740  1  0  0.081155  0  0.964408  0  0  0.08807  0  1.027673  0  0  0.090534  0  1.0264  0  0  0.114851  0.086091  0  1.028977  0
H  H7  1  0.13134884  0.25454284  0.97230512  1  0  0.101127  0  0.97872  0  0  0.111043  0  1.042872  0  0  0.113843  0  1.042559  0  0  0.103232  0.108373  0  1.044133  0
H  H8  1  0.86862710  0.74545023  0.02768893  1  0  0.101079  0  0.978609  0  0  0.111002  0  1.042789  0  0  0.113837  0  1.042435  0  0  0.103206  0.10833  0  1.044059  0
H  H9  1  0.78290070  0.10044274  0.05366141  1  0  0.074084  0  0.929696  0  0  0.083784  0  0.996854  0  0  0.087218  0  0.993471  0  0  0.116395  0.081056  0  0.999773  0
H  H10  1  0.21705559  0.89957605  0.94633009  1  0  0.074123  0  0.929623  0  0  0.083814  0  0.996769  0  0  0.087229  0  0.993407  0  0  0.116394  0.081083  0  0.999692  0
H  H11  1  0.25935825  0.99552826  0.51180996  1  0  0.126675  0  0.952396  0  0  0.148024  0  1.01294  0  0  0.150074  0  1.013159  0  0  0.094095  0.146363  0  1.013131  0
H  H12  1  0.74062208  0.00447238  0.48820642  1  0  0.126702  0  0.952403  0  0  0.148037  0  1.012954  0  0  0.150087  0  1.01317  0  0  0.094085  0.146372  0  1.013149  0
H  H13  1  0.26311548  0.03020296  0.67523098  1  0  0.113865  0  0.963152  0  0  0.132976  0  1.025156  0  0  0.134432  0  1.026105  0  0  0.085551  0.132183  0  1.024186  0
H  H14  1  0.73685159  0.96978110  0.32478943  1  0  0.113839  0  0.963091  0  0  0.133002  0  1.025022  0  0  0.134466  0  1.025966  0  0  0.085574  0.132209  0  1.024052  0
H  H15  1  0.03389163  0.91877795  0.64582853  1  0  0.124216  0  0.948813  0  0  0.146993  0  1.007981  0  0  0.148803  0  1.008329  0  0  0.09402  0.145548  0  1.008033  0
H  H16  1  0.96609613  0.08120120  0.35418292  1  0  0.124181  0  0.94891  0  0  0.146964  0  1.008048  0  0  0.148762  0  1.008408  0  0  0.094023  0.145524  0  1.008098  0
H  H17  1  0.51583054  0.89097119  0.74959825  1  0  0.106283  0  1.033627  0  0  0.105614  0  1.115121  0  0  0.109791  0  1.115369  0  0  0.081764  0.102891  0  1.114909  0
H  H18  1  0.48417478  0.10903687  0.25041064  1  0  0.106245  0  1.033753  0  0  0.105612  0  1.115196  0  0  0.109784  0  1.115451  0  0  0.081765  0.102886  0  1.114989  0
H  H19  1  0.70688395  0.58404268  0.87815061  1  0  0.11773  0  0.934803  0  0  0.139692  0  0.992332  0  0  0.142178  0  0.991208  0  0  0.092124  0.138528  0  0.992365  0
H  H20  1  0.29309180  0.41594409  0.12185410  1  0  0.117825  0  0.934609  0  0  0.139774  0  0.992148  0  0  0.142264  0  0.991018  0  0  0.09214  0.138609  0  0.992182  0
H  H21  1  0.75466792  0.78202027  0.85531742  1  0  0.107566  0  0.981538  0  0  0.125838  0  1.045809  0  0  0.127252  0  1.046242  0  0  0.083666  0.124952  0  1.045887  0
H  H22  1  0.24531165  0.21796603  0.14470447  1  0  0.107562  0  0.981619  0  0  0.125819  0  1.045873  0  0  0.127231  0  1.046308  0  0  0.083703  0.124937  0  1.045945  0
H  H23  1  0.96232154  0.65452533  0.75870228  1  0  0.132922  0  0.954732  0  0  0.151941  0  1.016373  0  0  0.153991  0  1.016815  0  0  0.095987  0.150451  0  1.016179  0
H  H24  1  0.03766889  0.34546543  0.24132034  1  0  0.13302  0  0.954477  0  0  0.152023  0  1.016125  0  0  0.154074  0  1.016563  0  0  0.096043  0.150524  0  1.015939  0
C  C25  1  0.89519120  0.20774715  0.85688283  1  0  0.071299  0  3.826534  0  0  0.08714  0  4.056614  0  0  0.08822  0  4.081032  0  0  0.001453  0.086532  0  4.039876  0
C  C26  1  0.10480688  0.79226554  0.14310082  1  0  0.071087  0  3.826819  0  0  0.086911  0  4.056826  0  0  0.087989  0  4.081244  0  0  0.001437  0.086311  0  4.040087  0
C  C27  1  0.85949849  0.23521939  0.73422730  1  0  -0.123418  0  3.651909  0  0  -0.143992  0  3.902815  0  0  -0.150206  0  3.922107  0  0  -0.067691  -0.140337  0  3.891392  0
C  C28  1  0.14050829  0.76479305  0.26575110  1  0  -0.12316  0  3.651854  0  0  -0.143743  0  3.902669  0  0  -0.149983  0  3.921949  0  0  -0.067547  -0.140091  0  3.891244  0
C  C29  1  0.02383775  0.32241170  0.63996290  1  0  0.153086  0  3.651606  0  0  0.121332  0  3.911691  0  0  0.1288  0  3.926457  0  0  0.059781  0.116131  0  3.902907  0
C  C30  1  0.97619677  0.67759183  0.36001960  1  0  0.152935  0  3.651641  0  0  0.121257  0  3.911577  0  0  0.128716  0  3.926341  0  0  0.059811  0.116066  0  3.90278  0
C  C31  1  0.24988231  0.35843648  0.77938052  1  0  0.118512  0  3.72325  0  0  0.090571  0  3.976452  0  0  0.096308  0  3.995144  0  0  0.042474  0.086333  0  3.964821  0
C  C32  1  0.75013574  0.64155207  0.22061775  1  0  0.118424  0  3.723174  0  0  0.090511  0  3.976413  0  0  0.096245  0  3.995119  0  0  0.042539  0.086274  0  3.964772  0
C  C33  1  0.09527627  0.27267458  0.87894859  1  0  -0.166837  0  3.733783  0  0  -0.185677  0  3.979718  0  0  -0.19362  0  4.002777  0  0  -0.085025  -0.180018  0  3.964569  0
C  C34  1  0.90473565  0.72733162  0.12104237  1  0  -0.166632  0  3.733719  0  0  -0.185481  0  3.979616  0  0  -0.193451  0  4.002657  0  0  -0.084988  -0.17983  0  3.964465  0
C  C35  1  0.74068034  0.11276776  0.96037563  1  0  0.097423  0  3.655017  0  0  0.066158  0  3.911795  0  0  0.073309  0  3.923138  0  0  0.080843  0.060145  0  3.905458  0
C  C36  1  0.25928786  0.88724424  0.03961508  1  0  0.097228  0  3.655255  0  0  0.066047  0  3.911904  0  0  0.073209  0  3.923253  0  0  0.080701  0.060039  0  3.905563  0
C  C37  1  0.22298439  0.94643708  0.61154568  1  0  -0.411077  0  3.674688  0  0  -0.488577  0  3.901616  0  0  -0.494751  0  3.906438  0  0  -0.25153  -0.484053  0  3.897661  0
C  C38  1  0.77700610  0.05355576  0.38847308  1  0  -0.410874  0  3.674658  0  0  -0.488477  0  3.901544  0  0  -0.494642  0  3.906375  0  0  -0.251517  -0.483958  0  3.897582  0
C  C39  1  0.36166486  0.80575350  0.60780624  1  0  0.51783  0  3.785837  0  0  0.506778  0  4.046654  0  0  0.533842  0  4.051224  0  0  0.117285  0.489071  0  4.041676  0
C  C40  1  0.63833120  0.19424782  0.39220082  1  0  0.517488  0  3.785997  0  0  0.506639  0  4.046494  0  0  0.533709  0  4.051055  0  0  0.117232  0.488942  0  4.041509  0
C  C41  1  0.50995669  0.79538494  0.68932149  1  0  -0.500456  0  3.739341  0  0  -0.518985  0  4.003299  0  0  -0.545503  0  4.023381  0  0  -0.175209  -0.50004  0  3.987998  0
C  C42  1  0.49004626  0.20461305  0.31068736  1  0  -0.50029  0  3.73958  0  0  -0.518892  0  4.003412  0  0  -0.545406  0  4.023496  0  0  -0.17513  -0.499949  0  3.988104  0
C  C43  1  0.64577381  0.67190354  0.70293786  1  0  0.516111  0  3.778028  0  0  0.502173  0  4.04242  0  0  0.529197  0  4.047523  0  0  0.115729  0.48419  0  4.037366  0
C  C44  1  0.35423618  0.32809441  0.29707072  1  0  0.516288  0  3.777821  0  0  0.502334  0  4.042237  0  0  0.529345  0  4.047345  0  0  0.115825  0.484364  0  4.037179  0
C  C45  1  0.77507403  0.67553016  0.80519586  1  0  -0.410688  0  3.681051  0  0  -0.487699  0  3.913537  0  0  -0.493052  0  3.916662  0  0  -0.250869  -0.483955  0  3.910757  0
C  C46  1  0.22491451  0.32446137  0.19481767  1  0  -0.411012  0  3.680635  0  0  -0.487945  0  3.913166  0  0  -0.493299  0  3.916283  0  0  -0.251026  -0.484194  0  3.91039  0
N  N47  1  0.21681138  0.38251881  0.66117774  1  0  -0.299663  0  3.200974  0  0  -0.232784  0  3.46773  0  0  -0.248624  0  3.483509  0  0  -0.305546  -0.22244  0  3.458415  0
N  N48  1  0.78321901  0.61747168  0.33881455  1  0  -0.299712  0  3.201233  0  0  -0.232889  0  3.467978  0  0  -0.248728  0  3.483754  0  0  -0.305685  -0.222541  0  3.458655  0
N  N49  1  0.55969892  0.04308129  0.94469034  1  0  -0.212907  0  3.049561  0  0  -0.179789  0  3.337793  0  0  -0.188657  0  3.354133  0  0  -0.210736  -0.173906  0  3.327611  0
N  N50  1  0.44027392  0.95692452  0.05528580  1  0  -0.21312  0  3.049833  0  0  -0.180059  0  3.338064  0  0  -0.188927  0  3.354402  0  0  -0.210884  -0.174173  0  3.327877  0
O  O51  1  0.66929826  0.55230698  0.63746845  1  0  -0.583056  0  2.079035  0  0  -0.506084  0  2.327865  0  0  -0.534167  0  2.319996  0  0  -0.300003  -0.485611  0  2.332477  0
O  O52  1  0.33072287  0.44770488  0.36252534  1  0  -0.583121  0  2.078854  0  0  -0.506159  0  2.327692  0  0  -0.534213  0  2.319796  0  0  -0.300113  -0.485732  0  2.332339  0
O  O53  1  0.32987521  0.70522917  0.53165607  1  0  -0.574967  0  2.041914  0  0  -0.502935  0  2.287789  0  0  -0.529669  0  2.279367  0  0  -0.300321  -0.483547  0  2.292287  0
O  O54  1  0.67013307  0.29476888  0.46835467  1  0  -0.574871  0  2.04199  0  0  -0.50297  0  2.287891  0  0  -0.529725  0  2.279471  0  0  -0.300364  -0.483555  0  2.292315  0
