# generated using pymatgen
data_NiPH25C31N2O9
_symmetry_space_group_name_H-M   'P 1'
_cell_length_a   10.15798303
_cell_length_b   14.29031539
_cell_length_c   20.90726125
_cell_angle_alpha   92.70123196
_cell_angle_beta   89.99933588
_cell_angle_gamma   90.00005195
_symmetry_Int_Tables_number   1
_chemical_formula_structural   NiPH25C31N2O9
_chemical_formula_sum   'Ni4 P4 H100 C124 N8 O36'
_cell_volume   3031.54216705
_cell_formula_units_Z   4
loop_
 _symmetry_equiv_pos_site_id
 _symmetry_equiv_pos_as_xyz
  1  'x, y, z'
loop_
 _atom_site_type_symbol
 _atom_site_label
 _atom_site_symmetry_multiplicity
 _atom_site_fract_x
 _atom_site_fract_y
 _atom_site_fract_z
 _atom_site_occupancy
 _atom_site_pbe_bader_charge
 _atom_site_pbe_bader_spin_density
 _atom_site_pbe_cm5_charge
 _atom_site_pbe_ddec_charge
 _atom_site_pbe_ddec_spin_density
 _atom_site_pbe_ddec_sum_bond_order
 _atom_site_pbe_magmom
Ni  Ni0  1  0.24887831  0.74255232  0.85054592  1  0.970724  0  0.64607  0.548023  0  2.868243  0
Ni  Ni1  1  0.74888551  0.75743966  0.64944456  1  0.97054  0  0.646242  0.548175  0  2.868898  0
Ni  Ni2  1  0.75114751  0.25744872  0.14946374  1  0.970564  0  0.64586  0.547868  0  2.867421  0
Ni  Ni3  1  0.25115409  0.24255500  0.35054433  1  0.970711  0  0.646043  0.54796  0  2.867899  0
P  P4  1  0.05603217  0.22221533  0.63707749  1  2.694129  0  0.258491  0.818958  0  4.818657  0
P  P5  1  0.55602934  0.27778633  0.86292916  1  2.694297  0  0.258463  0.818887  0  4.819257  0
P  P6  1  0.94395329  0.77777797  0.36292236  1  2.693348  0  0.258353  0.818822  0  4.818524  0
P  P7  1  0.44394234  0.72222798  0.13706990  1  2.693507  0  0.258307  0.818713  0  4.818452  0
H  H8  1  0.30015313  0.19188961  0.58103896  1  0.640625  0  0.299934  0.370455  0  0.975125  0
H  H9  1  0.80014605  0.30810789  0.91896764  1  0.640827  0  0.299925  0.370386  0  0.975152  0
H  H10  1  0.69984808  0.80808479  0.41896414  1  0.640403  0  0.299956  0.370468  0  0.975081  0
H  H11  1  0.19983252  0.69190992  0.08103201  1  0.640529  0  0.299955  0.370363  0  0.975369  0
H  H12  1  0.01092977  0.80024478  0.91278971  1  0.637046  0  0.270356  0.367649  0  0.978843  0
H  H13  1  0.51095316  0.69972970  0.58721687  1  0.636869  0  0.270419  0.367777  0  0.978703  0
H  H14  1  0.98908620  0.19976395  0.08721732  1  0.63624  0  0.27037  0.36766  0  0.978815  0
H  H15  1  0.48907266  0.30025868  0.41277709  1  0.636862  0  0.270416  0.367802  0  0.978629  0
H  H16  1  0.98591876  0.69685245  0.89363098  1  0.613126  0  0.265723  0.353626  0  0.99922  0
H  H17  1  0.48593327  0.80312560  0.60637018  1  0.613434  0  0.26563  0.353519  0  0.999341  0
H  H18  1  0.01409328  0.30315558  0.10637363  1  0.6134  0  0.265702  0.353594  0  0.999314  0
H  H19  1  0.51409156  0.19686558  0.39362195  1  0.613571  0  0.265645  0.353612  0  0.999347  0
H  H20  1  0.36010824  0.68548451  0.75113354  1  0.620204  0  0.293363  0.379048  0  0.94809  0
H  H21  1  0.86004324  0.81450266  0.74887913  1  0.620413  0  0.293458  0.379111  0  0.948071  0
H  H22  1  0.63987525  0.31451650  0.24886702  1  0.620742  0  0.29336  0.379152  0  0.947925  0
H  H23  1  0.13989497  0.18549486  0.25112612  1  0.620582  0  0.293408  0.379065  0  0.948049  0
H  H24  1  0.44867144  0.76591455  0.72775917  1  0.617375  0  0.288903  0.378231  0  0.952813  0
H  H25  1  0.94864710  0.73408451  0.77224763  1  0.61664  0  0.288926  0.378317  0  0.95268  0
H  H26  1  0.55128843  0.23408290  0.27222742  1  0.617525  0  0.288854  0.378223  0  0.952837  0
H  H27  1  0.05129898  0.26592495  0.22776946  1  0.617411  0  0.288821  0.378112  0  0.952984  0
H  H28  1  0.88841438  0.48182464  0.78030237  1  0.119003  0  0.103558  0.107302  0  1.04668  0
H  H29  1  0.38836963  0.01819045  0.71972341  1  0.119338  0  0.103477  0.1073  0  1.046634  0
H  H30  1  0.11156615  0.51817631  0.21968146  1  0.118578  0  0.103592  0.107366  0  1.046719  0
H  H31  1  0.61156562  0.98181628  0.28031273  1  0.118857  0  0.103566  0.107324  0  1.04653  0
H  H32  1  0.86809898  0.33019613  0.71807528  1  0.071007  0  0.103932  0.105806  0  1.007645  0
H  H33  1  0.36809036  0.16979585  0.78195468  1  0.070829  0  0.103963  0.105873  0  1.007686  0
H  H34  1  0.13189337  0.66982097  0.28192195  1  0.070938  0  0.103933  0.105828  0  1.007514  0
H  H35  1  0.63187836  0.83018214  0.21807818  1  0.071187  0  0.103951  0.105818  0  1.007693  0
H  H36  1  0.99540004  0.20393311  0.77559211  1  0.08148  0  0.09791  0.093622  0  1.031343  0
H  H37  1  0.49539595  0.29605181  0.72441206  1  0.08123  0  0.097881  0.09356  0  1.031343  0
H  H38  1  0.00459231  0.79606933  0.22441759  1  0.081255  0  0.097917  0.093557  0  1.031239  0
H  H39  1  0.50457671  0.70393728  0.27558575  1  0.081435  0  0.097904  0.093519  0  1.031268  0
H  H40  1  0.01444551  0.06729129  0.84478621  1  0.120847  0  0.106764  0.117929  0  1.031934  0
H  H41  1  0.51443216  0.43268374  0.65521746  1  0.120949  0  0.106727  0.117891  0  1.032008  0
H  H42  1  0.98554389  0.93273498  0.15522757  1  0.121037  0  0.106763  0.117877  0  1.032171  0
H  H43  1  0.48552869  0.56727870  0.34477044  1  0.121203  0  0.106748  0.117942  0  1.03217  0
H  H44  1  0.19218308  0.90444316  0.68993960  1  0.125902  0  0.112627  0.12318  0  0.9862  0
H  H45  1  0.69220784  0.59553131  0.81005736  1  0.126183  0  0.112613  0.123074  0  0.986139  0
H  H46  1  0.80779942  0.09556420  0.31007886  1  0.125431  0  0.112699  0.123293  0  0.986001  0
H  H47  1  0.30779731  0.40444439  0.18991660  1  0.125464  0  0.112686  0.123248  0  0.986101  0
H  H48  1  0.17169202  0.04074147  0.61919852  1  0.080813  0  0.1026  0.101068  0  1.023359  0
H  H49  1  0.67171955  0.45923846  0.88079629  1  0.080688  0  0.102566  0.101029  0  1.023502  0
H  H50  1  0.82829344  0.95924418  0.38081736  1  0.081321  0  0.102704  0.101223  0  1.023512  0
H  H51  1  0.32829249  0.54076176  0.11917938  1  0.081271  0  0.102667  0.101166  0  1.023411  0
H  H52  1  0.83012339  0.09833871  0.66614933  1  0.086134  0  0.099988  0.10069  0  1.030522  0
H  H53  1  0.33014045  0.40165667  0.83384985  1  0.086134  0  0.099992  0.100665  0  1.030523  0
H  H54  1  0.16987290  0.90166302  0.33385747  1  0.086321  0  0.099932  0.10058  0  1.03024  0
H  H55  1  0.66985584  0.59836181  0.16613834  1  0.086667  0  0.099978  0.100649  0  1.030311  0
H  H56  1  0.59238558  0.10982678  0.63935148  1  0.095533  0  0.101408  0.104632  0  1.031419  0
H  H57  1  0.09240296  0.39017696  0.86064690  1  0.095274  0  0.10141  0.104624  0  1.031494  0
H  H58  1  0.40761071  0.89017073  0.36064994  1  0.095707  0  0.101417  0.104657  0  1.031385  0
H  H59  1  0.90759332  0.60984084  0.13934796  1  0.095597  0  0.101466  0.104687  0  1.031383  0
H  H60  1  0.66750727  0.35396723  0.53256883  1  0.122385  0  0.117437  0.127902  0  0.97305  0
H  H61  1  0.16750893  0.14604426  0.96744084  1  0.116939  0  0.117457  0.128003  0  0.973015  0
H  H62  1  0.33247917  0.64600009  0.46741252  1  0.122322  0  0.117439  0.127943  0  0.972851  0
H  H63  1  0.83247063  0.85400441  0.03256884  1  0.12219  0  0.117347  0.127825  0  0.97288  0
H  H64  1  0.90794449  0.34005528  0.55536966  1  0.076671  0  0.098798  0.094909  0  1.035823  0
H  H65  1  0.40794474  0.15994996  0.94464040  1  0.076673  0  0.098814  0.094928  0  1.035881  0
H  H66  1  0.09204097  0.65992467  0.44461830  1  0.076463  0  0.098822  0.094938  0  1.03582  0
H  H67  1  0.59203285  0.84008120  0.05536923  1  0.077098  0  0.098784  0.094788  0  1.036241  0
H  H68  1  0.27095268  0.35786656  0.65411050  1  0.119412  0  0.105969  0.110403  0  1.037546  0
H  H69  1  0.77094514  0.14211270  0.84588900  1  0.119499  0  0.105887  0.110354  0  1.037395  0
H  H70  1  0.72903278  0.64213095  0.34589283  1  0.119226  0  0.105922  0.110344  0  1.037528  0
H  H71  1  0.22903441  0.85789386  0.15409643  1  0.118784  0  0.105852  0.110403  0  1.037402  0
H  H72  1  0.28853230  0.50955504  0.71690957  1  0.121381  0  0.109306  0.116256  0  1.008851  0
H  H73  1  0.78851301  0.99044885  0.78308249  1  0.121832  0  0.109248  0.116217  0  1.009017  0
H  H74  1  0.71145217  0.49044314  0.28308373  1  0.121255  0  0.109272  0.116224  0  1.008832  0
H  H75  1  0.21146556  0.00957731  0.21690068  1  0.122175  0  0.109268  0.116256  0  1.008886  0
H  H76  1  0.43120428  0.87883723  0.82514423  1  0.146446  0  0.125668  0.102174  0  1.021913  0
H  H77  1  0.93121559  0.62117723  0.67485596  1  0.146368  0  0.125605  0.102129  0  1.021892  0
H  H78  1  0.56879890  0.12114834  0.17484821  1  0.146645  0  0.125627  0.102138  0  1.021988  0
H  H79  1  0.06882696  0.37885741  0.32514707  1  0.146617  0  0.125619  0.102195  0  1.021821  0
H  H80  1  0.56346705  0.99410202  0.89011968  1  0.096289  0  0.105236  0.109705  0  1.052558  0
H  H81  1  0.06347119  0.50591517  0.60988074  1  0.096416  0  0.105282  0.109743  0  1.052651  0
H  H82  1  0.43654696  0.00587584  0.10987300  1  0.096723  0  0.10525  0.109645  0  1.052728  0
H  H83  1  0.93658121  0.49412998  0.39012453  1  0.096901  0  0.105236  0.109626  0  1.052866  0
H  H84  1  0.32420122  0.92301735  0.05333296  1  0.100814  0  0.114092  0.123894  0  1.018635  0
H  H85  1  0.82419411  0.57697250  0.44667144  1  0.100923  0  0.114072  0.1238  0  1.018789  0
H  H86  1  0.67581476  0.07698434  0.94666380  1  0.100722  0  0.114124  0.123829  0  1.018604  0
H  H87  1  0.17580513  0.42300681  0.55333612  1  0.100795  0  0.114125  0.123839  0  1.018766  0
H  H88  1  0.20590959  0.81159714  0.98188544  1  0.166407  0  0.12995  0.114468  0  1.013462  0
H  H89  1  0.70588146  0.68838995  0.51811278  1  0.166868  0  0.129899  0.114398  0  1.013481  0
H  H90  1  0.79408965  0.18840948  0.01811673  1  0.166582  0  0.129945  0.114464  0  1.013504  0
H  H91  1  0.29408530  0.31158514  0.48189034  1  0.166888  0  0.129937  0.114443  0  1.013459  0
H  H92  1  0.51292243  0.71616863  0.88393971  1  0.142105  0  0.12985  0.105151  0  0.986606  0
H  H93  1  0.01291601  0.78382124  0.61606255  1  0.142102  0  0.129874  0.105179  0  0.986786  0
H  H94  1  0.48709551  0.28386532  0.11606761  1  0.142252  0  0.129887  0.105272  0  0.986778  0
H  H95  1  0.98710587  0.21613072  0.38393412  1  0.142415  0  0.12989  0.105348  0  0.98674  0
H  H96  1  0.63711547  0.61372223  0.95331633  1  0.05359  0  0.118056  0.125087  0  0.990017  0
H  H97  1  0.13710693  0.88626347  0.54669085  1  0.053456  0  0.118043  0.125137  0  0.990112  0
H  H98  1  0.36292512  0.38631872  0.04669121  1  0.054063  0  0.117956  0.124976  0  0.990116  0
H  H99  1  0.86294547  0.11367941  0.45331559  1  0.054114  0  0.11794  0.124916  0  0.99001  0
H  H100  1  0.26699710  0.47720355  0.99471971  1  0.075694  0  0.116506  0.123585  0  0.991308  0
H  H101  1  0.76700841  0.02279325  0.50528658  1  0.075608  0  0.116552  0.123649  0  0.991332  0
H  H102  1  0.73305432  0.52280651  0.00526344  1  0.075473  0  0.116517  0.123614  0  0.991443  0
H  H103  1  0.23306467  0.97718892  0.49473685  1  0.075269  0  0.116577  0.123737  0  0.991195  0
H  H104  1  0.15726950  0.59304700  0.92893911  1  0.157571  0  0.131088  0.109587  0  0.982776  0
H  H105  1  0.65726011  0.90694781  0.57106728  1  0.157136  0  0.131148  0.109691  0  0.982582  0
H  H106  1  0.84279176  0.40695326  0.07104852  1  0.156806  0  0.131067  0.109691  0  0.982764  0
H  H107  1  0.34281001  0.09303852  0.42894575  1  0.156781  0  0.131096  0.109761  0  0.982462  0
C  C108  1  0.09189105  0.59644856  0.79161129  1  1.556682  0  0.217706  0.556233  0  4.188621  0
C  C109  1  0.59187737  0.90353359  0.70837929  1  1.557469  0  0.217672  0.556398  0  4.188306  0
C  C110  1  0.90810819  0.40357418  0.20839330  1  1.556494  0  0.217554  0.556183  0  4.188783  0
C  C111  1  0.40811597  0.09644146  0.29160805  1  1.556266  0  0.217677  0.556297  0  4.1883  0
C  C112  1  0.08884655  0.50480827  0.75284613  1  -0.009947  0  -0.011498  -0.031282  0  3.94755  0
C  C113  1  0.58882617  0.99517392  0.74715881  1  -0.010805  0  -0.011592  -0.031527  0  3.947966  0
C  C114  1  0.91115269  0.49521303  0.24714980  1  -0.007859  0  -0.011445  -0.0311  0  3.947651  0
C  C115  1  0.41115634  0.00480678  0.25284257  1  -0.008027  0  -0.011484  -0.03114  0  3.947741  0
C  C116  1  0.97150008  0.45326107  0.75300851  1  -0.050617  0  -0.079175  -0.088009  0  3.956567  0
C  C117  1  0.47148720  0.04673229  0.74701087  1  -0.050275  0  -0.078994  -0.087792  0  3.957085  0
C  C118  1  0.02849325  0.54675881  0.24698116  1  -0.05164  0  -0.079206  -0.088151  0  3.95704  0
C  C119  1  0.52848447  0.95325127  0.25301020  1  -0.052119  0  -0.079211  -0.088097  0  3.95701  0
C  C120  1  0.96128581  0.36814570  0.71836637  1  -0.052378  0  -0.080489  -0.078493  0  3.986903  0
C  C121  1  0.46127124  0.13184485  0.78164868  1  -0.053513  0  -0.080593  -0.078719  0  3.986905  0
C  C122  1  0.03870555  0.63186997  0.28162126  1  -0.05213  0  -0.080505  -0.078482  0  3.986338  0
C  C123  1  0.53870142  0.86813521  0.21837085  1  -0.052057  0  -0.080549  -0.078544  0  3.986269  0
C  C124  1  0.06946940  0.33279523  0.68303884  1  -0.515509  0  -0.025353  -0.148698  0  3.993672  0
C  C125  1  0.56946949  0.16720854  0.81696828  1  -0.515175  0  -0.025296  -0.148548  0  3.993461  0
C  C126  1  0.93051113  0.66720578  0.31696029  1  -0.516159  0  -0.025173  -0.148535  0  3.993296  0
C  C127  1  0.43050219  0.83279807  0.18303390  1  -0.516744  0  -0.025054  -0.148427  0  3.992866  0
C  C128  1  0.07913543  0.12998376  0.69217128  1  -0.583544  0  -0.031198  -0.154915  0  4.013387  0
C  C129  1  0.57913899  0.36999898  0.80783084  1  -0.583722  0  -0.031221  -0.155106  0  4.013805  0
C  C130  1  0.92084412  0.87002077  0.30783561  1  -0.583456  0  -0.03126  -0.155218  0  4.013512  0
C  C131  1  0.42083367  0.62998940  0.19216360  1  -0.583006  0  -0.03132  -0.155135  0  4.013364  0
C  C132  1  0.03683296  0.13817447  0.75613593  1  -0.086596  0  -0.086036  -0.082727  0  3.99819  0
C  C133  1  0.53682525  0.36181106  0.74386746  1  -0.086477  0  -0.085999  -0.082509  0  3.998056  0
C  C134  1  0.96315053  0.86182725  0.24386992  1  -0.086201  0  -0.085933  -0.082282  0  3.997659  0
C  C135  1  0.46312674  0.63818222  0.25612713  1  -0.086269  0  -0.085939  -0.082256  0  3.997825  0
C  C136  1  0.04744773  0.06209467  0.79508570  1  -0.015439  0  -0.081354  -0.097749  0  3.938079  0
C  C137  1  0.54744600  0.43788808  0.70491899  1  -0.015651  0  -0.08132  -0.097822  0  3.938119  0
C  C138  1  0.95253576  0.93791900  0.20493009  1  -0.014978  0  -0.081421  -0.097954  0  3.938831  0
C  C139  1  0.45252273  0.56209118  0.29506943  1  -0.015098  0  -0.081388  -0.098088  0  3.938901  0
C  C140  1  0.10114047  0.97738165  0.77074552  1  -0.026603  0  -0.003542  -0.003295  0  3.921825  0
C  C141  1  0.60114639  0.52260052  0.72925266  1  -0.026387  0  -0.003552  -0.003276  0  3.921967  0
C  C142  1  0.89885089  0.02262151  0.22926947  1  -0.026843  0  -0.003443  -0.003087  0  3.92266  0
C  C143  1  0.39883316  0.47738502  0.27073117  1  -0.026622  0  -0.003352  -0.002962  0  3.922538  0
C  C144  1  0.10928815  0.89689160  0.81449878  1  1.566965  0  0.207978  0.551392  0  4.214248  0
C  C145  1  0.60930214  0.60309338  0.68550374  1  1.567026  0  0.208013  0.551308  0  4.214102  0
C  C146  1  0.89070419  0.10310736  0.18551894  1  1.566658  0  0.208299  0.551747  0  4.213882  0
C  C147  1  0.39069021  0.39690056  0.31447891  1  1.566797  0  0.208171  0.551488  0  4.214048  0
C  C148  1  0.14722518  0.96988624  0.70756893  1  -0.043393  0  -0.076122  -0.082212  0  3.935591  0
C  C149  1  0.64724632  0.53008612  0.79242725  1  -0.04305  0  -0.076134  -0.082165  0  3.935344  0
C  C150  1  0.85275142  0.03011831  0.29244562  1  -0.043234  0  -0.076125  -0.082335  0  3.935659  0
C  C151  1  0.35273717  0.46989099  0.20754866  1  -0.043091  0  -0.076236  -0.082539  0  3.935431  0
C  C152  1  0.13591464  0.04572980  0.66838852  1  -0.037496  0  -0.082731  -0.081284  0  3.981449  0
C  C153  1  0.63592662  0.45424593  0.83161068  1  -0.037426  0  -0.082646  -0.081023  0  3.98145  0
C  C154  1  0.86405211  0.95427054  0.33162495  1  -0.038124  0  -0.082881  -0.081359  0  3.98169  0
C  C155  1  0.36404408  0.54574242  0.16837611  1  -0.038855  0  -0.082781  -0.081155  0  3.981341  0
C  C156  1  0.88461131  0.21897639  0.61306863  1  -0.594502  0  -0.026198  -0.146097  0  3.994631  0
C  C157  1  0.38462101  0.28102954  0.88694111  1  -0.594807  0  -0.026288  -0.146188  0  3.995094  0
C  C158  1  0.11538399  0.78101480  0.38693116  1  -0.594617  0  -0.026152  -0.146181  0  3.994759  0
C  C159  1  0.61536937  0.71899247  0.11305580  1  -0.59466  0  -0.026191  -0.146299  0  3.995355  0
C  C160  1  0.79580793  0.15342425  0.63589987  1  -0.059709  0  -0.085478  -0.087392  0  4.008456  0
C  C161  1  0.29582024  0.34657254  0.86410291  1  -0.059342  0  -0.085457  -0.087334  0  4.008784  0
C  C162  1  0.20419131  0.84656976  0.36410336  1  -0.059505  0  -0.08551  -0.087257  0  4.008244  0
C  C163  1  0.70417605  0.65344595  0.13588672  1  -0.059612  0  -0.085519  -0.087215  0  4.008705  0
C  C164  1  0.66212704  0.15994466  0.62115544  1  0.010649  0  -0.083767  -0.096196  0  3.951503  0
C  C165  1  0.16214391  0.34006050  0.87884307  1  0.010219  0  -0.083739  -0.09619  0  3.951574  0
C  C166  1  0.33786531  0.84004794  0.37884439  1  0.011187  0  -0.083784  -0.096202  0  3.951742  0
C  C167  1  0.83784745  0.65996359  0.12114672  1  0.010484  0  -0.083933  -0.096437  0  3.952104  0
C  C168  1  0.61591658  0.23344493  0.58537136  1  -0.037371  0  -0.004261  -0.018501  0  3.947559  0
C  C169  1  0.11592658  0.26655813  0.91463261  1  -0.036921  0  -0.004361  -0.01852  0  3.947451  0
C  C170  1  0.38407872  0.76653503  0.41462187  1  -0.037776  0  -0.004224  -0.018487  0  3.947877  0
C  C171  1  0.88406184  0.73347861  0.08537145  1  -0.036431  0  -0.004327  -0.0186  0  3.948265  0
C  C172  1  0.47170695  0.25026421  0.57795094  1  1.53762  0  0.233316  0.587358  0  4.115186  0
C  C173  1  0.97171743  0.24973680  0.92205050  1  1.537619  0  0.233391  0.587588  0  4.115182  0
C  C174  1  0.52829130  0.74970596  0.42204724  1  1.53824  0  0.233228  0.587078  0  4.115723  0
C  C175  1  0.02828378  0.75031813  0.07794646  1  1.539644  0  0.233253  0.58714  0  4.116312  0
C  C176  1  0.70514330  0.29781102  0.56096785  1  -0.027007  0  -0.067991  -0.072316  0  3.925052  0
C  C177  1  0.20514769  0.20219627  0.93904005  1  -0.021443  0  -0.067936  -0.072423  0  3.925017  0
C  C178  1  0.29485791  0.70216612  0.43901859  1  -0.027114  0  -0.068045  -0.072461  0  3.925212  0
C  C179  1  0.79484368  0.79783978  0.06096685  1  -0.027178  0  -0.067862  -0.072222  0  3.925253  0
C  C180  1  0.83866571  0.28983249  0.57405369  1  -0.017755  0  -0.08049  -0.076088  0  3.974391  0
C  C181  1  0.33867633  0.21017341  0.92595056  1  -0.017976  0  -0.080439  -0.076074  0  3.974394  0
C  C182  1  0.16132074  0.71015166  0.42593488  1  -0.017829  0  -0.080456  -0.076028  0  3.974549  0
C  C183  1  0.66130519  0.78986193  0.07405441  1  -0.01916  0  -0.080357  -0.075812  0  3.974646  0
C  C184  1  0.18775769  0.38381593  0.68293355  1  -0.08279  0  -0.080549  -0.08221  0  3.959121  0
C  C185  1  0.68773604  0.11617594  0.81706920  1  -0.08265  0  -0.080411  -0.082087  0  3.959125  0
C  C186  1  0.81221793  0.61618575  0.31705939  1  -0.082497  0  -0.080632  -0.082299  0  3.959212  0
C  C187  1  0.31222284  0.88383276  0.18292778  1  -0.081396  0  -0.080592  -0.082367  0  3.958931  0
C  C188  1  0.19720508  0.46957050  0.71768860  1  -0.068635  0  -0.078148  -0.087784  0  3.926686  0
C  C189  1  0.69717724  0.03042065  0.78231073  1  -0.068997  0  -0.078182  -0.087804  0  3.92703  0
C  C190  1  0.80277743  0.53043539  0.28230734  1  -0.068718  0  -0.078076  -0.087739  0  3.926653  0
C  C191  1  0.30279050  0.96958383  0.21768373  1  -0.069808  0  -0.078109  -0.087835  0  3.926711  0
C  C192  1  0.41351119  0.89189026  0.87609238  1  0.438493  0  0.048438  0.076142  0  3.915223  0
C  C193  1  0.91351189  0.60812140  0.62390974  1  0.437829  0  0.048604  0.076314  0  3.915265  0
C  C194  1  0.58651365  0.10809323  0.12390717  1  0.437986  0  0.048364  0.075977  0  3.914924  0
C  C195  1  0.08652869  0.39190133  0.37609245  1  0.437332  0  0.048396  0.075918  0  3.915172  0
C  C196  1  0.48602715  0.95562470  0.91331954  1  -0.005767  0  -0.07999  -0.160387  0  3.935746  0
C  C197  1  0.98602669  0.54438556  0.58668070  1  -0.00597  0  -0.080046  -0.160449  0  3.935941  0
C  C198  1  0.51399768  0.04435318  0.08667745  1  -0.007221  0  -0.079881  -0.160125  0  3.935308  0
C  C199  1  0.01402079  0.45564277  0.41332071  1  -0.007244  0  -0.079819  -0.15999  0  3.935713  0
C  C200  1  0.45992867  0.96804072  0.97924871  1  -0.049606  0  0.009437  0.087962  0  3.984759  0
C  C201  1  0.95993568  0.53196323  0.52075052  1  -0.049119  0  0.009389  0.087948  0  3.984696  0
C  C202  1  0.54009814  0.03195746  0.02074412  1  -0.010884  0  0.00928  0.087615  0  3.98506  0
C  C203  1  0.04010491  0.46804341  0.47925691  1  -0.01074  0  0.00931  0.087452  0  3.985081  0
C  C204  1  0.35464487  0.91672403  0.00349306  1  -0.000567  0  -0.070316  -0.144508  0  3.890294  0
C  C205  1  0.85463853  0.58327213  0.49651136  1  -5.3e-05  0  -0.070399  -0.14454  0  3.890299  0
C  C206  1  0.64536127  0.08328466  0.99650057  1  0.000383  0  -0.070295  -0.144364  0  3.89033  0
C  C207  1  0.14536169  0.41671070  0.50350156  1  -0.000323  0  -0.070303  -0.144281  0  3.890394  0
C  C208  1  0.28636183  0.85316854  0.96394056  1  0.483669  0  0.063722  0.108219  0  3.869721  0
C  C209  1  0.78634797  0.64682629  0.53606224  1  0.482688  0  0.063915  0.108436  0  3.869521  0
C  C210  1  0.71363938  0.14683877  0.03605877  1  0.483239  0  0.063711  0.108188  0  3.869688  0
C  C211  1  0.21363552  0.35315092  0.46394525  1  0.483832  0  0.063776  0.108179  0  3.869544  0
C  C212  1  0.46271427  0.66350241  0.91087016  1  0.460618  0  0.056342  0.093309  0  3.899729  0
C  C213  1  0.96272009  0.83649246  0.58913835  1  0.460148  0  0.056374  0.093302  0  3.899742  0
C  C214  1  0.53731155  0.33651119  0.08912553  1  0.451895  0  0.056145  0.092818  0  3.899873  0
C  C215  1  0.03732542  0.16348687  0.41087686  1  0.451615  0  0.055949  0.09252  0  3.899855  0
C  C216  1  0.53117814  0.60404976  0.94910555  1  -0.013509  0  -0.071547  -0.154583  0  3.943973  0
C  C217  1  0.03117543  0.89594083  0.55090093  1  -0.012951  0  -0.071589  -0.154803  0  3.944283  0
C  C218  1  0.46886442  0.39597576  0.05089433  1  -0.004034  0  -0.07151  -0.154416  0  3.943801  0
C  C219  1  0.96888485  0.10402099  0.44911087  1  -0.003757  0  -0.071416  -0.154316  0  3.943861  0
C  C220  1  0.46450207  0.53325852  0.98039149  1  0.075835  0  0.013198  0.09569  0  3.974035  0
C  C221  1  0.96450090  0.96673283  0.51961068  1  0.07565  0  0.013284  0.095839  0  3.97372  0
C  C222  1  0.53554541  0.46675715  0.01959661  1  0.032021  0  0.013371  0.095761  0  3.974107  0
C  C223  1  0.03555150  0.03323251  0.48040792  1  0.031995  0  0.013503  0.096029  0  3.974086  0
C  C224  1  0.32724362  0.52922884  0.97215750  1  -0.01126  0  -0.070435  -0.149829  0  3.923469  0
C  C225  1  0.82723734  0.97075901  0.52785059  1  -0.01056  0  -0.070477  -0.149888  0  3.923689  0
C  C226  1  0.67280386  0.47078053  0.02782754  1  -0.007213  0  -0.070454  -0.149894  0  3.924162  0
C  C227  1  0.17281703  0.02921475  0.47217162  1  -0.007048  0  -0.070664  -0.150279  0  3.92421  0
C  C228  1  0.26379452  0.59254304  0.93451518  1  0.443271  0  0.058861  0.095656  0  3.88946  0
C  C229  1  0.76378822  0.90745320  0.56549209  1  0.442662  0  0.058774  0.095468  0  3.889658  0
C  C230  1  0.73625493  0.40746002  0.06547014  1  0.440136  0  0.059025  0.095635  0  3.889072  0
C  C231  1  0.23626418  0.09253317  0.43452907  1  0.440093  0  0.059128  0.095674  0  3.888885  0
N  N232  1  0.31783437  0.83982278  0.90166145  1  -1.186911  0  -0.344988  -0.164169  0  3.734932  0
N  N233  1  0.81783774  0.66018255  0.59833671  1  -1.186635  0  -0.345092  -0.164214  0  3.735525  0
N  N234  1  0.68219244  0.16016493  0.09834063  1  -1.186766  0  -0.344812  -0.163848  0  3.734483  0
N  N235  1  0.18219596  0.33982686  0.40166268  1  -1.186708  0  -0.344933  -0.163794  0  3.734533  0
N  N236  1  0.33078166  0.65820120  0.90367997  1  -1.168796  0  -0.339562  -0.160527  0  3.683541  0
N  N237  1  0.83077354  0.84179224  0.59632540  1  -1.168139  0  -0.339664  -0.160386  0  3.68359  0
N  N238  1  0.66926779  0.34180539  0.09631311  1  -1.169296  0  -0.339508  -0.160299  0  3.682472  0
N  N239  1  0.16928182  0.15819339  0.40368617  1  -1.169324  0  -0.339529  -0.160217  0  3.682405  0
O  O240  1  0.20452759  0.63853332  0.79416066  1  -1.115148  0  -0.302187  -0.488682  0  2.449724  0
O  O241  1  0.70449421  0.86143899  0.70581368  1  -1.114646  0  -0.302257  -0.488823  0  2.450448  0
O  O242  1  0.79547362  0.36149158  0.20586216  1  -1.11462  0  -0.302121  -0.488718  0  2.449343  0
O  O243  1  0.29548829  0.13852058  0.29415166  1  -1.114666  0  -0.302215  -0.488718  0  2.449614  0
O  O244  1  0.98813953  0.62496650  0.81885222  1  -1.181814  0  -0.301202  -0.536381  0  2.193012  0
O  O245  1  0.48810904  0.87504442  0.68113464  1  -1.182105  0  -0.301077  -0.536354  0  2.192772  0
O  O246  1  0.01185282  0.37504009  0.18114421  1  -1.18199  0  -0.30106  -0.53629  0  2.192875  0
O  O247  1  0.51186657  0.12496427  0.31885708  1  -1.181997  0  -0.30111  -0.536388  0  2.192733  0
O  O248  1  0.14976896  0.21433000  0.58096195  1  -1.429146  0  -0.351905  -0.64285  0  2.220992  0
O  O249  1  0.64976874  0.28567728  0.91904244  1  -1.429155  0  -0.351944  -0.642852  0  2.220989  0
O  O250  1  0.85022831  0.78566683  0.41904758  1  -1.429107  0  -0.35192  -0.642828  0  2.220656  0
O  O251  1  0.35021082  0.71433071  0.08095021  1  -1.42926  0  -0.351768  -0.642619  0  2.220697  0
O  O252  1  0.19083110  0.83134400  0.79485678  1  -1.061459  0  -0.307617  -0.478265  0  2.448044  0
O  O253  1  0.69082502  0.66864515  0.70512867  1  -1.061852  0  -0.307513  -0.478106  0  2.44879  0
O  O254  1  0.80914845  0.16864513  0.20515394  1  -1.061601  0  -0.307641  -0.478285  0  2.4483  0
O  O255  1  0.30914173  0.33135299  0.29485172  1  -1.061653  0  -0.307575  -0.478165  0  2.448626  0
O  O256  1  0.04429334  0.90000809  0.86516815  1  -1.16119  0  -0.308411  -0.527984  0  2.15251  0
O  O257  1  0.54426916  0.59996636  0.63483058  1  -1.161094  0  -0.308581  -0.528217  0  2.151614  0
O  O258  1  0.95573444  0.09999926  0.13484696  1  -1.160445  0  -0.30879  -0.528487  0  2.151872  0
O  O259  1  0.45571925  0.40001638  0.36515412  1  -1.160565  0  -0.308752  -0.528338  0  2.151629  0
O  O260  1  0.39782308  0.17351098  0.58210517  1  -1.153389  0  -0.342355  -0.502414  0  2.274207  0
O  O261  1  0.89782196  0.32648371  0.91789171  1  -1.153414  0  -0.342388  -0.502443  0  2.274149  0
O  O262  1  0.60217714  0.82646762  0.41789710  1  -1.153101  0  -0.342411  -0.502325  0  2.273794  0
O  O263  1  0.10215562  0.67354249  0.08210102  1  -1.15433  0  -0.342438  -0.502241  0  2.273784  0
O  O264  1  0.42696592  0.32968493  0.57228623  1  -1.149529  0  -0.283217  -0.486809  0  2.12279  0
O  O265  1  0.92697515  0.17031188  0.92771820  1  -1.149568  0  -0.283226  -0.48694  0  2.122824  0
O  O266  1  0.57301659  0.67029715  0.42771137  1  -1.150208  0  -0.283108  -0.4866  0  2.123657  0
O  O267  1  0.07301228  0.82970733  0.07228101  1  -1.150308  0  -0.283122  -0.486625  0  2.124713  0
O  O268  1  0.99665570  0.73893709  0.93195298  1  -1.28608  0  -0.629444  -0.810889  0  1.913405  0
O  O269  1  0.49666221  0.76103396  0.56805126  1  -1.286235  0  -0.629506  -0.811016  0  1.913268  0
O  O270  1  0.00336520  0.26106884  0.06805204  1  -1.285548  0  -0.629458  -0.810858  0  1.913381  0
O  O271  1  0.50337739  0.23895722  0.43194231  1  -1.286325  0  -0.629483  -0.811092  0  1.913072  0
O  O272  1  0.44059262  0.72039968  0.76127827  1  -1.240639  0  -0.595037  -0.761715  0  2.006893  0
O  O273  1  0.94055341  0.77961273  0.73873808  1  -1.240066  0  -0.595151  -0.761873  0  2.006926  0
O  O274  1  0.55938004  0.27961392  0.23871838  1  -1.241388  0  -0.594959  -0.761821  0  2.00663  0
O  O275  1  0.05939956  0.22039463  0.26127751  1  -1.241051  0  -0.594988  -0.761628  0  2.00699  0
