# generated using pymatgen
data_CoH12C16(NO2)2
_symmetry_space_group_name_H-M   'P 1'
_cell_length_a   12.17396413
_cell_length_b   12.28046853
_cell_length_c   13.70903960
_cell_angle_alpha   89.99974306
_cell_angle_beta   90.00011208
_cell_angle_gamma   90.00000520
_symmetry_Int_Tables_number   1
_chemical_formula_structural   CoH12C16(NO2)2
_chemical_formula_sum   'Co4 H48 C64 N8 O16'
_cell_volume   2049.52861058
_cell_formula_units_Z   4
loop_
 _symmetry_equiv_pos_site_id
 _symmetry_equiv_pos_as_xyz
  1  'x, y, z'
loop_
 _atom_site_type_symbol
 _atom_site_label
 _atom_site_symmetry_multiplicity
 _atom_site_fract_x
 _atom_site_fract_y
 _atom_site_fract_z
 _atom_site_occupancy
 _atom_site_pbe_bader_charge
 _atom_site_pbe_bader_spin_density
 _atom_site_pbe_cm5_charge
 _atom_site_pbe_ddec_charge
 _atom_site_pbe_ddec_spin_density
 _atom_site_pbe_ddec_sum_bond_order
 _atom_site_pbe_magmom
Co  Co0  1  0.19077655  0.25000063  0.49999968  1  1.212886  2.552175  0.677136  0.78246  2.784552  2.567874  2.501
Co  Co1  1  0.30922496  0.24999857  0.99999979  1  1.212838  2.552173  0.677176  0.782544  2.784549  2.567786  2.501
Co  Co2  1  0.80922179  0.75000031  0.49999847  1  1.212944  2.552174  0.677127  0.782524  2.784542  2.567811  2.501
Co  Co3  1  0.69077695  0.75000069  0.99999912  1  1.212875  2.552181  0.677104  0.782453  2.784556  2.567903  2.501
H  H4  1  0.46565506  0.51957811  0.57956147  1  0.120388  0.001427  0.108106  0.129862  0.000602  1.021684  0.001
H  H5  1  0.46565162  0.98042411  0.42043780  1  0.12044  0.001427  0.10807  0.129801  0.000602  1.021707  0.001
H  H6  1  0.03435294  0.98042087  0.07956599  1  0.120515  0.001427  0.108037  0.129699  0.000602  1.021789  0.001
H  H7  1  0.03434893  0.51957886  0.92043837  1  0.120395  0.001426  0.108096  0.129868  0.000602  1.021782  0.001
H  H8  1  0.53434656  0.48042446  0.42043595  1  0.120458  0.001427  0.108055  0.129816  0.000602  1.021626  0.001
H  H9  1  0.53434836  0.01957601  0.57956619  1  0.120511  0.001427  0.108028  0.129726  0.000602  1.021696  0.001
H  H10  1  0.96565196  0.01957600  0.92043289  1  0.120497  0.001427  0.108036  0.129751  0.000602  1.021726  0.001
H  H11  1  0.96565023  0.48042371  0.07956562  1  0.120506  0.001427  0.108038  0.129752  0.000602  1.021723  0.001
H  H12  1  0.33487123  0.42585486  0.75401213  1  0.09921  0.000641  0.103475  0.105468  0.000263  1.045026  0.0
H  H13  1  0.33487065  0.07414397  0.24598455  1  0.101121  0.000634  0.103475  0.105478  0.000263  1.045016  0.0
H  H14  1  0.16513138  0.07414394  0.25401998  1  0.099215  0.000642  0.103474  0.105444  0.000263  1.045023  0.0
H  H15  1  0.16512618  0.42585487  0.74598735  1  0.10113  0.000634  0.103479  0.105432  0.000263  1.045069  0.0
H  H16  1  0.66513204  0.57414364  0.24598456  1  0.09924  0.000642  0.103451  0.105439  0.000263  1.045012  0.0
H  H17  1  0.66513261  0.92585453  0.75401652  1  0.099236  0.000642  0.103445  0.105426  0.000263  1.045018  0.0
H  H18  1  0.83486860  0.92585293  0.74598255  1  0.101063  0.000633  0.103454  0.105435  0.000263  1.044992  0.0
H  H19  1  0.83486969  0.57414852  0.25401809  1  0.101056  0.000634  0.103456  0.105437  0.000263  1.044964  0.0
H  H20  1  0.36056476  0.51329250  0.90807821  1  0.099181  0.000836  0.109856  0.123123  0.000197  1.017478  0.0
H  H21  1  0.36056798  0.98670726  0.09192088  1  0.099232  0.000836  0.109849  0.12311  0.000197  1.017488  0.0
H  H22  1  0.13943576  0.98670564  0.40807704  1  0.099404  0.000836  0.109845  0.123105  0.000197  1.01752  0.0
H  H23  1  0.13943266  0.51329084  0.59191947  1  0.099211  0.000837  0.109845  0.123116  0.000197  1.01747  0.0
H  H24  1  0.63943769  0.48670843  0.09192286  1  0.099186  0.000837  0.109843  0.123075  0.000197  1.017542  0.0
H  H25  1  0.63943528  0.01328961  0.90807654  1  0.099182  0.000836  0.109832  0.123087  0.000197  1.01753  0.0
H  H26  1  0.86056751  0.01329041  0.59192329  1  0.099216  0.000836  0.109821  0.123088  0.000197  1.017529  0.0
H  H27  1  0.86056650  0.48671091  0.40807649  1  0.099195  0.000836  0.109834  0.123114  0.000197  1.017489  0.0
H  H28  1  0.47603808  0.62744021  0.01888523  1  0.097384  0.002551  0.118236  0.085504  0.000987  0.993889  0.001
H  H29  1  0.47603997  0.87256201  0.98111625  1  0.09742  0.002551  0.118241  0.085518  0.000987  0.993917  0.001
H  H30  1  0.02396075  0.87255744  0.51888435  1  0.09739  0.002552  0.118238  0.085546  0.000987  0.993835  0.001
H  H31  1  0.02396152  0.62744066  0.48111488  1  0.097376  0.002551  0.118229  0.085504  0.000987  0.99384  0.001
H  H32  1  0.52396518  0.37256154  0.98111657  1  0.097367  0.002551  0.118238  0.085518  0.000987  0.993898  0.001
H  H33  1  0.52396411  0.12743486  0.01888482  1  0.097346  0.002551  0.11823  0.085553  0.000987  0.993858  0.001
H  H34  1  0.97603840  0.12743699  0.48111380  1  0.097361  0.002552  0.118227  0.085511  0.000987  0.993891  0.001
H  H35  1  0.97603599  0.37256353  0.51888546  1  0.097355  0.002552  0.118226  0.085509  0.000987  0.993889  0.001
H  H36  1  0.68517213  0.71230557  0.79353833  1  0.112748  0.002001  0.120917  0.093811  0.000562  1.031086  0.002
H  H37  1  0.68517231  0.78769178  0.20646132  1  0.113169  0.001999  0.120934  0.093853  0.000562  1.031064  0.002
H  H38  1  0.81482451  0.78769890  0.29354120  1  0.112776  0.002001  0.120933  0.093869  0.000562  1.031007  0.002
H  H39  1  0.81482906  0.71230580  0.70645941  1  0.113204  0.001999  0.120942  0.093892  0.000562  1.030982  0.002
H  H40  1  0.31482702  0.28769374  0.20645909  1  0.112781  0.002001  0.120929  0.093869  0.000562  1.030997  0.002
H  H41  1  0.31482931  0.21230427  0.79353975  1  0.113232  0.001999  0.1209  0.093799  0.000562  1.031091  0.002
H  H42  1  0.18517219  0.21230611  0.70645987  1  0.112794  0.002  0.120929  0.093841  0.000562  1.031052  0.002
H  H43  1  0.18516927  0.28769514  0.29353947  1  0.113196  0.001999  0.120877  0.093754  0.000562  1.031059  0.002
H  H44  1  0.58008051  0.60389632  0.67245412  1  0.18072  0.000735  0.11404  0.146164  0.00026  1.039685  0.0
H  H45  1  0.58008014  0.89610020  0.32754608  1  0.180712  0.000736  0.114036  0.146113  0.00026  1.039742  0.0
H  H46  1  0.91992079  0.89610061  0.17245090  1  0.180673  0.000736  0.114037  0.146184  0.00026  1.03973  0.0
H  H47  1  0.91991986  0.60389677  0.82754406  1  0.180735  0.000736  0.114051  0.146163  0.00026  1.039733  0.0
H  H48  1  0.41992111  0.39610380  0.32754257  1  0.180772  0.000736  0.114043  0.146112  0.00026  1.039797  0.0
H  H49  1  0.41992230  0.10389992  0.67245499  1  0.180731  0.000736  0.114034  0.14612  0.00026  1.039767  0.0
H  H50  1  0.08008001  0.10389789  0.82754580  1  0.180715  0.000735  0.114041  0.146174  0.00026  1.039679  0.0
H  H51  1  0.08007848  0.39610498  0.17245482  1  0.180766  0.000735  0.11404  0.146154  0.00026  1.039731  0.0
C  C52  1  0.33671511  0.39872202  0.55754693  1  1.498191  0.001295  0.192652  0.592163  0.000812  4.228651  0.0
C  C53  1  0.33671497  0.10128170  0.44245194  1  1.498346  0.001295  0.19271  0.592223  0.000812  4.228629  0.0
C  C54  1  0.16328706  0.10127776  0.05754737  1  1.498351  0.001297  0.192732  0.592177  0.000814  4.228693  0.0
C  C55  1  0.16328558  0.39872349  0.94245631  1  1.498283  0.001294  0.192717  0.592242  0.00081  4.228552  0.0
C  C56  1  0.66328569  0.60128381  0.44244830  1  1.498338  0.001293  0.192655  0.592207  0.00081  4.228785  0.0
C  C57  1  0.66328747  0.89871843  0.55755277  1  1.498295  0.001292  0.192725  0.592248  0.000809  4.228654  0.0
C  C58  1  0.83671128  0.89871992  0.94244714  1  1.498207  0.001295  0.192741  0.592278  0.000812  4.228685  0.0
C  C59  1  0.83671193  0.60128233  0.05755278  1  1.498347  0.001295  0.192696  0.592162  0.000812  4.228728  0.0
C  C60  1  0.40528939  0.47078589  0.61916896  1  -0.073372  5e-05  -0.085351  -0.202974  -0.00098  3.863476  0.0
C  C61  1  0.40528993  0.02921538  0.38082785  1  -0.073427  6e-05  -0.085257  -0.20286  -0.000972  3.863322  0.0
C  C62  1  0.09471456  0.02921439  0.11917759  1  -0.073388  7.3e-05  -0.085201  -0.202697  -0.000958  3.863513  0.0
C  C63  1  0.09471213  0.47079011  0.88083035  1  -0.073369  7.9e-05  -0.085353  -0.203044  -0.000953  3.863461  0.0
C  C64  1  0.59470812  0.52921830  0.38082481  1  -0.073383  7.8e-05  -0.085242  -0.202915  -0.000954  3.863416  0.0
C  C65  1  0.59471333  0.97078148  0.61917541  1  -0.073367  8.2e-05  -0.085196  -0.202749  -0.00095  3.863394  0.0
C  C66  1  0.90528624  0.97078329  0.88082639  1  -0.073359  4.2e-05  -0.08523  -0.202834  -0.000989  3.863504  0.0
C  C67  1  0.90528703  0.52921734  0.11917510  1  -0.073441  5.6e-05  -0.085215  -0.20279  -0.000975  3.863438  0.0
C  C68  1  0.39564925  0.47666002  0.71708681  1  -0.042336  0.001815  -0.076488  -0.0865  0.000626  3.944678  0.001
C  C69  1  0.39564794  0.02333800  0.28290998  1  -0.042362  0.001809  -0.076541  -0.086545  0.000622  3.944693  0.001
C  C70  1  0.10435409  0.02333734  0.21709184  1  -0.042467  0.001798  -0.076549  -0.086601  0.000615  3.944857  0.001
C  C71  1  0.10435062  0.47666309  0.78291174  1  -0.04232  0.00179  -0.076475  -0.086424  0.00061  3.944628  0.001
C  C72  1  0.60435237  0.52333929  0.28290915  1  -0.042452  0.001792  -0.076522  -0.086485  0.000611  3.944714  0.001
C  C73  1  0.60435450  0.97666131  0.71709182  1  -0.042511  0.00179  -0.076518  -0.086513  0.00061  3.944711  0.001
C  C74  1  0.89564671  0.97665872  0.78290923  1  -0.042353  0.001823  -0.076538  -0.086528  0.00063  3.944641  0.002
C  C75  1  0.89564689  0.52334192  0.21709152  1  -0.042377  0.001812  -0.076531  -0.08653  0.000624  3.944595  0.001
C  C76  1  0.46078505  0.54659449  0.78059008  1  0.020011  -0.003911  0.011724  0.153061  -0.004459  3.994677  -0.003
C  C77  1  0.46078609  0.95340203  0.21940991  1  0.020315  -0.003902  0.011732  0.153058  -0.004449  3.994746  -0.003
C  C78  1  0.03921107  0.95340348  0.28059180  1  0.020029  -0.003899  0.011683  0.153133  -0.004445  3.994718  -0.003
C  C79  1  0.03921154  0.54659462  0.71940746  1  0.020085  -0.003899  0.011691  0.153056  -0.004446  3.994693  -0.003
C  C80  1  0.53921164  0.45340319  0.21940807  1  0.020012  -0.003902  0.011693  0.153032  -0.004448  3.994704  -0.003
C  C81  1  0.53921142  0.04659647  0.78059043  1  0.020028  -0.003893  0.011725  0.153012  -0.004439  3.994693  -0.003
C  C82  1  0.96078644  0.04659420  0.71940781  1  0.020029  -0.003916  0.011726  0.153108  -0.004464  3.994589  -0.003
C  C83  1  0.96078844  0.45340632  0.28059142  1  0.019965  -0.003909  0.011728  0.153075  -0.004457  3.994696  -0.003
C  C84  1  0.43207636  0.55634957  0.87971806  1  -0.005582  0.004895  -0.083098  -0.178058  0.00227  3.928373  0.004
C  C85  1  0.43207882  0.94364939  0.12028261  1  -0.005909  0.004887  -0.083105  -0.178068  0.002266  3.928422  0.004
C  C86  1  0.06792328  0.94364221  0.37972133  1  -0.005337  0.004882  -0.083067  -0.178046  0.002263  3.928342  0.004
C  C87  1  0.06792106  0.55635020  0.62028017  1  -0.005689  0.004879  -0.083103  -0.178111  0.002261  3.928424  0.004
C  C88  1  0.56792609  0.44364648  0.12027936  1  -0.005394  0.004883  -0.083075  -0.178012  0.002263  3.928476  0.004
C  C89  1  0.56792609  0.05635155  0.87971992  1  -0.005396  0.004876  -0.08308  -0.177973  0.00226  3.928339  0.004
C  C90  1  0.93207752  0.05634977  0.62028047  1  -0.0056  0.004899  -0.0831  -0.178088  0.002272  3.928327  0.004
C  C91  1  0.93207645  0.44365074  0.37971944  1  -0.005699  0.004894  -0.083068  -0.178034  0.00227  3.928336  0.004
C  C92  1  0.49598659  0.61930141  0.94166908  1  0.422411  -0.001132  0.040848  0.078976  -0.001695  3.992366  0.0
C  C93  1  0.49598809  0.88069918  0.05833097  1  0.422366  -0.001124  0.040859  0.079002  -0.001687  3.992441  0.0
C  C94  1  0.00400661  0.88069901  0.44167030  1  0.421935  -0.00112  0.040837  0.07892  -0.001682  3.992436  0.0
C  C95  1  0.00401248  0.61930153  0.55833035  1  0.422482  -0.00112  0.040911  0.079077  -0.001683  3.992305  0.0
C  C96  1  0.50401339  0.38069790  0.05832980  1  0.42216  -0.001123  0.040856  0.078948  -0.001686  3.992526  0.0
C  C97  1  0.50401353  0.11930095  0.94167010  1  0.422162  -0.001114  0.040832  0.078884  -0.001678  3.992589  0.0
C  C98  1  0.99599008  0.11930274  0.55833076  1  0.422428  -0.001135  0.040932  0.079026  -0.001698  3.99238  0.0
C  C99  1  0.99598750  0.38069941  0.44166999  1  0.4225  -0.001131  0.04083  0.078926  -0.001694  3.99252  0.0
C  C100  1  0.61305842  0.66586103  0.81497459  1  0.41426  -0.000549  0.047252  0.098889  -0.001266  3.93032  0.0
C  C101  1  0.61305938  0.83413713  0.18502567  1  0.414132  -0.000542  0.047228  0.098879  -0.001258  3.930191  0.0
C  C102  1  0.88694237  0.83413437  0.31497374  1  0.414211  -0.000538  0.047288  0.098976  -0.001254  3.930231  0.0
C  C103  1  0.88694031  0.66586219  0.68502188  1  0.414164  -0.000537  0.047338  0.09899  -0.001254  3.930254  0.0
C  C104  1  0.38694074  0.33413665  0.18502429  1  0.414209  -0.000542  0.047275  0.098894  -0.001258  3.930181  0.0
C  C105  1  0.38694307  0.16586218  0.81497540  1  0.414222  -0.000534  0.047313  0.099  -0.001251  3.930134  0.0
C  C106  1  0.11305843  0.16586249  0.68502514  1  0.414208  -0.000551  0.047256  0.098881  -0.001268  3.930229  0.0
C  C107  1  0.11305639  0.33413875  0.31497554  1  0.413849  -0.000547  0.047283  0.098946  -0.001265  3.930119  0.0
C  C108  1  0.55311567  0.60572098  0.74834417  1  -0.026188  0.004447  -0.073798  -0.161124  0.002171  3.866227  0.004
C  C109  1  0.55311431  0.89427473  0.25165671  1  -0.026146  0.004439  -0.073793  -0.161067  0.002166  3.866275  0.004
C  C110  1  0.94688416  0.89427720  0.24834245  1  -0.02619  0.004435  -0.073765  -0.1612  0.002164  3.866347  0.004
C  C111  1  0.94687895  0.60572181  0.75165328  1  -0.026146  0.004431  -0.073875  -0.161234  0.002162  3.866299  0.004
C  C112  1  0.44688595  0.39427507  0.25165471  1  -0.026234  0.004435  -0.073815  -0.161095  0.002164  3.866338  0.004
C  C113  1  0.44688813  0.10572540  0.74834290  1  -0.026248  0.004427  -0.0738  -0.161101  0.00216  3.866326  0.004
C  C114  1  0.05311500  0.10572211  0.75165570  1  -0.026166  0.004451  -0.073793  -0.16116  0.002173  3.866182  0.004
C  C115  1  0.05311364  0.39427994  0.24834342  1  -0.026264  0.004447  -0.073788  -0.161103  0.00217  3.86623  0.004
N  N116  1  0.58714421  0.67161139  0.91090687  1  -1.236226  0.071547  -0.346345  -0.264304  0.037429  3.657571  0.051
N  N117  1  0.58714413  0.82838840  0.08909334  1  -1.236224  0.071542  -0.346349  -0.264364  0.037426  3.657556  0.051
N  N118  1  0.91285269  0.82839250  0.41090537  1  -1.236273  0.071541  -0.346405  -0.264421  0.037426  3.657844  0.051
N  N119  1  0.91285370  0.67160814  0.58908957  1  -1.236401  0.071539  -0.34642  -0.264426  0.037422  3.657621  0.051
N  N120  1  0.41285577  0.32839037  0.08909201  1  -1.236242  0.071544  -0.346387  -0.264333  0.037427  3.657592  0.051
N  N121  1  0.41285749  0.17160847  0.91090846  1  -1.236229  0.071534  -0.346365  -0.264387  0.037421  3.657595  0.051
N  N122  1  0.08714483  0.17161088  0.58909059  1  -1.236315  0.071548  -0.346414  -0.264341  0.037429  3.6576  0.051
N  N123  1  0.08714299  0.32839199  0.41090858  1  -1.235797  0.071547  -0.346345  -0.264322  0.037429  3.657645  0.051
O  O124  1  0.25872248  0.34261493  0.59953679  1  -1.143663  0.104899  -0.329761  -0.56018  0.05404  2.344126  0.081
O  O125  1  0.25872308  0.15739122  0.40046049  1  -1.143749  0.104901  -0.329808  -0.56025  0.054042  2.344156  0.081
O  O126  1  0.24127978  0.15738708  0.09953713  1  -1.143698  0.104905  -0.329861  -0.560293  0.054045  2.344145  0.081
O  O127  1  0.24127903  0.34261662  0.90046668  1  -1.143629  0.1049  -0.329774  -0.560211  0.054042  2.344096  0.081
O  O128  1  0.74127586  0.65739008  0.40045771  1  -1.143843  0.104895  -0.329762  -0.560257  0.054039  2.344318  0.081
O  O129  1  0.74127937  0.84260890  0.59954277  1  -1.143851  0.104897  -0.329819  -0.560302  0.054041  2.344162  0.081
O  O130  1  0.75872020  0.84261060  0.90045591  1  -1.143874  0.104899  -0.329782  -0.56026  0.054041  2.344178  0.081
O  O131  1  0.75872095  0.65739165  0.09954460  1  -1.143886  0.104896  -0.329797  -0.560251  0.05404  2.344154  0.081
O  O132  1  0.35355094  0.39313613  0.46728827  1  -1.144744  0.032365  -0.310828  -0.545075  0.01589  2.115481  0.026
O  O133  1  0.35355018  0.10686595  0.53270918  1  -1.144673  0.032366  -0.310835  -0.545094  0.015891  2.115587  0.026
O  O134  1  0.14644228  0.10685916  0.96729451  1  -1.14469  0.032356  -0.31085  -0.545076  0.015885  2.115689  0.026
O  O135  1  0.14645194  0.39313721  0.03271570  1  -1.144837  0.032368  -0.310878  -0.545127  0.015892  2.115502  0.026
O  O136  1  0.64644740  0.60686155  0.53270478  1  -1.144599  0.032368  -0.310822  -0.545092  0.015891  2.115666  0.026
O  O137  1  0.64644816  0.89313825  0.46729481  1  -1.144561  0.032371  -0.310836  -0.545107  0.015893  2.115617  0.026
O  O138  1  0.85355031  0.89313690  0.03270364  1  -1.144552  0.032364  -0.31086  -0.545118  0.015889  2.115598  0.026
O  O139  1  0.85355215  0.60686373  0.96729631  1  -1.144556  0.032364  -0.310822  -0.545063  0.01589  2.11567  0.026
