# generated using pymatgen
data_ZnH20C22(NO4)2
_symmetry_space_group_name_H-M   'P 1'
_cell_length_a   9.24958723
_cell_length_b   9.76852602
_cell_length_c   11.29360000
_cell_angle_alpha   90.00000000
_cell_angle_beta   90.00000000
_cell_angle_gamma   98.99867502
_symmetry_Int_Tables_number   1
_chemical_formula_structural   ZnH20C22(NO4)2
_chemical_formula_sum   'Zn2 H40 C44 N4 O16'
_cell_volume   1007.87183635
_cell_formula_units_Z   2
loop_
 _symmetry_equiv_pos_site_id
 _symmetry_equiv_pos_as_xyz
  1  'x, y, z'
loop_
 _atom_site_type_symbol
 _atom_site_label
 _atom_site_symmetry_multiplicity
 _atom_site_fract_x
 _atom_site_fract_y
 _atom_site_fract_z
 _atom_site_occupancy
 _atom_site_hle17_bader_spin_density
 _atom_site_hle17_ddec_charge
 _atom_site_hle17_ddec_spin_density
 _atom_site_hle17_ddec_sum_bond_order
 _atom_site_hle17_magmom
 _atom_site_hse06_10hf_bader_spin_density
 _atom_site_hse06_10hf_ddec_charge
 _atom_site_hse06_10hf_ddec_spin_density
 _atom_site_hse06_10hf_ddec_sum_bond_order
 _atom_site_hse06_10hf_magmom
 _atom_site_hse06_bader_spin_density
 _atom_site_hse06_ddec_charge
 _atom_site_hse06_ddec_spin_density
 _atom_site_hse06_ddec_sum_bond_order
 _atom_site_hse06_magmom
 _atom_site_pbe_bader_charge
 _atom_site_pbe_bader_spin_density
 _atom_site_pbe_cm5_charge
 _atom_site_pbe_ddec_charge
 _atom_site_pbe_ddec_spin_density
 _atom_site_pbe_ddec_sum_bond_order
 _atom_site_pbe_magmom
Zn  Zn0  1  0.99999922  0.00000000  0.00000089  1  0  1.118155  0  1.746629  0  0  0.948916  0  2.185814  0  0  0.997685  0  2.128774  0  1.376792  0  0.686027  0.913882  0  2.225436  0
Zn  Zn1  1  0.49999961  0.00000000  0.50000089  1  0  1.118152  0  1.746634  0  0  0.948908  0  2.185809  0  0  0.997671  0  2.128771  0  1.376812  0  0.686038  0.913873  0  2.225432  0
H  H2  1  0.32235027  0.11895781  0.91943844  1  0  0.300377  0  0.912456  0  0  0.278734  0  0.979702  0  0  0.28749  0  0.972729  0  0.525953  0  0.309396  0.272682  0  0.984555  0
H  H3  1  0.82234823  0.11896092  0.58056244  1  0  0.300343  0  0.912475  0  0  0.278667  0  0.979797  0  0  0.287395  0  0.97283  0  0.525945  0  0.309387  0.272618  0  0.984642  0
H  H4  1  0.67765080  0.88103964  0.08056244  1  0  0.30032  0  0.912486  0  0  0.278696  0  0.979747  0  0  0.287428  0  0.972776  0  0.525944  0  0.309379  0.272647  0  0.984599  0
H  H5  1  0.17764920  0.88104068  0.41943844  1  0  0.300398  0  0.912443  0  0  0.278762  0  0.97969  0  0  0.287502  0  0.972721  0  0.525955  0  0.309406  0.27271  0  0.984545  0
H  H6  1  0.45989455  0.18930081  0.74972374  1  0  0.111568  0  0.984964  0  0  0.116838  0  1.053117  0  0  0.12091  0  1.05072  0  0.127864  0  0.101723  0.113854  0  1.055072  0
H  H7  1  0.95989485  0.18930496  0.75027626  1  0  0.111578  0  0.98501  0  0  0.116843  0  1.053158  0  0  0.120908  0  1.050771  0  0.127892  0  0.10174  0.113862  0  1.05511  0
H  H8  1  0.54010418  0.81069560  0.25027715  1  0  0.111564  0  0.985018  0  0  0.116832  0  1.053165  0  0  0.120899  0  1.050776  0  0.127892  0  0.101735  0.11385  0  1.055117  0
H  H9  1  0.04010492  0.81069768  0.24972374  1  0  0.111567  0  0.984973  0  0  0.116825  0  1.053133  0  0  0.120909  0  1.050722  0  0.127869  0  0.101729  0.113843  0  1.055086  0
H  H10  1  0.64070065  0.36703481  0.65287685  1  0  0.087407  0  0.970693  0  0  0.099802  0  1.030021  0  0  0.102467  0  1.028523  0  0.045752  0  0.098545  0.097734  0  1.031312  0
H  H11  1  0.14070263  0.36703792  0.84712138  1  0  0.087407  0  0.970694  0  0  0.099794  0  1.030034  0  0  0.102462  0  1.028531  0  0.045779  0  0.098552  0.097727  0  1.031326  0
H  H12  1  0.35929809  0.63296160  0.34712315  1  0  0.087403  0  0.970678  0  0  0.099782  0  1.030031  0  0  0.102452  0  1.028524  0  0.045749  0  0.098538  0.097715  0  1.03132  0
H  H13  1  0.85930003  0.63296264  0.15287597  1  0  0.087421  0  0.970648  0  0  0.099804  0  1.02999  0  0  0.102472  0  1.028487  0  0.04574  0  0.098544  0.097736  0  1.03128  0
H  H14  1  0.78633811  0.55540074  0.77319721  1  0  0.096061  0  0.972761  0  0  0.106461  0  1.034083  0  0  0.10974  0  1.032587  0  0.089166  0  0.098316  0.104266  0  1.035038  0
H  H15  1  0.28634174  0.55540074  0.72679925  1  0  0.096033  0  0.972771  0  0  0.106425  0  1.034096  0  0  0.109704  0  1.032598  0  0.089162  0  0.09832  0.104233  0  1.035049  0
H  H16  1  0.21365972  0.44459671  0.22680102  1  0  0.096007  0  0.9728  0  0  0.106405  0  1.034121  0  0  0.109684  0  1.032624  0  0.089142  0  0.098298  0.104211  0  1.035074  0
H  H17  1  0.71366166  0.44459774  0.27319721  1  0  0.096036  0  0.972777  0  0  0.106435  0  1.034105  0  0  0.109714  0  1.032609  0  0.08915  0  0.098304  0.104241  0  1.035059  0
H  H18  1  0.75111521  0.55834116  0.99120121  1  0  0.084143  0  0.972497  0  0  0.094795  0  1.033796  0  0  0.097453  0  1.032556  0  0.071615  0  0.09765  0.092809  0  1.034914  0
H  H19  1  0.25111668  0.55834116  0.50879613  1  0  0.084214  0  0.97246  0  0  0.094847  0  1.033771  0  0  0.097507  0  1.032525  0  0.071575  0  0.097675  0.092847  0  1.034904  0
H  H20  1  0.24888387  0.44165733  0.00879702  1  0  0.084178  0  0.972481  0  0  0.094821  0  1.033783  0  0  0.097479  0  1.032542  0  0.071587  0  0.097664  0.092835  0  1.034901  0
H  H21  1  0.74888365  0.44165836  0.49120033  1  0  0.084195  0  0.9725  0  0  0.09483  0  1.03381  0  0  0.097488  0  1.03257  0  0.071603  0  0.097664  0.092844  0  1.034928  0
H  H22  1  0.57812978  0.37430967  0.09004303  1  0  0.107772  0  0.97489  0  0  0.118449  0  1.033223  0  0  0.121734  0  1.031857  0  0.088423  0  0.104943  0.116153  0  1.03402  0
H  H23  1  0.07812801  0.37430967  0.40995520  1  0  0.107774  0  0.974865  0  0  0.11847  0  1.03317  0  0  0.121751  0  1.031807  0  0.088406  0  0.104946  0.116174  0  1.033967  0
H  H24  1  0.42187163  0.62568985  0.90995697  1  0  0.107775  0  0.974845  0  0  0.118476  0  1.033147  0  0  0.121756  0  1.031784  0  0.088419  0  0.104954  0.11618  0  1.033945  0
H  H25  1  0.92186925  0.62569089  0.59004303  1  0  0.107775  0  0.974885  0  0  0.118452  0  1.033209  0  0  0.121727  0  1.031855  0  0.088426  0  0.104947  0.116155  0  1.034008  0
H  H26  1  0.08720575  0.21522664  0.12742792  1  0  0.35393  0  0.93983  0  0  0.331339  0  1.006398  0  0  0.341454  0  0.996753  0  0.628986  0  0.292453  0.324217  0  1.013172  0
H  H27  1  0.58720626  0.21522560  0.37257296  1  0  0.353955  0  0.939803  0  0  0.331366  0  1.006363  0  0  0.341482  0  0.996719  0  0.628982  0  0.292463  0.324245  0  1.013137  0
H  H28  1  0.91279493  0.78477496  0.87257385  1  0  0.353952  0  0.939831  0  0  0.331366  0  1.006389  0  0  0.341483  0  0.996742  0  0.629021  0  0.292453  0.324243  0  1.013163  0
H  H29  1  0.41279515  0.78477392  0.62742969  1  0  0.353909  0  0.939825  0  0  0.331322  0  1.006387  0  0  0.341438  0  0.996742  0  0.628977  0  0.292457  0.324203  0  1.013159  0
H  H30  1  0.98444613  0.40533796  0.05961164  1  0  0.06636  0  0.962241  0  0  0.084311  0  1.033361  0  0  0.084215  0  1.034143  0  0.030584  0  0.090921  0.084815  0  1.032128  0
H  H31  1  0.48444436  0.40533796  0.44038748  1  0  0.066362  0  0.96223  0  0  0.084309  0  1.033366  0  0  0.084212  0  1.034149  0  0.030722  0  0.090919  0.084812  0  1.032134  0
H  H32  1  0.01555654  0.59466261  0.94038748  1  0  0.066374  0  0.962232  0  0  0.084316  0  1.03337  0  0  0.084221  0  1.034154  0  0.030795  0  0.090927  0.084821  0  1.032137  0
H  H33  1  0.51555524  0.59466364  0.55961252  1  0  0.06631  0  0.962285  0  0  0.084266  0  1.033411  0  0  0.084171  0  1.034192  0  0.030793  0  0.090899  0.08477  0  1.032177  0
H  H34  1  0.84873248  0.25819900  0.09195562  1  0  0.079325  0  0.958474  0  0  0.092835  0  1.030701  0  0  0.093604  0  1.030659  0  0.071649  0  0.090478  0.091935  0  1.031333  0
H  H35  1  0.34873253  0.25819693  0.40804349  1  0  0.079301  0  0.958495  0  0  0.092821  0  1.030712  0  0  0.093586  0  1.030674  0  0.071627  0  0.090473  0.091917  0  1.031355  0
H  H36  1  0.15126945  0.74180364  0.90804349  1  0  0.079297  0  0.958455  0  0  0.09279  0  1.030698  0  0  0.093579  0  1.030635  0  0.071616  0  0.090462  0.091884  0  1.031351  0
H  H37  1  0.65126871  0.74180156  0.59195562  1  0  0.079283  0  0.958473  0  0  0.092795  0  1.030699  0  0  0.093564  0  1.030656  0  0.071628  0  0.090475  0.091888  0  1.031347  0
H  H38  1  0.90230774  0.29579217  0.94259846  1  0  0.089954  0  0.964474  0  0  0.105707  0  1.031696  0  0  0.105823  0  1.03325  0  0.067063  0  0.097837  0.105605  0  1.030662  0
H  H39  1  0.40230813  0.29579217  0.55739977  1  0  0.089958  0  0.964507  0  0  0.105717  0  1.03172  0  0  0.105832  0  1.033275  0  0.067073  0  0.097835  0.105613  0  1.030689  0
H  H40  1  0.09769476  0.70420735  0.05739977  1  0  0.089991  0  0.964489  0  0  0.105747  0  1.031702  0  0  0.105861  0  1.033258  0  0.067055  0  0.09785  0.105644  0  1.030669  0
H  H41  1  0.59769129  0.70420839  0.44259935  1  0  0.089903  0  0.964525  0  0  0.105667  0  1.031737  0  0  0.105782  0  1.03329  0  0.067068  0  0.097829  0.105564  0  1.030705  0
C  C42  1  0.28172909  0.01963974  0.14458277  1  0  0.241385  0  3.870998  0  0  0.214431  0  4.153349  0  0  0.228644  0  4.164275  0  0.883612  0  0.11348  0.204629  0  4.145915  0
C  C43  1  0.78172870  0.01963974  0.35541988  1  0  0.241337  0  3.871038  0  0  0.214404  0  4.153382  0  0  0.228609  0  4.164315  0  0.883742  0  0.113458  0.204596  0  4.145952  0
C  C44  1  0.71826942  0.98036186  0.85542077  1  0  0.241363  0  3.871037  0  0  0.214455  0  4.153353  0  0  0.228644  0  4.164286  0  0.883626  0  0.113496  0.204642  0  4.145924  0
C  C45  1  0.21826890  0.98036289  0.64458100  1  0  0.241352  0  3.87099  0  0  0.214405  0  4.15335  0  0  0.228607  0  4.164275  0  0.883618  0  0.113487  0.204601  0  4.145919  0
C  C46  1  0.36595559  0.03225855  0.25525165  1  0  0.206129  0  3.822045  0  0  0.178821  0  4.105609  0  0  0.19382  0  4.115171  0  0.797315  0  0.10908  0.168595  0  4.099861  0
C  C47  1  0.86595429  0.03225959  0.24475101  1  0  0.206166  0  3.822129  0  0  0.178861  0  4.105694  0  0  0.193865  0  4.115257  0  0.797216  0  0.109058  0.168639  0  4.099943  0
C  C48  1  0.63404366  0.96774097  0.74475101  1  0  0.206162  0  3.822185  0  0  0.178829  0  4.105751  0  0  0.193844  0  4.115306  0  0.797352  0  0.109055  0.168611  0  4.099996  0
C  C49  1  0.13404206  0.96774201  0.75524811  1  0  0.206231  0  3.822121  0  0  0.178918  0  4.105712  0  0  0.193922  0  4.11528  0  0.797282  0  0.109065  0.168693  0  4.099962  0
C  C50  1  0.47985697  0.13590381  0.19745785  1  0  0.222635  0  3.842636  0  0  0.203234  0  4.124529  0  0  0.216967  0  4.135319  0  0.87418  0  0.116837  0.193051  0  4.117305  0
C  C51  1  0.97985710  0.13590692  0.30254126  1  0  0.222634  0  3.842559  0  0  0.203248  0  4.124442  0  0  0.216976  0  4.135232  0  0.874175  0  0.116841  0.193061  0  4.117219  0
C  C52  1  0.52014085  0.86409364  0.80254303  1  0  0.222623  0  3.842589  0  0  0.203253  0  4.124473  0  0  0.216978  0  4.135262  0  0.874174  0  0.116847  0.193063  0  4.117251  0
C  C53  1  0.02014301  0.86409779  0.69745785  1  0  0.222621  0  3.842563  0  0  0.203223  0  4.124475  0  0  0.216954  0  4.135259  0  0.87417  0  0.116848  0.19304  0  4.117249  0
C  C54  1  0.39469837  0.11849970  0.08683325  1  0  0.091209  0  3.697652  0  0  0.066994  0  3.965822  0  0  0.075345  0  3.981764  0  0.514984  0  0.123533  0.062271  0  3.954175  0
C  C55  1  0.89470065  0.11850281  0.41316586  1  0  0.091197  0  3.697567  0  0  0.067014  0  3.96579  0  0  0.075324  0  3.981705  0  0.514516  0  0.123626  0.062293  0  3.954143  0
C  C56  1  0.60529855  0.88149879  0.91316675  1  0  0.091181  0  3.697605  0  0  0.066979  0  3.965842  0  0  0.075292  0  3.981761  0  0.514493  0  0.123583  0.062262  0  3.954194  0
C  C57  1  0.10529911  0.88149983  0.58683237  1  0  0.09121  0  3.697706  0  0  0.066992  0  3.965927  0  0  0.07532  0  3.981862  0  0.515005  0  0.123563  0.06227  0  3.95428  0
C  C58  1  0.52593643  0.26903718  0.80275908  1  0  -0.168346  0  3.734105  0  0  -0.188983  0  3.988187  0  0  -0.194751  0  4.010723  0  -0.025511  0  -0.100228  -0.185666  0  3.973233  0
C  C59  1  0.02593517  0.26904029  0.69724180  1  0  -0.168427  0  3.734231  0  0  -0.189056  0  3.988288  0  0  -0.194824  0  4.010841  0  -0.025515  0  -0.100267  -0.185739  0  3.973332  0
C  C60  1  0.47406356  0.73096027  0.19724269  1  0  -0.168378  0  3.734153  0  0  -0.189002  0  3.988201  0  0  -0.194773  0  4.010757  0  -0.025522  0  -0.100242  -0.185687  0  3.973246  0
C  C61  1  0.97406351  0.73096234  0.30275820  1  0  -0.168353  0  3.734116  0  0  -0.188972  0  3.988184  0  0  -0.194748  0  4.010723  0  -0.025548  0  -0.100248  -0.185656  0  3.973229  0
C  C62  1  0.62678094  0.37054839  0.74854077  1  0  -0.053587  0  3.780059  0  0  -0.065968  0  4.027742  0  0  -0.066823  0  4.05007  0  -0.040529  0  -0.093838  -0.064512  0  4.012673  0
C  C63  1  0.12678167  0.37055046  0.75145835  1  0  -0.053531  0  3.780073  0  0  -0.06591  0  4.027753  0  0  -0.066767  0  4.050081  0  -0.040525  0  -0.093839  -0.064454  0  4.012684  0
C  C64  1  0.37321797  0.62944906  0.25145923  1  0  -0.05355  0  3.780075  0  0  -0.065924  0  4.027751  0  0  -0.066782  0  4.050079  0  -0.040524  0  -0.093842  -0.064467  0  4.01268  0
C  C65  1  0.87321991  0.62945010  0.24853988  1  0  -0.053585  0  3.77998  0  0  -0.065955  0  4.027658  0  0  -0.066813  0  4.049992  0  -0.040494  0  -0.093833  -0.064498  0  4.012588  0
C  C66  1  0.70927418  0.47461756  0.81581338  1  0  -0.09049  0  3.767216  0  0  -0.107071  0  4.016144  0  0  -0.110623  0  4.038672  0  -0.079887  0  -0.100114  -0.105541  0  4.001208  0
C  C67  1  0.20927582  0.47461859  0.68418396  1  0  -0.0905  0  3.76717  0  0  -0.107068  0  4.016103  0  0  -0.110619  0  4.038631  0  -0.079941  0  -0.100129  -0.105538  0  4.00116  0
C  C68  1  0.29072473  0.52537990  0.18418485  1  0  -0.090476  0  3.767202  0  0  -0.107044  0  4.016124  0  0  -0.110593  0  4.038653  0  -0.079943  0  -0.100105  -0.105512  0  4.001184  0
C  C69  1  0.79072559  0.52538093  0.31581338  1  0  -0.090505  0  3.767147  0  0  -0.107086  0  4.016075  0  0  -0.11064  0  4.038606  0  -0.079933  0  -0.10013  -0.105556  0  4.001138  0
C  C70  1  0.69050392  0.47512335  0.93851385  1  0  -0.059087  0  3.7912  0  0  -0.068219  0  4.037482  0  0  -0.069548  0  4.059986  0  -0.054268  0  -0.091491  -0.068051  0  4.022917  0
C  C71  1  0.19050539  0.47512335  0.56148350  1  0  -0.059127  0  3.791161  0  0  -0.068241  0  4.037431  0  0  -0.069571  0  4.059933  0  -0.054212  0  -0.091505  -0.068064  0  4.022869  0
C  C72  1  0.30949642  0.52487618  0.06148438  1  0  -0.059104  0  3.791162  0  0  -0.068229  0  4.037445  0  0  -0.069559  0  4.059947  0  -0.0542  0  -0.091489  -0.068062  0  4.022879  0
C  C73  1  0.80949494  0.52487618  0.43851473  1  0  -0.059125  0  3.791157  0  0  -0.068244  0  4.03742  0  0  -0.069571  0  4.059921  0  -0.054201  0  -0.091493  -0.068075  0  4.022856  0
C  C74  1  0.59231797  0.37268970  0.99452876  1  0  -0.156496  0  3.73419  0  0  -0.173582  0  3.97535  0  0  -0.17835  0  3.996973  0  -0.012321  0  -0.093643  -0.169481  0  3.960477  0
C  C75  1  0.09231637  0.37269073  0.50547124  1  0  -0.156572  0  3.734322  0  0  -0.173661  0  3.975429  0  0  -0.178428  0  3.997064  0  -0.012357  0  -0.093663  -0.169556  0  3.960548  0
C  C76  1  0.40768345  0.62730983  0.00547124  1  0  -0.156547  0  3.734239  0  0  -0.17365  0  3.975361  0  0  -0.178415  0  3.996995  0  -0.012362  0  -0.093671  -0.169546  0  3.960486  0
C  C77  1  0.90768089  0.62730983  0.49452876  1  0  -0.15651  0  3.734196  0  0  -0.173588  0  3.975334  0  0  -0.178349  0  3.996966  0  -0.012338  0  -0.093659  -0.169486  0  3.96046  0
C  C78  1  0.50995486  0.26909419  0.92615906  1  0  0.217453  0  3.791162  0  0  0.212889  0  4.040042  0  0  0.21835  0  4.064416  0  0.303536  0  0.089677  0.208787  0  4.023299  0
C  C79  1  0.00995469  0.26909730  0.57384182  1  0  0.217489  0  3.791232  0  0  0.212988  0  4.040084  0  0  0.218411  0  4.064445  0  0.303522  0  0.089699  0.208885  0  4.023341  0
C  C80  1  0.49004621  0.73090326  0.07384271  1  0  0.21746  0  3.791202  0  0  0.212959  0  4.040084  0  0  0.21838  0  4.064449  0  0.303542  0  0.089684  0.208856  0  4.023339  0
C  C81  1  0.99004400  0.73090534  0.42615818  1  0  0.217479  0  3.791196  0  0  0.212923  0  4.040087  0  0  0.218365  0  4.064457  0  0.303539  0  0.089696  0.208822  0  4.023342  0
C  C82  1  0.94124516  0.29822369  0.03399536  1  0  -0.042053  0  3.640848  0  0  -0.140161  0  3.912363  0  0  -0.13359  0  3.916796  0  0.359709  0  -0.161833  -0.144563  0  3.909014  0
C  C83  1  0.44124447  0.29822369  0.46600464  1  0  -0.041985  0  3.640965  0  0  -0.140105  0  3.912459  0  0  -0.13353  0  3.916895  0  0.359567  0  -0.161802  -0.144509  0  3.909106  0
C  C84  1  0.05875642  0.70177687  0.96600553  1  0  -0.042013  0  3.64099  0  0  -0.140092  0  3.912494  0  0  -0.133533  0  3.916914  0  0.359571  0  -0.161796  -0.144498  0  3.909138  0
C  C85  1  0.55875495  0.70177687  0.53399536  1  0  -0.041848  0  3.640927  0  0  -0.139972  0  3.912427  0  0  -0.133398  0  3.91686  0  0.359566  0  -0.161775  -0.144377  0  3.909078  0
N  N86  1  0.40444367  0.16462806  0.97608026  1  0  -0.305206  0  3.43837  0  0  -0.250103  0  3.679748  0  0  -0.268601  0  3.69346  0  -1.30758  0  -0.371329  -0.23701  0  3.669539  0
N  N87  1  0.90444163  0.16463117  0.52392063  1  0  -0.305094  0  3.438244  0  0  -0.250108  0  3.67982  0  0  -0.268482  0  3.693428  0  -1.307076  0  -0.371343  -0.237014  0  3.669616  0
N  N88  1  0.59555740  0.83536939  0.02392151  1  0  -0.305079  0  3.438297  0  0  -0.250133  0  3.679842  0  0  -0.268504  0  3.693445  0  -1.307076  0  -0.371328  -0.237035  0  3.669628  0
N  N89  1  0.09555489  0.83537147  0.47607849  1  0  -0.305217  0  3.438437  0  0  -0.250154  0  3.679879  0  0  -0.268596  0  3.693548  0  -1.307584  0  -0.371307  -0.23706  0  3.669667  0
O  O90  1  0.15935161  0.95271034  0.11589396  1  0  -0.512188  0  2.188744  0  0  -0.441619  0  2.439899  0  0  -0.465696  0  2.433798  0  -1.175129  0  -0.290626  -0.424863  0  2.443962  0
O  O91  1  0.65935247  0.95271137  0.38410781  1  0  -0.512131  0  2.188749  0  0  -0.441611  0  2.43996  0  0  -0.465667  0  2.433825  0  -1.17515  0  -0.290629  -0.424858  0  2.444025  0
O  O92  1  0.84064673  0.04729022  0.88410870  1  0  -0.512153  0  2.188767  0  0  -0.441601  0  2.439919  0  0  -0.465657  0  2.43381  0  -1.175142  0  -0.290634  -0.424852  0  2.443989  0
O  O93  1  0.34064621  0.04729126  0.61589130  1  0  -0.512164  0  2.188714  0  0  -0.4416  0  2.439866  0  0  -0.465652  0  2.433755  0  -1.175148  0  -0.290643  -0.424846  0  2.443932  0
O  O94  1  0.34517892  0.97767641  0.35628320  1  0  -0.50393  0  2.18522  0  0  -0.438138  0  2.434796  0  0  -0.461239  0  2.428333  0  -1.168751  0  -0.279903  -0.422129  0  2.439293  0
O  O95  1  0.84517870  0.97767744  0.14371768  1  0  -0.50395  0  2.18532  0  0  -0.438156  0  2.434875  0  0  -0.461262  0  2.428433  0  -1.168702  0  -0.279891  -0.422145  0  2.43937  0
O  O96  1  0.65482016  0.02232208  0.64371857  1  0  -0.503953  0  2.185406  0  0  -0.438124  0  2.434941  0  0  -0.461237  0  2.428505  0  -1.168711  0  -0.279873  -0.422112  0  2.439431  0
O  O97  1  0.15481998  0.02232519  0.85628143  1  0  -0.503986  0  2.185289  0  0  -0.438201  0  2.434886  0  0  -0.4613  0  2.428415  0  -1.168705  0  -0.279892  -0.422189  0  2.439379  0
O  O98  1  0.59591275  0.20944738  0.23098215  1  0  -0.478004  0  2.094329  0  0  -0.434625  0  2.313779  0  0  -0.455169  0  2.313219  0  -1.162142  0  -0.288388  -0.420105  0  2.314557  0
O  O99  1  0.09591149  0.20945049  0.26901785  1  0  -0.477994  0  2.094296  0  0  -0.434617  0  2.313744  0  0  -0.455162  0  2.313181  0  -1.162172  0  -0.288416  -0.420106  0  2.314538  0
O  O100  1  0.40408815  0.79054904  0.76901785  1  0  -0.477972  0  2.094339  0  0  -0.434608  0  2.313793  0  0  -0.455156  0  2.313236  0  -1.162198  0  -0.288417  -0.420092  0  2.314573  0
O  O101  1  0.90408736  0.79055318  0.73098481  1  0  -0.478021  0  2.094286  0  0  -0.434627  0  2.313714  0  0  -0.455169  0  2.313154  0  -1.162171  0  -0.28842  -0.4201  0  2.314483  0
O  O102  1  0.05695084  0.21450319  0.04106574  1  0  -0.545426  0  2.196945  0  0  -0.471642  0  2.454372  0  0  -0.49249  0  2.442607  0  -1.142685  0  -0.406496  -0.456429  0  2.461907  0
O  O103  1  0.55695062  0.21450423  0.45893515  1  0  -0.545481  0  2.197004  0  0  -0.471701  0  2.454428  0  0  -0.492546  0  2.442663  0  -1.142681  0  -0.406531  -0.456489  0  2.46197  0
O  O104  1  0.94305057  0.78549633  0.95893603  1  0  -0.545481  0  2.19704  0  0  -0.471726  0  2.454476  0  0  -0.492584  0  2.442722  0  -1.14267  0  -0.406532  -0.45652  0  2.462035  0
O  O105  1  0.44304988  0.78549633  0.54106662  1  0  -0.545479  0  2.196967  0  0  -0.471694  0  2.454387  0  0  -0.492546  0  2.442627  0  -1.142659  0  -0.40653  -0.456478  0  2.461915  0
