# generated using pymatgen
data_SrP2H12(CO2)4
_symmetry_space_group_name_H-M   'P 1'
_cell_length_a   5.20605217
_cell_length_b   9.93219357
_cell_length_c   9.93220117
_cell_angle_alpha   89.99979815
_cell_angle_beta   90.00004461
_cell_angle_gamma   89.99997372
_symmetry_Int_Tables_number   1
_chemical_formula_structural   SrP2H12(CO2)4
_chemical_formula_sum   'Sr2 P4 H24 C8 O16'
_cell_volume   513.56946922
_cell_formula_units_Z   2
loop_
 _symmetry_equiv_pos_site_id
 _symmetry_equiv_pos_as_xyz
  1  'x, y, z'
loop_
 _atom_site_type_symbol
 _atom_site_label
 _atom_site_symmetry_multiplicity
 _atom_site_fract_x
 _atom_site_fract_y
 _atom_site_fract_z
 _atom_site_occupancy
 _atom_site_pbe_bader_spin_density
 _atom_site_pbe_cm5_charge
 _atom_site_pbe_ddec_charge
 _atom_site_pbe_ddec_spin_density
 _atom_site_pbe_ddec_sum_bond_order
 _atom_site_pbe_magmom
Sr  Sr0  1  0.83063496  0.49999921  0.00000029  1  0  0.92861  1.468689  0  1.447246  0
Sr  Sr1  1  0.16936288  0.00000010  0.49999997  1  0  0.928572  1.468675  0  1.447305  0
P  P2  1  0.39496387  0.27145927  0.77146001  1  0  0.293248  1.043102  0  5.133697  0
P  P3  1  0.60505565  0.77145461  0.72854522  1  0  0.293331  1.043185  0  5.133149  0
P  P4  1  0.39495366  0.72854052  0.22854028  1  0  0.293217  1.042958  0  5.133763  0
P  P5  1  0.60505360  0.22854513  0.27145515  1  0  0.293324  1.043221  0  5.133059  0
H  H6  1  0.31310136  0.56053636  0.80098668  1  0  0.306226  0.333351  0  1.011382  0
H  H7  1  0.68690630  0.80098433  0.43946626  1  0  0.306228  0.333369  0  1.01142  0
H  H8  1  0.68690681  0.06053516  0.69901326  1  0  0.306233  0.333397  0  1.011382  0
H  H9  1  0.31309710  0.43946648  0.19901459  1  0  0.30624  0.333391  0  1.011383  0
H  H10  1  0.31309565  0.69901509  0.93946631  1  0  0.306242  0.333396  0  1.011381  0
H  H11  1  0.68690664  0.19901539  0.56053414  1  0  0.306227  0.333386  0  1.011415  0
H  H12  1  0.68690614  0.93946557  0.30098513  1  0  0.306233  0.333365  0  1.011406  0
H  H13  1  0.31309705  0.30098573  0.06053596  1  0  0.306241  0.333398  0  1.011352  0
H  H14  1  0.29098277  0.43906505  0.60364392  1  0  0.102702  0.090308  0  1.002754  0
H  H15  1  0.70902496  0.60364100  0.56093818  1  0  0.102686  0.090241  0  1.002746  0
H  H16  1  0.70902508  0.93906279  0.89635669  1  0  0.102692  0.090261  0  1.002748  0
H  H17  1  0.29097680  0.56093678  0.39635834  1  0  0.1027  0.090239  0  1.002766  0
H  H18  1  0.29097063  0.89635774  0.06093663  1  0  0.102692  0.090214  0  1.002725  0
H  H19  1  0.70902111  0.39635871  0.43906223  1  0  0.102704  0.090275  0  1.002757  0
H  H20  1  0.70901907  0.06093692  0.10364171  1  0  0.102699  0.090271  0  1.002774  0
H  H21  1  0.29097933  0.10364208  0.93906362  1  0  0.102693  0.090261  0  1.002759  0
H  H22  1  0.00979281  0.35884201  0.66666428  1  0  0.118248  0.124233  0  1.027731  0
H  H23  1  0.99021504  0.66666215  0.64116002  1  0  0.118265  0.124224  0  1.02775  0
H  H24  1  0.99021318  0.85884192  0.83333762  1  0  0.118267  0.124249  0  1.027753  0
H  H25  1  0.00978476  0.64115687  0.33333787  1  0  0.118287  0.124249  0  1.027801  0
H  H26  1  0.00978069  0.83333530  0.14115657  1  0  0.118311  0.124282  0  1.027706  0
H  H27  1  0.99021112  0.33333850  0.35883950  1  0  0.118269  0.124226  0  1.027758  0
H  H28  1  0.99021105  0.14115873  0.16666089  1  0  0.118265  0.124223  0  1.027746  0
H  H29  1  0.00979112  0.16666459  0.85884055  1  0  0.118242  0.124216  0  1.027724  0
C  C30  1  0.19482554  0.40252916  0.69596389  1  0  -0.077986  -0.200127  0  3.923441  0
C  C31  1  0.80517843  0.69596192  0.59747475  1  0  -0.077953  -0.199913  0  3.923322  0
C  C32  1  0.80517850  0.90252620  0.80403685  1  0  -0.077989  -0.200021  0  3.923379  0
C  C33  1  0.19481747  0.59747169  0.30403733  1  0  -0.077998  -0.199932  0  3.9235  0
C  C34  1  0.19481339  0.80403669  0.09747148  1  0  -0.077998  -0.19989  0  3.92334  0
C  C35  1  0.80517460  0.30403777  0.40252570  1  0  -0.077965  -0.199987  0  3.923409  0
C  C36  1  0.80517452  0.09747349  0.19596158  1  0  -0.077968  -0.199979  0  3.923373  0
C  C37  1  0.19482387  0.19596416  0.90252873  1  0  -0.077933  -0.199961  0  3.923422  0
O  O38  1  0.62932766  0.33552856  0.83552933  1  0  -0.425212  -0.751722  0  2.16603  0
O  O39  1  0.37066875  0.83553425  0.66446561  1  0  -0.42523  -0.751798  0  2.165451  0
O  O40  1  0.62931932  0.66447017  0.16446904  1  0  -0.425218  -0.751743  0  2.166081  0
O  O41  1  0.37066686  0.16446555  0.33553366  1  0  -0.42524  -0.751821  0  2.165456  0
O  O42  1  0.44311548  0.16260032  0.66260015  1  0  -0.385524  -0.744477  0  2.256113  0
O  O43  1  0.55687916  0.66260234  0.83739942  1  0  -0.385607  -0.744542  0  2.256152  0
O  O44  1  0.44311495  0.83739946  0.33739915  1  0  -0.38548  -0.744404  0  2.256084  0
O  O45  1  0.55687685  0.33739943  0.16260093  1  0  -0.385608  -0.744575  0  2.256095  0
O  O46  1  0.14871193  0.50942181  0.78909612  1  0  -0.422613  -0.48843  0  2.419445  0
O  O47  1  0.85129386  0.78909460  0.49057885  1  0  -0.422624  -0.488515  0  2.419447  0
O  O48  1  0.85129820  0.00942254  0.71090399  1  0  -0.422606  -0.48849  0  2.419367  0
O  O49  1  0.14870381  0.49057805  0.21090609  1  0  -0.422634  -0.488526  0  2.419472  0
O  O50  1  0.14870432  0.71090565  0.99057779  1  0  -0.422637  -0.488551  0  2.419488  0
O  O51  1  0.85129604  0.21090608  0.50942061  1  0  -0.422618  -0.488477  0  2.419423  0
O  O52  1  0.85129362  0.99057814  0.28909547  1  0  -0.42262  -0.488472  0  2.419414  0
O  O53  1  0.14870758  0.28909522  0.00942140  1  0  -0.422629  -0.488503  0  2.419431  0
