# generated using pymatgen
data_LiH5C2(N2O)3
_symmetry_space_group_name_H-M   'P 1'
_cell_length_a   3.52329070
_cell_length_b   7.28409913
_cell_length_c   12.31233251
_cell_angle_alpha   89.99959195
_cell_angle_beta   89.99988403
_cell_angle_gamma   92.22050447
_symmetry_Int_Tables_number   1
_chemical_formula_structural   LiH5C2(N2O)3
_chemical_formula_sum   'Li2 H10 C4 N12 O6'
_cell_volume   315.74641774
_cell_formula_units_Z   2
loop_
 _symmetry_equiv_pos_site_id
 _symmetry_equiv_pos_as_xyz
  1  'x, y, z'
loop_
 _atom_site_type_symbol
 _atom_site_label
 _atom_site_symmetry_multiplicity
 _atom_site_fract_x
 _atom_site_fract_y
 _atom_site_fract_z
 _atom_site_occupancy
 _atom_site_hle17_bader_spin_density
 _atom_site_hle17_ddec_charge
 _atom_site_hle17_ddec_spin_density
 _atom_site_hle17_ddec_sum_bond_order
 _atom_site_hle17_magmom
 _atom_site_hse06_10hf_bader_spin_density
 _atom_site_hse06_10hf_ddec_charge
 _atom_site_hse06_10hf_ddec_spin_density
 _atom_site_hse06_10hf_ddec_sum_bond_order
 _atom_site_hse06_10hf_magmom
 _atom_site_hse06_bader_spin_density
 _atom_site_hse06_ddec_charge
 _atom_site_hse06_ddec_spin_density
 _atom_site_hse06_ddec_sum_bond_order
 _atom_site_hse06_magmom
 _atom_site_pbe_bader_spin_density
 _atom_site_pbe_cm5_charge
 _atom_site_pbe_ddec_charge
 _atom_site_pbe_ddec_spin_density
 _atom_site_pbe_ddec_sum_bond_order
 _atom_site_pbe_magmom
Li  Li0  1  0.50308179  0.50705020  0.45263518  1  0  0.84813  0  0.391678  0  0  0.796131  0  0.513363  0  0  0.806756  0  0.495439  0  0  0.500219  0.788726  0  0.525848  0
Li  Li1  1  0.49692028  0.49295503  0.95263552  1  0  0.848107  0  0.39171  0  0  0.796075  0  0.513458  0  0  0.806699  0  0.495536  0  0  0.500195  0.788665  0  0.525959  0
H  H2  1  0.98656275  0.76666351  0.46906598  1  0  0.40381  0  0.906949  0  0  0.363315  0  0.987922  0  0  0.373494  0  0.972996  0  0  0.30058  0.356178  0  0.998379  0
H  H3  1  0.01343591  0.23333602  0.96906445  1  0  0.403693  0  0.907084  0  0  0.363228  0  0.988013  0  0  0.3734  0  0.973101  0  0  0.300551  0.356089  0  0.998474  0
H  H4  1  0.15826755  0.84449081  0.69650873  1  0  0.136509  0  0.94102  0  0  0.14813  0  1.013088  0  0  0.1509  0  1.010128  0  0  0.121117  0.146043  0  1.01525  0
H  H5  1  0.84173045  0.15551061  0.19650241  1  0  0.136515  0  0.940942  0  0  0.14814  0  1.012994  0  0  0.150915  0  1.01003  0  0  0.121098  0.146054  0  1.015159  0
H  H6  1  0.77019825  0.91543485  0.77697895  1  0  0.123112  0  0.955804  0  0  0.13676  0  1.029475  0  0  0.137542  0  1.028903  0  0  0.115948  0.136099  0  1.02994  0
H  H7  1  0.22980518  0.08457111  0.27697814  1  0  0.123097  0  0.955807  0  0  0.136756  0  1.029455  0  0  0.137536  0  1.028884  0  0  0.11592  0.136093  0  1.029923  0
H  H8  1  0.19459006  0.05619023  0.77088381  1  0  0.107851  0  0.964885  0  0  0.121604  0  1.039472  0  0  0.122726  0  1.038312  0  0  0.111063  0.120709  0  1.040359  0
H  H9  1  0.80540480  0.94381442  0.27088468  1  0  0.107866  0  0.964843  0  0  0.121621  0  1.039409  0  0  0.122733  0  1.038266  0  0  0.111067  0.120715  0  1.040324  0
H  H10  1  0.07743703  0.68084895  0.35258402  1  0  0.396864  0  0.920057  0  0  0.358749  0  0.998741  0  0  0.369396  0  0.983048  0  0  0.295878  0.351372  0  1.00958  0
H  H11  1  0.92256555  0.31915335  0.85258325  1  0  0.39683  0  0.92011  0  0  0.358732  0  0.998771  0  0  0.369357  0  0.983109  0  0  0.295856  0.351333  0  1.009654  0
C  C12  1  0.72887618  0.23124166  0.62251660  1  0  0.419939  0  3.826879  0  0  0.366929  0  4.132051  0  0  0.386961  0  4.142073  0  0  0.339869  0.353981  0  4.125075  0
C  C13  1  0.27112137  0.76874690  0.12252745  1  0  0.419824  0  3.826881  0  0  0.366786  0  4.132073  0  0  0.38679  0  4.142103  0  0  0.33985  0.353822  0  4.125089  0
C  C14  1  0.00473840  0.96330784  0.72449590  1  0  -0.195919  0  3.61229  0  0  -0.305457  0  3.869595  0  0  -0.301268  0  3.875377  0  0  -0.128949  -0.307885  0  3.865707  0
C  C15  1  0.99526209  0.03669187  0.22449732  1  0  -0.195955  0  3.612435  0  0  -0.305516  0  3.869648  0  0  -0.301331  0  3.875447  0  0  -0.128904  -0.307947  0  3.865768  0
N  N16  1  0.86528347  0.05909627  0.62994607  1  0  0.000114  0  3.492005  0  0  0.089223  0  3.718475  0  0  0.074513  0  3.743783  0  0  -0.123186  0.098823  0  3.70128  0
N  N17  1  0.13471246  0.94090869  0.12995057  1  0  0.000123  0  3.491842  0  0  0.089378  0  3.71814  0  0  0.074667  0  3.743458  0  0  -0.123215  0.098966  0  3.700953  0
N  N18  1  0.84831584  0.98216519  0.53004750  1  0  -0.117837  0  2.96082  0  0  -0.103484  0  3.239739  0  0  -0.104797  0  3.250652  0  0  -0.059371  -0.102528  0  3.232462  0
N  N19  1  0.15168312  0.01783272  0.03004784  1  0  -0.117828  0  2.960771  0  0  -0.103489  0  3.239622  0  0  -0.104818  0  3.250566  0  0  -0.059351  -0.10257  0  3.232374  0
N  N20  1  0.70775003  0.10132845  0.46443068  1  0  -0.004107  0  2.968129  0  0  -0.002889  0  3.276984  0  0  0.000579  0  3.286254  0  0  -0.056629  -0.004769  0  3.270618  0
N  N21  1  0.29224868  0.89867114  0.96443344  1  0  -0.004107  0  2.968266  0  0  -0.002891  0  3.277117  0  0  0.000577  0  3.286391  0  0  -0.056606  -0.004765  0  3.270744  0
N  N22  1  0.63007729  0.25766543  0.51791820  1  0  -0.432853  0  3.009205  0  0  -0.413302  0  3.321412  0  0  -0.425749  0  3.329906  0  0  -0.287262  -0.405209  0  3.315682  0
N  N23  1  0.36992483  0.74233537  0.01792179  1  0  -0.432786  0  3.009226  0  0  -0.413292  0  3.32147  0  0  -0.425705  0  3.329946  0  0  -0.287249  -0.405151  0  3.315704  0
N  N24  1  0.71039476  0.33455520  0.71436982  1  0  -0.447672  0  2.902817  0  0  -0.438696  0  3.189825  0  0  -0.456064  0  3.194989  0  0  -0.223917  -0.428144  0  3.186511  0
N  N25  1  0.28960866  0.66544463  0.21437379  1  0  -0.447594  0  2.903214  0  0  -0.438715  0  3.190139  0  0  -0.456067  0  3.1953  0  0  -0.223956  -0.428149  0  3.186819  0
N  N26  1  0.56576547  0.50118120  0.70626705  1  0  0.631647  0  4.042476  0  0  0.668218  0  4.325052  0  0  0.692537  0  4.335887  0  0  0.128731  0.654352  0  4.316955  0
N  N27  1  0.43423255  0.49882147  0.20626923  1  0  0.631425  0  4.042484  0  0  0.668307  0  4.324688  0  0  0.692623  0  4.335522  0  0  0.128702  0.654405  0  4.316629  0
O  O28  1  0.46586931  0.57130821  0.61762735  1  0  -0.469903  0  1.792431  0  0  -0.451212  0  2.013976  0  0  -0.464578  0  2.009026  0  0  -0.187477  -0.442954  0  2.017296  0
O  O29  1  0.53413840  0.42870103  0.11763870  1  0  -0.469656  0  1.792736  0  0  -0.45104  0  2.01417  0  0  -0.464429  0  2.009228  0  0  -0.187282  -0.442807  0  2.017503  0
O  O30  1  0.52959526  0.58794622  0.79397731  1  0  -0.465346  0  1.781108  0  0  -0.447131  0  2.002234  0  0  -0.461315  0  1.997452  0  0  -0.186075  -0.438411  0  2.005463  0
O  O31  1  0.47039507  0.41203892  0.29398796  1  0  -0.465392  0  1.780561  0  0  -0.447312  0  2.001655  0  0  -0.461495  0  1.996884  0  0  -0.18619  -0.438551  0  2.004877  0
O  O32  1  0.01162281  0.64948633  0.42893032  1  0  -0.934326  0  1.915634  0  0  -0.886894  0  2.112392  0  0  -0.901605  0  2.078197  0  0  -0.660538  -0.876352  0  2.135919  0
O  O33  1  0.98836800  0.35051781  0.92892613  1  0  -0.934175  0  1.915792  0  0  -0.886763  0  2.112527  0  0  -0.90148  0  2.078367  0  0  -0.660485  -0.876231  0  2.136056  0
