# generated using pymatgen
data_Zn4H63C95(N9O11)3
_symmetry_space_group_name_H-M   'P 1'
_cell_length_a   19.25925136
_cell_length_b   19.33359032
_cell_length_c   20.24223964
_cell_angle_alpha   106.58521943
_cell_angle_beta   106.81882078
_cell_angle_gamma   112.48839071
_symmetry_Int_Tables_number   1
_chemical_formula_structural   Zn4H63C95(N9O11)3
_chemical_formula_sum   'Zn4 H63 C95 N27 O33'
_cell_volume   5960.19671752
_cell_formula_units_Z   1
loop_
 _symmetry_equiv_pos_site_id
 _symmetry_equiv_pos_as_xyz
  1  'x, y, z'
loop_
 _atom_site_type_symbol
 _atom_site_label
 _atom_site_symmetry_multiplicity
 _atom_site_fract_x
 _atom_site_fract_y
 _atom_site_fract_z
 _atom_site_occupancy
 _atom_site_pbe_bader_charge
 _atom_site_pbe_bader_spin_density
 _atom_site_pbe_cm5_charge
 _atom_site_pbe_ddec_charge
 _atom_site_pbe_ddec_spin_density
 _atom_site_pbe_ddec_sum_bond_order
 _atom_site_pbe_magmom
Zn  Zn0  1  0.87597862  0.87812953  0.49124782  1  1.26397  0  0.725289  0.644795  0  2.447603  0
Zn  Zn1  1  0.11180842  0.12116988  0.50610847  1  1.204958  0  0.745822  0.668513  0  2.416949  0
Zn  Zn2  1  0.09727230  0.01012085  0.60548443  1  1.233207  0  0.725709  0.610275  0  2.550764  0
Zn  Zn3  1  0.90613925  0.01297238  0.39944608  1  1.196065  0  0.756052  0.625611  0  2.467235  0
H  H4  1  0.84775481  0.78155757  0.61071990  1  0.132116  0  0.125164  0.125281  0  0.979638  0
H  H5  1  0.06847931  0.11697205  0.73848239  1  0.095934  0  0.121699  0.115951  0  0.977518  0
H  H6  1  0.88894478  0.15100536  0.50794496  1  0.1265  0  0.126509  0.125387  0  0.983022  0
H  H7  1  0.88000785  0.15877036  0.35320651  1  0.111787  0  0.118391  0.109036  0  0.993055  0
H  H8  1  0.30886024  0.17119296  0.52515398  1  0.094875  0  0.115907  0.104958  0  1.018358  0
H  H9  1  0.14859729  0.89368904  0.51384166  1  0.111505  0  0.118897  0.114798  0  1.007854  0
H  H10  1  0.87802359  0.73082347  0.38362962  1  0.127458  0  0.118355  0.115185  0  1.014207  0
H  H11  1  0.69451125  0.91097190  0.25898369  1  0.102513  0  0.126071  0.119326  0  0.981759  0
H  H12  1  0.28586824  0.03782826  0.66413636  1  0.115017  0  0.123592  0.122658  0  0.991538  0
H  H13  1  0.48941381  0.18763727  0.71755594  1  0.108836  0  0.117563  0.125597  0  0.993891  0
H  H14  1  0.68194672  0.00941714  0.45616582  1  0.130751  0  0.111752  0.124697  0  1.018127  0
H  H15  1  0.40468237  0.95984104  0.39990783  1  0.148288  0  0.1275  0.145519  0  0.987876  0
H  H16  1  0.10898699  0.76359946  0.54687845  1  0.128902  0  0.111097  0.119914  0  1.010786  0
H  H17  1  0.09796818  0.40375580  0.53648145  1  0.116857  0  0.110975  0.120835  0  1.017505  0
H  H18  1  0.94174292  0.27940540  0.29150555  1  0.075371  0  0.10681  0.111573  0  0.992683  0
H  H19  1  0.90207216  0.35624105  0.22414720  1  0.067992  0  0.111453  0.114665  0  0.978288  0
H  H20  1  0.90690072  0.48548768  0.22679914  1  0.092609  0  0.112221  0.117029  0  0.9968  0
H  H21  1  0.58655433  0.77454358  0.13983372  1  0.054177  0  0.099475  0.096095  0  1.005169  0
H  H22  1  0.20595193  0.26338604  0.84620026  1  0.056012  0  0.099549  0.11241  0  1.048747  0
H  H23  1  0.05379033  0.34957409  0.73563365  1  0.087669  0  0.104488  0.125384  0  1.021212  0
H  H24  1  0.37955625  0.60036801  0.20690720  1  0.068538  0  0.104775  0.104609  0  0.986288  0
H  H25  1  0.52489778  0.70254955  0.30728805  1  0.098415  0  0.101779  0.105758  0  1.004507  0
H  H26  1  0.29430455  0.50608928  0.07314326  1  0.077637  0  0.111899  0.121857  0  0.99751  0
H  H27  1  0.44252878  0.67390199  0.04022415  1  0.082389  0  0.106109  0.10982  0  1.00644  0
H  H28  1  0.10450349  0.82147050  0.78003677  1  0.079201  0  0.097261  0.108168  0  1.020946  0
H  H29  1  0.13584993  0.00596359  0.24270372  1  0.060981  0  0.095931  0.096484  0  1.044082  0
H  H30  1  0.86318989  0.80008747  0.73877202  1  0.035865  0  0.098029  0.105396  0  1.05086  0
H  H31  1  0.93967258  0.76278658  0.95903199  1  0.08218  0  0.100294  0.116555  0  1.039907  0
H  H32  1  0.10815633  0.78659778  0.88783732  1  0.092678  0  0.105167  0.112631  0  1.016638  0
H  H33  1  0.15482862  0.94992004  0.12825901  1  0.066937  0  0.103787  0.110154  0  0.9886  0
H  H34  1  0.87194496  0.84369254  0.14500871  1  0.061425  0  0.099807  0.099588  0  1.020423  0
H  H35  1  0.83646080  0.91130722  0.18456764  1  0.030606  0  0.090955  0.083036  0  0.995337  0
H  H36  1  0.77075715  0.79971094  0.14413411  1  0.078282  0  0.106712  0.111473  0  0.976556  0
H  H37  1  0.20353224  0.16541912  0.43033143  1  0.014609  0  0.08855  0.077308  0  1.042566  0
H  H38  1  0.15923998  0.11646032  0.32745385  1  0.02504  0  0.099249  0.096972  0  0.997405  0
H  H39  1  0.26420327  0.14141061  0.38447946  1  0.057204  0  0.107901  0.1167  0  0.972681  0
H  H40  1  0.64792910  0.34327723  0.87063698  1  0.08105  0  0.117145  0.128959  0  0.958247  0
H  H41  1  0.60249446  0.32338705  0.77135179  1  0.037961  0  0.097545  0.092606  0  1.001122  0
H  H42  1  0.71442055  0.36719381  0.82414929  1  0.093397  0  0.10463  0.112793  0  1.001787  0
H  H43  1  0.19390749  0.39836079  0.46070869  1  0.05688  0  0.096628  0.098061  0  1.011666  0
H  H44  1  0.18447789  0.30611624  0.39547777  1  0.035068  0  0.100898  0.099404  0  0.986255  0
H  H45  1  0.27482834  0.37305621  0.48830222  1  0.037979  0  0.111755  0.118257  0  0.966695  0
H  H46  1  0.34383135  0.33312612  0.92824769  1  0.063139  0  0.101637  0.09925  0  0.985557  0
H  H47  1  0.27635519  0.28213184  0.96516844  1  0.056889  0  0.102916  0.101729  0  0.981688  0
H  H48  1  0.37982928  0.37037415  0.03062247  1  0.072068  0  0.112804  0.117612  0  0.96802  0
H  H49  1  0.00270880  0.43375791  0.77903975  1  0.072399  0  0.098721  0.10796  0  1.010366  0
H  H50  1  0.08251553  0.48517903  0.75232602  1  0.057563  0  0.097597  0.107328  0  1.019074  0
H  H51  1  0.06160396  0.54613963  0.82058315  1  0.074766  0  0.114445  0.124835  0  0.961986  0
H  H52  1  0.86043492  0.62364114  0.11287773  1  0.055929  0  0.093451  0.094462  0  1.02213  0
H  H53  1  0.83288402  0.69076191  0.08044544  1  0.043513  0  0.094559  0.092681  0  1.001995  0
H  H54  1  0.81258592  0.67253418  0.15729458  1  0.067298  0  0.097954  0.104951  0  0.995634  0
H  H55  1  0.17715638  0.74652165  0.06377273  1  0.05851  0  0.100107  0.102048  0  0.996656  0
H  H56  1  0.21596489  0.85241519  0.13000366  1  0.071431  0  0.095891  0.094332  0  1.019157  0
H  H57  1  0.25637021  0.83143006  0.06153463  1  0.086162  0  0.113679  0.125724  0  0.962745  0
H  H58  1  0.75015661  0.70951984  0.74464539  1  0.013421  0  0.098054  0.093688  0  0.988931  0
H  H59  1  0.79662455  0.81739315  0.81054995  1  0.028474  0  0.100203  0.09861  0  0.983155  0
H  H60  1  0.73619256  0.73622625  0.83058091  1  0.065609  0  0.109622  0.113232  0  0.973851  0
H  H61  1  0.01420342  0.64727256  0.13826187  1  0.062693  0  0.095155  0.102459  0  1.01509  0
H  H62  1  0.06285953  0.66668315  0.07686088  1  0.060694  0  0.092461  0.08512  0  1.021843  0
H  H63  1  0.96199592  0.57495016  0.03741577  1  0.08948  0  0.106547  0.11464  0  0.969761  0
H  H64  1  0.24992906  0.34586644  0.66569474  1  0.039427  0  0.0932  0.090234  0  0.993313  0
H  H65  1  0.21424465  0.39057789  0.73032634  1  0.059755  0  0.09837  0.105962  0  1.017292  0
H  H66  1  0.20558216  0.40883354  0.64726801  1  0.068115  0  0.10045  0.107114  0  0.999241  0
C  C67  1  0.91313752  0.82820070  0.63234508  1  0.378101  0  0.012699  -0.053981  0  3.916482  0
C  C68  1  0.08403125  0.24696833  0.45221627  1  1.058582  0  0.184479  0.287869  0  4.112216  0
C  C69  1  0.07870482  0.14589311  0.70075336  1  0.399727  0  0.010382  -0.023693  0  3.973076  0
C  C70  1  0.87583185  0.10053120  0.52466659  1  0.428691  0  0.015656  -0.048281  0  3.915148  0
C  C71  1  0.10255316  0.22823872  0.64361981  1  1.019098  0  0.18053  0.29021  0  4.06805  0
C  C72  1  0.83354221  0.00659157  0.56604153  1  0.817853  0  0.184115  0.09648  0  3.964256  0
C  C73  1  0.94582104  0.17884712  0.38530609  1  0.366846  0  0.004592  -0.050439  0  4.030125  0
C  C74  1  0.05000769  0.91289201  0.69314874  1  0.743965  0  0.174778  0.074047  0  3.978982  0
C  C75  1  0.98444315  0.84935331  0.69684158  1  0.060323  0  -0.008012  -0.035587  0  3.996305  0
C  C76  1  0.01744732  0.25727061  0.41398571  1  0.023259  0  -0.0495  -0.164028  0  4.095502  0
C  C77  1  0.09781426  0.22722206  0.71167257  1  0.034702  0  -0.041764  -0.145513  0  4.049348  0
C  C78  1  0.82934791  0.07711232  0.56394115  1  0.026126  0  -0.015578  -0.052025  0  4.038491  0
C  C79  1  0.71072509  0.79603897  0.34655352  1  0.773065  0  0.181055  0.08029  0  3.972209  0
C  C80  1  0.28989010  0.13788568  0.55748333  1  0.416949  0  0.001816  -0.056591  0  4.019958  0
C  C81  1  0.08050656  0.86516607  0.48730860  1  0.396957  0  0.012916  -0.038256  0  3.938227  0
C  C82  1  0.95134971  0.90955647  0.29732759  1  1.003572  0  0.18365  0.302842  0  4.072462  0
C  C83  1  0.08836507  0.99564833  0.35794704  1  1.063066  0  0.182752  0.304788  0  4.075175  0
C  C84  1  0.94229001  0.78233901  0.41920716  1  0.423688  0  0.011759  -0.032654  0  3.94562  0
C  C85  1  0.70941039  0.87908219  0.29233140  1  0.434585  0  0.016123  -0.056048  0  3.939724  0
C  C86  1  0.27919868  0.07041361  0.62912049  1  0.431122  0  0.010145  -0.046219  0  3.965673  0
C  C87  1  0.65554169  0.80185200  0.28680100  1  0.031726  0  -0.006447  -0.03822  0  4.008205  0
C  C88  1  0.33144212  0.10637563  0.59813054  1  0.004543  0  -0.050461  -0.072119  0  4.130332  0
C  C89  1  0.01782994  0.78101675  0.43706267  1  0.016962  0  -0.0435  -0.053031  0  4.066268  0
C  C90  1  0.02453536  0.92567381  0.28681154  1  0.066237  0  -0.04457  -0.229681  0  4.029066  0
C  C91  1  0.40206002  0.05445001  0.52879190  1  0.173056  0  0.091913  -0.008629  0  3.855846  0
C  C92  1  0.40635114  0.10343035  0.59765195  1  0.051001  0  0.012943  0.073215  0  4.024827  0
C  C93  1  0.48467914  0.15061373  0.66286193  1  -0.015448  0  -0.065514  -0.132371  0  3.897824  0
C  C94  1  0.55703288  0.15240376  0.65922377  1  0.018938  0  -0.005179  -0.007685  0  4.032717  0
C  C95  1  0.55182974  0.10349036  0.58843909  1  0.034002  0  0.011403  0.022201  0  3.930042  0
C  C96  1  0.47186492  0.05245301  0.52165191  1  0.070677  0  0.00432  0.045017  0  4.014975  0
C  C97  1  0.63711267  0.20181786  0.72677062  1  0.590565  0  0.105744  0.181905  0  4.021955  0
C  C98  1  0.70708981  0.20136725  0.72224608  1  0.236197  0  0.076663  -0.067458  0  3.883804  0
C  C99  1  0.70485904  0.15428590  0.65138504  1  0.109088  0  0.01356  0.014772  0  3.968299  0
C  C100  1  0.62452863  0.10388795  0.58405662  1  0.008866  0  0.012334  0.01795  0  3.892884  0
C  C101  1  0.61707270  0.05340627  0.51212818  1  -0.001734  0  0.006069  0.052166  0  4.01143  0
C  C102  1  0.53516388  0.00316550  0.44707560  1  0.181022  0  0.085772  0.03814  0  3.909343  0
C  C103  1  0.46500303  0.00063793  0.45122247  1  0.060804  0  -0.064349  -0.148783  0  3.938141  0
C  C104  1  0.77419340  0.15132900  0.64296698  1  0.21269  0  0.091018  -0.000888  0  3.86472  0
C  C105  1  0.76499564  0.09601958  0.57459782  1  0.044482  0  0.010626  0.072348  0  4.032045  0
C  C106  1  0.68723052  0.04974855  0.50952063  1  0.053803  0  -0.082588  -0.16458  0  3.941517  0
C  C107  1  0.98626457  0.63459421  0.35688344  1  0.210565  0  0.0859  -0.022381  0  3.884561  0
C  C108  1  0.02720161  0.70758982  0.42640406  1  0.064624  0  0.013412  0.076761  0  4.0202  0
C  C109  1  0.07598708  0.70695178  0.49275418  1  -0.022568  0  -0.076867  -0.153996  0  3.903403  0
C  C110  1  0.07874358  0.63544040  0.49166247  1  0.046441  0  -0.000228  0.040144  0  4.033328  0
C  C111  1  0.03167070  0.56002046  0.42070636  1  0.00944  0  0.008718  0.015191  0  3.923268  0
C  C112  1  0.98648485  0.56048163  0.35126782  1  0.036384  0  0.002426  0.039274  0  4.019841  0
C  C113  1  0.12129811  0.63107888  0.56007812  1  0.264213  0  0.09181  -0.007729  0  3.902712  0
C  C114  1  0.11619450  0.55801798  0.55843158  1  0.202094  0  0.090407  -0.011274  0  3.914071  0
C  C115  1  0.07109772  0.48210101  0.48787116  1  0.044204  0  -0.003369  0.036608  0  4.044884  0
C  C116  1  0.02835743  0.48478512  0.41871367  1  -0.009152  0  0.006251  0.008686  0  3.916669  0
C  C117  1  0.98083276  0.41006437  0.34732832  1  0.006775  0  -0.005152  0.08257  0  4.048595  0
C  C118  1  0.93780675  0.41322865  0.27857936  1  -0.034806  0  -0.081683  -0.117648  0  3.99513  0
C  C119  1  0.94046188  0.48518846  0.28014492  1  -0.028273  0  -0.087748  -0.125828  0  3.999315  0
C  C120  1  0.06738885  0.40724197  0.48410167  1  -0.059537  0  -0.085404  -0.178385  0  3.921052  0
C  C121  1  0.02107079  0.33414691  0.41382075  1  0.043108  0  -0.003834  0.121334  0  4.072017  0
C  C122  1  0.97775013  0.33610485  0.34630227  1  -0.041736  0  -0.081007  -0.176544  0  3.91723  0
C  C123  1  0.56715304  0.74543279  0.23093213  1  0.013683  0  -0.011109  0.078213  0  4.056154  0
C  C124  1  0.54065057  0.73783692  0.15530647  1  -0.059924  0  -0.089287  -0.125772  0  3.99075  0
C  C125  1  0.45862136  0.68080125  0.09879989  1  -0.038974  0  -0.087119  -0.11307  0  3.94269  0
C  C126  1  0.39893675  0.62852418  0.11565272  1  0.030408  0  -0.00683  0.124284  0  4.024258  0
C  C127  1  0.42488328  0.63954463  0.19243996  1  -0.052883  0  -0.0841  -0.115248  0  3.958113  0
C  C128  1  0.50682452  0.69677976  0.24900286  1  -0.047844  0  -0.090056  -0.121334  0  4.006727  0
C  C129  1  0.23220780  0.38590761  0.91758064  1  0.486352  0  0.088027  0.250809  0  4.046824  0
C  C130  1  0.18845709  0.31105999  0.85017904  1  -0.020813  0  -0.129397  -0.318977  0  4.01418  0
C  C131  1  0.10370570  0.36008996  0.78636027  1  -0.028104  0  -0.11971  -0.298183  0  3.980921  0
C  C132  1  0.14573253  0.43411148  0.85471495  1  0.514936  0  0.092808  0.254261  0  4.045183  0
C  C133  1  0.21461544  0.45140273  0.92026002  1  0.076775  0  -0.037433  -0.179552  0  4.019488  0
C  C134  1  0.31769503  0.55643253  0.05701542  1  0.031883  0  -0.080902  -0.182453  0  3.956242  0
C  C135  1  0.27238568  0.53606309  0.98218113  1  0.194892  0  0.07275  0.058863  0  3.928015  0
C  C136  1  0.12722491  0.29951099  0.78349173  1  0.036207  0  -0.000613  0.170756  0  4.069273  0
C  C137  1  0.98500158  0.81682851  0.75358407  1  0.054793  0  -0.019835  0.092735  0  4.084624  0
C  C138  1  0.05209074  0.80902477  0.79425046  1  -0.062724  0  -0.103655  -0.146003  0  4.020096  0
C  C139  1  0.05373075  0.78836745  0.85477201  1  0.041067  0  -0.092399  -0.113056  0  3.97311  0
C  C140  1  0.98900332  0.77419602  0.87777429  1  -0.014404  0  -0.016966  0.050985  0  4.013559  0
C  C141  1  0.91664494  0.77261343  0.83009642  1  0.44371  0  0.0798  0.202891  0  4.018652  0
C  C142  1  0.91560152  0.79470458  0.77035717  1  -0.032012  0  -0.120972  -0.285868  0  4.017184  0
C  C143  1  0.00333055  0.76820074  0.10645725  1  0.511868  0  0.066028  0.098905  0  4.032672  0
C  C144  1  0.98998389  0.80056183  0.17074941  1  0.464361  0  0.077007  0.096447  0  4.031798  0
C  C145  1  0.09884593  0.93902655  0.20531050  1  -0.101004  0  -0.103089  -0.133114  0  4.044215  0
C  C146  1  0.11048384  0.90758618  0.14134218  1  0.066484  0  -0.105968  -0.138978  0  4.065317  0
C  C147  1  0.06098871  0.82203237  0.08951573  1  -0.051618  0  -0.024767  -0.071509  0  4.068136  0
C  C148  1  0.99484688  0.77209707  0.94985848  1  0.022307  0  -0.120316  -0.278803  0  4.006253  0
C  C149  1  0.06371568  0.79585527  0.01424913  1  0.464098  0  0.08839  0.226374  0  3.999015  0
C  C150  1  0.03727558  0.88769861  0.22067710  1  0.04917  0  -0.019402  0.033026  0  4.037156  0
C  C151  1  0.83578271  0.85217747  0.17664581  1  0.375024  0  -0.13604  -0.164295  0  3.915187  0
C  C152  1  0.20089639  0.12018794  0.38046316  1  0.436489  0  -0.136267  -0.170782  0  3.9209  0
C  C153  1  0.65209388  0.32434883  0.81618421  1  0.357391  0  -0.130688  -0.170776  0  3.868919  0
C  C154  1  0.20702438  0.34714219  0.45648411  1  0.430825  0  -0.133467  -0.166782  0  3.901125  0
C  C155  1  0.32517061  0.34277906  0.97512814  1  0.375601  0  -0.13032  -0.168424  0  3.922312  0
C  C156  1  0.06419315  0.48880200  0.79927145  1  0.381447  0  -0.133328  -0.173374  0  3.8752  0
C  C157  1  0.85556168  0.68003408  0.13084100  1  0.387006  0  -0.146913  -0.181296  0  3.934435  0
C  C158  1  0.20043653  0.81118846  0.07132830  1  0.3489  0  -0.134291  -0.17777  0  3.902204  0
C  C159  1  0.78003809  0.75440550  0.80599402  1  0.45722  0  -0.133226  -0.170292  0  3.950665  0
C  C160  1  0.00254469  0.64106146  0.07976674  1  0.336594  0  -0.137914  -0.169221  0  3.90616  0
C  C161  1  0.20276841  0.36334931  0.67001566  1  0.385242  0  -0.138633  -0.160449  0  3.882675  0
N  N162  1  0.93529221  0.87475153  0.59515632  1  -0.708863  0  -0.230555  -0.112555  0  3.513668  0
N  N163  1  0.05434785  0.16959831  0.44649664  1  -0.78391  0  -0.275151  -0.273682  0  3.524389  0
N  N164  1  0.07251614  0.10240723  0.63212469  1  -0.810795  0  -0.292117  -0.185837  0  3.654327  0
N  N165  1  0.90443608  0.04705145  0.50522797  1  -0.713245  0  -0.242744  -0.132023  0  3.532741  0
N  N166  1  0.08839471  0.15342578  0.59708275  1  -0.789464  0  -0.286298  -0.291678  0  3.586609  0
N  N167  1  0.87870953  0.98975798  0.53094035  1  -0.722602  0  -0.242239  -0.191744  0  3.563213  0
N  N168  1  0.96814557  0.12725227  0.40592929  1  -0.811674  0  -0.279342  -0.174947  0  3.587164  0
N  N169  1  0.01857156  0.92667060  0.63241663  1  -0.725604  0  -0.25703  -0.21904  0  3.574073  0
N  N170  1  0.78875821  0.86329399  0.38261280  1  -0.684844  0  -0.240261  -0.217032  0  3.498717  0
N  N171  1  0.21830732  0.12168198  0.56370411  1  -0.785645  0  -0.269683  -0.178068  0  3.551041  0
N  N172  1  0.04451897  0.91208786  0.49906524  1  -0.768735  0  -0.272822  -0.176292  0  3.555232  0
N  N173  1  0.97142658  0.96421544  0.36827532  1  -0.81184  0  -0.298185  -0.282272  0  3.601137  0
N  N174  1  0.05694960  0.01640912  0.40653000  1  -0.802611  0  -0.290661  -0.285383  0  3.593199  0
N  N175  1  0.95922567  0.86059841  0.45771439  1  -0.786878  0  -0.276366  -0.176194  0  3.588134  0
N  N176  1  0.78783352  0.91417275  0.34985934  1  -0.754313  0  -0.240377  -0.114683  0  3.573786  0
N  N177  1  0.21139884  0.07925790  0.60746117  1  -0.767581  0  -0.262088  -0.153413  0  3.506872  0
N  N178  1  0.31980404  0.99918649  0.45946969  1  0.405726  0  0.059796  0.517476  0  4.22868  0
N  N179  1  0.78231785  0.24218133  0.79690365  1  0.415715  0  0.054029  0.520243  0  4.254374  0
N  N180  1  0.86120581  0.21035434  0.70339345  1  0.410778  0  0.054075  0.508496  0  4.233737  0
N  N181  1  0.52260845  0.95041377  0.37058273  1  0.365032  0  0.059907  0.520835  0  4.191815  0
N  N182  1  0.93858907  0.63241175  0.28425167  1  0.386668  0  0.062996  0.526441  0  4.218845  0
N  N183  1  0.16733880  0.70692825  0.63485271  1  0.410468  0  0.060259  0.517162  0  4.23807  0
N  N184  1  0.15929735  0.55656698  0.63094951  1  0.40313  0  0.060483  0.516056  0  4.237813  0
N  N185  1  0.29309601  0.60353542  0.95664016  1  0.409797  0  0.052166  0.513274  0  4.226382  0
N  N186  1  0.78763994  0.94960325  0.59013435  1  0.306377  0  0.054641  0.512471  0  4.225584  0
N  N187  1  0.13768757  0.96632790  0.74134560  1  0.268909  0  0.043647  0.494893  0  4.213743  0
N  N188  1  0.70130855  0.73313261  0.37206904  1  0.270601  0  0.054531  0.505851  0  4.185542  0
O  O189  1  0.86862114  0.85220979  0.25010520  1  -1.077056  0  -0.195331  -0.187216  0  2.573956  0
O  O190  1  0.17219908  0.03915559  0.37903240  1  -1.088948  0  -0.196087  -0.191689  0  2.595418  0
O  O191  1  0.26562713  0.94137627  0.46255343  1  -0.4268  0  -0.109266  -0.301799  0  1.88593  0
O  O192  1  0.31273437  0.01310113  0.40255762  1  -0.439807  0  -0.114747  -0.313776  0  1.919034  0
O  O193  1  0.63998330  0.24091262  0.79606916  1  -1.067219  0  -0.200261  -0.181351  0  2.53407  0
O  O194  1  0.16865177  0.29996606  0.49229831  1  -1.097742  0  -0.191723  -0.195798  0  2.582122  0
O  O195  1  0.80816274  0.19618362  0.81185977  1  -0.43051  0  -0.122949  -0.311061  0  1.877549  0
O  O196  1  0.81192052  0.31665276  0.83954218  1  -0.42572  0  -0.113966  -0.307569  0  1.920624  0
O  O197  1  0.90828512  0.18269504  0.72007240  1  -0.41846  0  -0.096051  -0.284594  0  1.947047  0
O  O198  1  0.88176489  0.28558366  0.72975352  1  -0.465627  0  -0.127181  -0.333524  0  1.931537  0
O  O199  1  0.57751867  0.97951880  0.34995195  1  -0.454131  0  -0.136044  -0.338376  0  1.885498  0
O  O200  1  0.45721378  0.88130304  0.33146882  1  -0.416133  0  -0.122876  -0.315636  0  1.858633  0
O  O201  1  0.96826360  0.62937415  0.23751635  1  -0.442919  0  -0.106035  -0.313916  0  1.946235  0
O  O202  1  0.87123305  0.63069610  0.27371004  1  -0.444519  0  -0.106805  -0.307418  0  1.901604  0
O  O203  1  0.22440288  0.77006978  0.64069028  1  -0.412914  0  -0.119145  -0.308893  0  1.867328  0
O  O204  1  0.14387326  0.70171391  0.68490311  1  -0.427138  0  -0.112557  -0.301268  0  1.874549  0
O  O205  1  0.11484288  0.50574816  0.64782602  1  -0.432029  0  -0.105382  -0.306281  0  1.925093  0
O  O206  1  0.23628714  0.60433325  0.66785322  1  -0.42113  0  -0.117196  -0.303346  0  1.856698  0
O  O207  1  0.30973123  0.59158250  0.90099691  1  -0.464017  0  -0.150987  -0.351391  0  1.881278  0
O  O208  1  0.29343867  0.66721790  0.99297609  1  -0.454159  0  -0.141994  -0.34439  0  1.898274  0
O  O209  1  0.29696055  0.40180753  0.98138663  1  -1.081954  0  -0.181042  -0.153899  0  2.594447  0
O  O210  1  0.12695098  0.49600555  0.86436152  1  -1.064145  0  -0.179872  -0.149459  0  2.586128  0
O  O211  1  0.93505153  0.75171143  0.19028122  1  -1.06517  0  -0.191692  -0.153657  0  2.634451  0
O  O212  1  0.13938899  0.81477343  0.01340538  1  -1.068471  0  -0.179901  -0.152539  0  2.565921  0
O  O213  1  0.85186305  0.75327714  0.85011538  1  -1.078666  0  -0.191993  -0.161033  0  2.586371  0
O  O214  1  0.95822100  0.68287163  0.05896102  1  -1.077555  0  -0.21402  -0.194083  0  2.564872  0
O  O215  1  0.11898635  0.29083726  0.62190078  1  -1.088124  0  -0.205086  -0.206464  0  2.552319  0
O  O216  1  0.75666694  0.97320661  0.63136954  1  -0.438417  0  -0.134256  -0.324096  0  1.874472  0
O  O217  1  0.77910067  0.87815190  0.56575024  1  -0.489118  0  -0.145522  -0.35891  0  1.963949  0
O  O218  1  0.17217502  0.96402307  0.80192044  1  -0.431305  0  -0.126692  -0.312639  0  1.904683  0
O  O219  1  0.17859877  0.01727279  0.71964623  1  -0.551043  0  -0.174458  -0.391134  0  2.018267  0
O  O220  1  0.76437183  0.74917931  0.43013447  1  -0.524807  0  -0.15308  -0.349728  0  2.02915  0
O  O221  1  0.63465712  0.66545400  0.33795611  1  -0.407826  0  -0.117169  -0.304899  0  1.894932  0
