# generated using pymatgen
data_HgH9C12N7O
_symmetry_space_group_name_H-M   'P 1'
_cell_length_a   8.23887426
_cell_length_b   14.02399002
_cell_length_c   14.48200000
_cell_angle_alpha   90.00000000
_cell_angle_beta   90.00000000
_cell_angle_gamma   97.03204808
_symmetry_Int_Tables_number   1
_chemical_formula_structural   HgH9C12N7O
_chemical_formula_sum   'Hg4 H36 C48 N28 O4'
_cell_volume   1660.69097700
_cell_formula_units_Z   4
loop_
 _symmetry_equiv_pos_site_id
 _symmetry_equiv_pos_as_xyz
  1  'x, y, z'
loop_
 _atom_site_type_symbol
 _atom_site_label
 _atom_site_symmetry_multiplicity
 _atom_site_fract_x
 _atom_site_fract_y
 _atom_site_fract_z
 _atom_site_occupancy
 _atom_site_hle17_bader_spin_density
 _atom_site_hle17_ddec_charge
 _atom_site_hle17_ddec_spin_density
 _atom_site_hle17_ddec_sum_bond_order
 _atom_site_hle17_magmom
 _atom_site_hse06_10hf_bader_spin_density
 _atom_site_hse06_10hf_ddec_charge
 _atom_site_hse06_10hf_ddec_spin_density
 _atom_site_hse06_10hf_ddec_sum_bond_order
 _atom_site_hse06_10hf_magmom
 _atom_site_hse06_bader_spin_density
 _atom_site_hse06_ddec_charge
 _atom_site_hse06_ddec_spin_density
 _atom_site_hse06_ddec_sum_bond_order
 _atom_site_hse06_magmom
 _atom_site_pbe_bader_charge
 _atom_site_pbe_bader_spin_density
 _atom_site_pbe_cm5_charge
 _atom_site_pbe_ddec_charge
 _atom_site_pbe_ddec_spin_density
 _atom_site_pbe_ddec_sum_bond_order
 _atom_site_pbe_magmom
Hg  Hg0  1  0.54355422  0.18157058  0.98785320  1  0  0.779874  0  1.934652  0  0  0.59107  0  2.400197  0  0  0.649377  0  2.366895  0  0.913093  0  0.646403  0.55102  0  2.422278  0
Hg  Hg1  1  0.45644435  0.31843088  0.48785458  1  0  0.779899  0  1.934652  0  0  0.591119  0  2.40019  0  0  0.649426  0  2.366887  0  0.913102  0  0.646406  0.55107  0  2.422271  0
Hg  Hg2  1  0.45644891  0.81842948  0.01214542  1  0  0.779909  0  1.934604  0  0  0.591072  0  2.400155  0  0  0.649377  0  2.366855  0  0.913068  0  0.646413  0.551022  0  2.422235  0
Hg  Hg3  1  0.54355073  0.68157133  0.51214611  1  0  0.779911  0  1.934612  0  0  0.591097  0  2.400141  0  0  0.649402  0  2.366839  0  0.913047  0  0.646419  0.551047  0  2.42222  0
H  H4  1  0.27980814  0.72957579  0.67498343  1  0  0.087112  0  0.929509  0  0  0.094793  0  0.992984  0  0  0.097598  0  0.990175  0  0.100858  0  0.115912  0.092693  0  0.995114  0
H  H5  1  0.72019121  0.77042358  0.17498343  1  0  0.087103  0  0.929524  0  0  0.094791  0  0.99299  0  0  0.097595  0  0.990183  0  0.100427  0  0.115902  0.092691  0  0.99512  0
H  H6  1  0.72020077  0.27042283  0.32501726  1  0  0.087111  0  0.929586  0  0  0.09479  0  0.993038  0  0  0.097596  0  0.990234  0  0.100815  0  0.115972  0.092695  0  0.995156  0
H  H7  1  0.27980281  0.22957935  0.82501726  1  0  0.087127  0  0.929526  0  0  0.094795  0  0.993002  0  0  0.09759  0  0.990208  0  0.100419  0  0.115947  0.092699  0  0.995122  0
H  H8  1  0.26288258  0.84088377  0.81015053  1  0  0.110171  0  0.978279  0  0  0.11329  0  1.051903  0  0  0.116912  0  1.050397  0  0.130593  0  0.10497  0.110754  0  1.053012  0
H  H9  1  0.73711585  0.65911704  0.31015122  1  0  0.110183  0  0.978259  0  0  0.113312  0  1.051871  0  0  0.116934  0  1.050365  0  0.130596  0  0.104973  0.110776  0  1.05298  0
H  H10  1  0.73712360  0.15911342  0.18985154  1  0  0.110216  0  0.978305  0  0  0.113305  0  1.051958  0  0  0.116926  0  1.050454  0  0.13048  0  0.105  0.110768  0  1.053067  0
H  H11  1  0.26287649  0.34088948  0.68985223  1  0  0.110223  0  0.978266  0  0  0.113325  0  1.051912  0  0  0.116946  0  1.050407  0  0.130504  0  0.104996  0.110789  0  1.05302  0
H  H12  1  0.67909023  0.01917376  0.69842494  1  0  0.112987  0  0.949436  0  0  0.123163  0  1.007446  0  0  0.126662  0  1.006209  0  0.110245  0  0.110647  0.120646  0  1.008469  0
H  H13  1  0.32090683  0.48082627  0.19842632  1  0  0.112963  0  0.949451  0  0  0.123155  0  1.007439  0  0  0.126653  0  1.006203  0  0.110224  0  0.110663  0.120638  0  1.008463  0
H  H14  1  0.32090956  0.98082773  0.30157782  1  0  0.112951  0  0.949506  0  0  0.123128  0  1.007514  0  0  0.126628  0  1.006274  0  0.110274  0  0.110654  0.120612  0  1.008537  0
H  H15  1  0.67909160  0.51917451  0.80157575  1  0  0.113028  0  0.949405  0  0  0.123221  0  1.007394  0  0  0.126713  0  1.006152  0  0.110221  0  0.110693  0.120705  0  1.008416  0
H  H16  1  0.68724677  0.89721455  0.57088247  1  0  0.079394  0  0.934883  0  0  0.087318  0  0.995731  0  0  0.090224  0  0.993495  0  0.089339  0  0.112364  0.085243  0  0.997305  0
H  H17  1  0.31274924  0.60278626  0.07088455  1  0  0.079368  0  0.934966  0  0  0.087291  0  0.995814  0  0  0.090198  0  0.993577  0  0.089313  0  0.112372  0.085217  0  0.997386  0
H  H18  1  0.31275605  0.10278982  0.42911891  1  0  0.07934  0  0.934952  0  0  0.087332  0  0.995725  0  0  0.090239  0  0.993489  0  0.089342  0  0.11238  0.085256  0  0.997301  0
H  H19  1  0.68725102  0.39721165  0.92911545  1  0  0.079357  0  0.934942  0  0  0.087306  0  0.995768  0  0  0.090212  0  0.993533  0  0.089261  0  0.112378  0.085231  0  0.997343  0
H  H20  1  0.12801419  0.98450845  0.02659094  1  0  0.092391  0  0.945344  0  0  0.100964  0  1.016754  0  0  0.10303  0  1.014152  0  0.122324  0  0.120115  0.099445  0  1.018642  0
H  H21  1  0.87198394  0.51549092  0.52659301  1  0  0.092386  0  0.945352  0  0  0.100943  0  1.016766  0  0  0.103007  0  1.014164  0  0.122437  0  0.120124  0.099423  0  1.018654  0
H  H22  1  0.87198864  0.01549018  0.97341044  1  0  0.092378  0  0.945364  0  0  0.10094  0  1.016785  0  0  0.103005  0  1.014183  0  0.122325  0  0.120101  0.099422  0  1.01867  0
H  H23  1  0.12800872  0.48451129  0.47341182  1  0  0.092371  0  0.945362  0  0  0.100947  0  1.016774  0  0  0.103015  0  1.014169  0  0.122337  0  0.12012  0.09943  0  1.018658  0
H  H24  1  0.98499087  0.04994288  0.15761290  1  0  0.115823  0  0.940704  0  0  0.124019  0  1.002148  0  0  0.127846  0  1.000756  0  0.109885  0  0.109388  0.121222  0  1.003335  0
H  H25  1  0.01500572  0.45006074  0.65761359  1  0  0.115877  0  0.940666  0  0  0.124091  0  1.00209  0  0  0.127935  0  1.000682  0  0.109879  0  0.109425  0.121295  0  1.003276  0
H  H26  1  0.01500937  0.95006077  0.84238710  1  0  0.115864  0  0.940703  0  0  0.124063  0  1.002138  0  0  0.127895  0  1.000745  0  0.109817  0  0.109403  0.121266  0  1.003325  0
H  H27  1  0.98499013  0.54993932  0.34238917  1  0  0.115807  0  0.940718  0  0  0.124065  0  1.002102  0  0  0.127899  0  1.000701  0  0.109836  0  0.109415  0.121269  0  1.003288  0
H  H28  1  0.97715365  0.17688832  0.28020992  1  0  0.092218  0  0.95522  0  0  0.10354  0  1.0134  0  0  0.105565  0  1.012607  0  0.099245  0  0.106979  0.102082  0  1.013958  0
H  H29  1  0.02284659  0.32311530  0.78021130  1  0  0.092227  0  0.955194  0  0  0.103553  0  1.013364  0  0  0.105579  0  1.012571  0  0.099224  0  0.106984  0.102094  0  1.013924  0
H  H30  1  0.02284826  0.82311748  0.71978663  1  0  0.092203  0  0.955151  0  0  0.10353  0  1.013333  0  0  0.105557  0  1.012539  0  0.099144  0  0.106982  0.102072  0  1.013892  0
H  H31  1  0.97714881  0.67688261  0.21978870  1  0  0.092197  0  0.955192  0  0  0.103521  0  1.013366  0  0  0.105547  0  1.012573  0  0.099206  0  0.106973  0.102063  0  1.013925  0
H  H32  1  0.19967245  0.31614687  0.28326336  1  0  0.116579  0  0.974014  0  0  0.122246  0  1.040193  0  0  0.126103  0  1.038146  0  0.131971  0  0.106667  0.1195  0  1.041735  0
H  H33  1  0.80033355  0.18385531  0.78326405  1  0  0.11646  0  0.974141  0  0  0.122219  0  1.040224  0  0  0.126076  0  1.038175  0  0.131985  0  0.106652  0.119472  0  1.041768  0
H  H34  1  0.80033386  0.68385678  0.71673319  1  0  0.116515  0  0.974075  0  0  0.122232  0  1.040216  0  0  0.126091  0  1.038164  0  0.131975  0  0.106631  0.119486  0  1.041759  0
H  H35  1  0.19966443  0.81614331  0.21673457  1  0  0.116501  0  0.97407  0  0  0.122215  0  1.040212  0  0  0.126074  0  1.03816  0  0.132003  0  0.106628  0.119469  0  1.041754  0
H  H36  1  0.42456971  0.32115029  0.16773236  1  0  0.077505  0  0.926005  0  0  0.088281  0  0.985276  0  0  0.090672  0  0.983281  0  0.068415  0  0.115918  0.086498  0  0.986796  0
H  H37  1  0.57543326  0.17884902  0.66773374  1  0  0.077503  0  0.926065  0  0  0.088274  0  0.985331  0  0  0.090665  0  0.983339  0  0.068406  0  0.115922  0.086493  0  0.98685  0
H  H38  1  0.57543599  0.67885049  0.83226557  1  0  0.077498  0  0.92613  0  0  0.088279  0  0.985395  0  0  0.090669  0  0.983404  0  0.068437  0  0.115935  0.086498  0  0.986913  0
H  H39  1  0.42456016  0.82115103  0.33226626  1  0  0.0775  0  0.926162  0  0  0.08827  0  0.985428  0  0  0.09066  0  0.983436  0  0.068427  0  0.115935  0.086489  0  0.986947  0
C  C40  1  0.46719422  0.94039449  0.76257009  1  0  0.026793  0  3.72986  0  0  0.042751  0  3.958062  0  0  0.043219  0  3.978219  0  -0.008312  0  0.005221  0.042426  0  3.944519  0
C  C41  1  0.53280527  0.55960559  0.26257009  1  0  0.026779  0  3.729944  0  0  0.04273  0  3.958128  0  0  0.043197  0  3.978283  0  -0.008327  0  0.0052  0.042405  0  3.944585  0
C  C42  1  0.53280997  0.05960485  0.23743060  1  0  0.026756  0  3.729919  0  0  0.042738  0  3.958092  0  0  0.043208  0  3.978245  0  -0.00804  0  0.005199  0.042412  0  3.944548  0
C  C43  1  0.46719239  0.44039734  0.73743129  1  0  0.026746  0  3.730008  0  0  0.042768  0  3.958134  0  0  0.04324  0  3.978279  0  -0.008145  0  0.005198  0.042441  0  3.944591  0
C  C44  1  0.36618701  0.79456268  0.68288634  1  0  0.119285  0  3.709665  0  0  0.087244  0  3.966192  0  0  0.093738  0  3.984557  0  0.480787  0  0.042977  0.08304  0  3.953669  0
C  C45  1  0.63381142  0.70543813  0.18288772  1  0  0.119361  0  3.70961  0  0  0.087313  0  3.96614  0  0  0.093806  0  3.984506  0  0.48073  0  0.043066  0.083108  0  3.953618  0
C  C46  1  0.63381840  0.20543666  0.31711504  1  0  0.119357  0  3.709844  0  0  0.087345  0  3.966337  0  0  0.093831  0  3.984699  0  0.48028  0  0.042947  0.08314  0  3.953817  0
C  C47  1  0.36618382  0.29456481  0.81711435  1  0  0.119328  0  3.709688  0  0  0.087326  0  3.966187  0  0  0.093824  0  3.984555  0  0.48075  0  0.042962  0.08312  0  3.953668  0
C  C48  1  0.35498881  0.85705361  0.75663582  1  0  -0.139001  0  3.709835  0  0  -0.156576  0  3.955868  0  0  -0.162938  0  3.976728  0  -0.031084  0  -0.080829  -0.152432  0  3.941868  0
C  C49  1  0.64501053  0.64294576  0.25663582  1  0  -0.138999  0  3.70983  0  0  -0.156591  0  3.955885  0  0  -0.16295  0  3.97674  0  -0.03059  0  -0.080844  -0.152447  0  3.941885  0
C  C50  1  0.64501766  0.14294501  0.24336625  1  0  -0.139077  0  3.70993  0  0  -0.156635  0  3.955944  0  0  -0.162995  0  3.976803  0  -0.030633  0  -0.080841  -0.152496  0  3.941956  0
C  C51  1  0.35498349  0.35705718  0.74336625  1  0  -0.139058  0  3.709867  0  0  -0.156656  0  3.955892  0  0  -0.163017  0  3.976746  0  -0.030628  0  -0.080832  -0.152516  0  3.941903  0
C  C52  1  0.58810879  0.95609734  0.69447866  1  0  -0.131723  0  3.714902  0  0  -0.151045  0  3.958503  0  0  -0.156868  0  3.979278  0  -0.006003  0  -0.081288  -0.147285  0  3.944579  0
C  C53  1  0.41189071  0.54390275  0.19447866  1  0  -0.131669  0  3.714935  0  0  -0.151002  0  3.958527  0  0  -0.156821  0  3.9793  0  -0.005985  0  -0.081276  -0.147241  0  3.944602  0
C  C54  1  0.41189343  0.04390416  0.30552410  1  0  -0.131623  0  3.714917  0  0  -0.150966  0  3.958539  0  0  -0.156787  0  3.979312  0  -0.007219  0  -0.081268  -0.147205  0  3.944613  0
C  C55  1  0.58811015  0.45609803  0.80552272  1  0  -0.131772  0  3.715025  0  0  -0.15113  0  3.958624  0  0  -0.156938  0  3.979385  0  -0.006009  0  -0.08132  -0.147368  0  3.944698  0
C  C56  1  0.59226185  0.88925895  0.62391175  1  0  0.112343  0  3.744931  0  0  0.084667  0  3.995009  0  0  0.090508  0  4.014895  0  0.456717  0  0.040774  0.080926  0  3.981333  0
C  C57  1  0.40773673  0.61074257  0.12391244  1  0  0.112377  0  3.745062  0  0  0.084689  0  3.995134  0  0  0.090529  0  4.01502  0  0.456753  0  0.04075  0.080947  0  3.981458  0
C  C58  1  0.40774174  0.11074326  0.37609032  1  0  0.112352  0  3.744822  0  0  0.084635  0  3.994911  0  0  0.090474  0  4.014796  0  0.457874  0  0.040771  0.080895  0  3.981233  0
C  C59  1  0.59226184  0.38925892  0.87608825  1  0  0.112385  0  3.745017  0  0  0.084675  0  3.995111  0  0  0.090514  0  4.014997  0  0.456784  0  0.040756  0.080934  0  3.981433  0
C  C60  1  0.46461119  0.01234400  0.83883372  1  0  0.454063  0  3.898508  0  0  0.42  0  4.184078  0  0  0.445963  0  4.191164  0  1.29909  0  0.207572  0.40255  0  4.178437  0
C  C61  1  0.53538830  0.48765603  0.33883303  1  0  0.454012  0  3.898612  0  0  0.419996  0  4.184109  0  0  0.44596  0  4.191191  0  1.299114  0  0.207571  0.402546  0  4.178467  0
C  C62  1  0.53538815  0.98765534  0.16116628  1  0  0.453971  0  3.898601  0  0  0.419897  0  4.184186  0  0  0.445858  0  4.191278  0  1.299045  0  0.20756  0.40245  0  4.178541  0
C  C63  1  0.46460815  0.51234691  0.66116628  1  0  0.454122  0  3.898534  0  0  0.420035  0  4.184115  0  0  0.445996  0  4.191203  0  1.299045  0  0.207565  0.402587  0  4.178473  0
C  C64  1  0.22101721  0.04729102  0.02813216  1  0  0.030306  0  3.636554  0  0  -0.019271  0  3.906604  0  0  -0.010022  0  3.916275  0  0.621257  0  0.057701  -0.025203  0  3.899873  0
C  C65  1  0.77898228  0.45270901  0.52813216  1  0  0.030262  0  3.636503  0  0  -0.019272  0  3.90654  0  0  -0.010019  0  3.916208  0  0.62121  0  0.057672  -0.025204  0  3.899807  0
C  C66  1  0.77898577  0.95270832  0.97187129  1  0  0.030277  0  3.636583  0  0  -0.019325  0  3.9066  0  0  -0.010074  0  3.916275  0  0.621278  0  0.057673  -0.025259  0  3.899872  0
C  C67  1  0.22101372  0.54729177  0.47187060  1  0  0.030299  0  3.636636  0  0  -0.019365  0  3.906677  0  0  -0.010119  0  3.91635  0  0.621232  0  0.05766  -0.025297  0  3.899947  0
C  C68  1  0.21092353  0.11953803  0.09932606  1  0  0.203708  0  3.820125  0  0  0.20184  0  4.067937  0  0  0.207605  0  4.090269  0  0.473008  0  0.113325  0.197909  0  4.05276  0
C  C69  1  0.78907338  0.38046128  0.59932744  1  0  0.203748  0  3.820215  0  0  0.201866  0  4.068012  0  0  0.207632  0  4.090344  0  0.473028  0  0.113345  0.197936  0  4.052832  0
C  C70  1  0.78907930  0.88046059  0.90067394  1  0  0.203741  0  3.820227  0  0  0.20196  0  4.067902  0  0  0.207723  0  4.090236  0  0.473042  0  0.113428  0.198029  0  4.052727  0
C  C71  1  0.21091989  0.61953806  0.40067601  1  0  0.203652  0  3.820187  0  0  0.201951  0  4.067781  0  0  0.207719  0  4.090114  0  0.472979  0  0.113345  0.198017  0  4.052613  0
C  C72  1  0.08054186  0.11090132  0.16242922  1  0  -0.131762  0  3.664186  0  0  -0.150875  0  3.909641  0  0  -0.157406  0  3.929642  0  0.003675  0  -0.074419  -0.146632  0  3.896311  0
C  C73  1  0.91945686  0.38910086  0.66243060  1  0  -0.131865  0  3.664279  0  0  -0.150996  0  3.909724  0  0  -0.157546  0  3.92972  0  0.00363  0  -0.07447  -0.146752  0  3.896393  0
C  C74  1  0.91946293  0.88910089  0.83757009  1  0  -0.13183  0  3.664325  0  0  -0.150976  0  3.909757  0  0  -0.157516  0  3.929761  0  0.003671  0  -0.074469  -0.146733  0  3.896426  0
C  C75  1  0.08053777  0.61089920  0.33757147  1  0  -0.131845  0  3.664287  0  0  -0.151076  0  3.909706  0  0  -0.157616  0  3.929701  0  0.003668  0  -0.074499  -0.146832  0  3.896377  0
C  C76  1  0.07528644  0.18176313  0.22938268  1  0  -0.003744  0  3.72436  0  0  -0.019599  0  3.969804  0  0  -0.016311  0  3.988457  0  -0.069393  0  -0.067216  -0.021536  0  3.957031  0
C  C77  1  0.92471350  0.31823905  0.72938337  1  0  -0.003731  0  3.7244  0  0  -0.019585  0  3.969871  0  0  -0.016299  0  3.988533  0  -0.069371  0  -0.06721  -0.021523  0  3.957099  0
C  C78  1  0.92471759  0.81824124  0.77061663  1  0  -0.00365  0  3.724314  0  0  -0.019508  0  3.969799  0  0  -0.016222  0  3.988457  0  -0.069315  0  -0.06718  -0.021445  0  3.957025  0
C  C79  1  0.07528205  0.68175957  0.27061801  1  0  -0.003655  0  3.724359  0  0  -0.019509  0  3.96984  0  0  -0.016221  0  3.988497  0  -0.069424  0  -0.067187  -0.021446  0  3.957066  0
C  C80  1  0.19820488  0.25950858  0.23189200  1  0  -0.114788  0  3.707813  0  0  -0.13168  0  3.962363  0  0  -0.137335  0  3.981827  0  0.003122  0  -0.084353  -0.128096  0  3.949343  0
C  C81  1  0.80179810  0.24049073  0.73189062  1  0  -0.114677  0  3.707825  0  0  -0.131654  0  3.962363  0  0  -0.13731  0  3.981829  0  0.003147  0  -0.084367  -0.128071  0  3.949345  0
C  C82  1  0.80179976  0.74049291  0.76810800  1  0  -0.114812  0  3.707898  0  0  -0.131759  0  3.96248  0  0  -0.137416  0  3.981945  0  0.003108  0  -0.084383  -0.128175  0  3.949461  0
C  C83  1  0.19819730  0.75950718  0.26810938  1  0  -0.114718  0  3.707844  0  0  -0.131659  0  3.962394  0  0  -0.137315  0  3.98186  0  0.003203  0  -0.084361  -0.128075  0  3.949374  0
C  C84  1  0.32400540  0.26273810  0.16706947  1  0  0.14185  0  3.719446  0  0  0.109629  0  3.976041  0  0  0.117465  0  3.993484  0  0.485985  0  0.051364  0.104479  0  3.964136  0
C  C85  1  0.67599666  0.23726265  0.66707016  1  0  0.141856  0  3.719442  0  0  0.109649  0  3.97605  0  0  0.117483  0  3.993497  0  0.485747  0  0.051371  0.104498  0  3.964146  0
C  C86  1  0.67600122  0.73726124  0.83292984  1  0  0.14187  0  3.719606  0  0  0.109628  0  3.976238  0  0  0.117463  0  3.993681  0  0.485751  0  0.051338  0.104476  0  3.964334  0
C  C87  1  0.32399812  0.76273813  0.33293053  1  0  0.141818  0  3.719652  0  0  0.109602  0  3.976257  0  0  0.117437  0  3.993703  0  0.486019  0  0.051349  0.10445  0  3.964353  0
N  N88  1  0.34088044  0.99096101  0.90028173  1  0  -0.401662  0  3.0126  0  0  -0.378834  0  3.303264  0  0  -0.405206  0  3.326551  0  -0.689943  0  -0.250535  -0.360469  0  3.286769  0
N  N89  1  0.65911920  0.50903980  0.40028173  1  0  -0.401712  0  3.012575  0  0  -0.378906  0  3.303256  0  0  -0.405276  0  3.326539  0  -0.689935  0  -0.250561  -0.360541  0  3.286761  0
N  N90  1  0.65912360  0.00903761  0.09971965  1  0  -0.401572  0  3.012438  0  0  -0.378754  0  3.303082  0  0  -0.405126  0  3.326373  0  -0.689957  0  -0.250525  -0.360389  0  3.286586  0
N  N91  1  0.34087846  0.49096314  0.59972034  1  0  -0.401704  0  3.012656  0  0  -0.378898  0  3.30333  0  0  -0.405271  0  3.32662  0  -0.689963  0  -0.250572  -0.360535  0  3.286837  0
N  N92  1  0.33732845  0.05704925  0.96723726  1  0  -0.102751  0  3.432364  0  0  -0.025068  0  3.706698  0  0  -0.037525  0  3.731612  0  -0.773589  0  -0.198858  -0.016929  0  3.689507  0
N  N93  1  0.66266967  0.44295006  0.46723795  1  0  -0.10265  0  3.432249  0  0  -0.025001  0  3.706599  0  0  -0.03746  0  3.731513  0  -0.773598  0  -0.198812  -0.016861  0  3.689408  0
N  N94  1  0.66267438  0.94294937  0.03276481  1  0  -0.1028  0  3.432354  0  0  -0.02509  0  3.706651  0  0  -0.03755  0  3.731568  0  -0.773625  0  -0.198892  -0.016949  0  3.689459  0
N  N95  1  0.33732405  0.55705144  0.53276481  1  0  -0.102676  0  3.432334  0  0  -0.024943  0  3.706604  0  0  -0.037398  0  3.731516  0  -0.773613  0  -0.198814  -0.016802  0  3.689411  0
N  N96  1  0.32993122  0.19489529  0.10286010  1  0  -0.343072  0  3.252842  0  0  -0.272216  0  3.512075  0  0  -0.2928  0  3.533438  0  -1.19358  0  -0.30901  -0.258206  0  3.497248  0
N  N97  1  0.67007085  0.30510545  0.60286079  1  0  -0.343081  0  3.252963  0  0  -0.272227  0  3.512187  0  0  -0.29281  0  3.533547  0  -1.193376  0  -0.309008  -0.258218  0  3.497359  0
N  N98  1  0.67007434  0.80510476  0.89713921  1  0  -0.34305  0  3.252916  0  0  -0.272193  0  3.512099  0  0  -0.292773  0  3.533458  0  -1.193279  0  -0.30899  -0.258184  0  3.497275  0
N  N99  1  0.32992545  0.69489676  0.39714059  1  0  -0.342949  0  3.252875  0  0  -0.272137  0  3.512027  0  0  -0.29272  0  3.533387  0  -1.193537  0  -0.308928  -0.258126  0  3.497202  0
N  N100  1  0.79295216  0.24760213  0.01540671  1  0  -0.515981  0  2.626139  0  0  -0.487685  0  2.908  0  0  -0.513158  0  2.917161  0  -0.250377  0  -0.296796  -0.470434  0  2.901603  0
N  N101  1  0.20705037  0.25239503  0.51541085  1  0  -0.516096  0  2.625947  0  0  -0.487802  0  2.907823  0  0  -0.513277  0  2.916979  0  -0.250576  0  -0.296875  -0.470552  0  2.901429  0
N  N102  1  0.20705904  0.75239003  0.98457879  1  0  -0.51585  0  2.626282  0  0  -0.487517  0  2.908123  0  0  -0.51299  0  2.917287  0  -0.250873  0  -0.296755  -0.47027  0  2.90173  0
N  N103  1  0.79294593  0.74760719  0.48458500  1  0  -0.51606  0  2.625953  0  0  -0.487761  0  2.907812  0  0  -0.513234  0  2.916969  0  -0.250803  0  -0.296855  -0.470513  0  2.901424  0
N  N104  1  0.89757426  0.21595073  0.96987640  1  0  0.375793  0  4.210017  0  0  0.417036  0  4.490119  0  0  0.433189  0  4.521089  0  -0.305825  0  0.080901  0.406205  0  4.469229  0
N  N105  1  0.10242145  0.28404284  0.46987778  1  0  0.375723  0  4.209871  0  0  0.416969  0  4.489984  0  0  0.433122  0  4.520947  0  -0.305625  0  0.080871  0.406142  0  4.469089  0
N  N106  1  0.10242634  0.78403137  0.03011255  1  0  0.37548  0  4.210494  0  0  0.416702  0  4.490615  0  0  0.432853  0  4.521582  0  -0.30477  0  0.080817  0.405873  0  4.469719  0
N  N107  1  0.89757378  0.71596010  0.53011877  1  0  0.375697  0  4.210115  0  0  0.416935  0  4.490217  0  0  0.433088  0  4.52118  0  -0.305476  0  0.080854  0.406106  0  4.469329  0
N  N108  1  0.00483716  0.18880340  0.92864107  1  0  -0.381232  0  2.377932  0  0  -0.384087  0  2.596028  0  0  -0.392008  0  2.606713  0  -0.039561  0  -0.19203  -0.378715  0  2.589051  0
N  N109  1  0.99515735  0.31118441  0.42864452  1  0  -0.381048  0  2.377949  0  0  -0.383909  0  2.596039  0  0  -0.391827  0  2.606725  0  -0.03957  0  -0.191913  -0.378551  0  2.589077  0
N  N110  1  0.99515589  0.81116576  0.07134719  1  0  -0.381044  0  2.378117  0  0  -0.383904  0  2.596218  0  0  -0.391827  0  2.606912  0  -0.040109  0  -0.191994  -0.378538  0  2.589249  0
N  N111  1  0.00483940  0.68881996  0.57135202  1  0  -0.381074  0  2.37814  0  0  -0.383914  0  2.596215  0  0  -0.391837  0  2.606903  0  -0.039472  0  -0.191925  -0.378547  0  2.589246  0
N  N112  1  0.48257908  0.81038766  0.61760737  1  0  -0.295695  0  3.246704  0  0  -0.22357  0  3.51447  0  0  -0.242796  0  3.534887  0  -1.205593  0  -0.3116  -0.210425  0  3.500154  0
N  N113  1  0.51742057  0.68961315  0.11760807  1  0  -0.295764  0  3.246725  0  0  -0.223615  0  3.514484  0  0  -0.242843  0  3.534902  0  -1.205598  0  -0.311627  -0.210471  0  3.50017  0
N  N114  1  0.51742678  0.18961383  0.38239263  1  0  -0.295725  0  3.246651  0  0  -0.223635  0  3.514461  0  0  -0.24286  0  3.534877  0  -1.205659  0  -0.311662  -0.210491  0  3.500147  0
N  N115  1  0.48257907  0.31038763  0.88239193  1  0  -0.295705  0  3.246691  0  0  -0.223572  0  3.514444  0  0  -0.2428  0  3.53486  0  -1.205611  0  -0.311607  -0.210428  0  3.500129  0
O  O116  1  0.57346421  0.08418149  0.83912995  1  0  -0.56678  0  2.001771  0  0  -0.511371  0  2.244514  0  0  -0.541318  0  2.242635  0  -1.12631  0  -0.30227  -0.490296  0  2.244771  0
O  O117  1  0.42653513  0.41581782  0.33912995  1  0  -0.566785  0  2.001822  0  0  -0.511368  0  2.244498  0  0  -0.541327  0  2.24265  0  -1.126355  0  -0.302287  -0.490293  0  2.244756  0
O  O118  1  0.42653285  0.91581857  0.16087005  1  0  -0.566767  0  2.001824  0  0  -0.511333  0  2.24452  0  0  -0.541284  0  2.242653  0  -1.126278  0  -0.302277  -0.49026  0  2.244777  0
O  O119  1  0.57346268  0.58418583  0.66087212  1  0  -0.566857  0  2.001728  0  0  -0.511419  0  2.244446  0  0  -0.541379  0  2.242592  0  -1.126311  0  -0.302281  -0.490345  0  2.244704  0
