# generated using pymatgen
data_CdH14C14N2O5
_symmetry_space_group_name_H-M   'P 1'
_cell_length_a   6.19271273
_cell_length_b   7.93013142
_cell_length_c   17.23603350
_cell_angle_alpha   88.76081608
_cell_angle_beta   107.40009016
_cell_angle_gamma   111.56995946
_symmetry_Int_Tables_number   1
_chemical_formula_structural   CdH14C14N2O5
_chemical_formula_sum   'Cd2 H28 C28 N4 O10'
_cell_volume   747.41803559
_cell_formula_units_Z   2
loop_
 _symmetry_equiv_pos_site_id
 _symmetry_equiv_pos_as_xyz
  1  'x, y, z'
loop_
 _atom_site_type_symbol
 _atom_site_label
 _atom_site_symmetry_multiplicity
 _atom_site_fract_x
 _atom_site_fract_y
 _atom_site_fract_z
 _atom_site_occupancy
 _atom_site_hle17_bader_spin_density
 _atom_site_hle17_ddec_charge
 _atom_site_hle17_ddec_spin_density
 _atom_site_hle17_ddec_sum_bond_order
 _atom_site_hle17_magmom
 _atom_site_hse06_10hf_bader_spin_density
 _atom_site_hse06_10hf_ddec_charge
 _atom_site_hse06_10hf_ddec_spin_density
 _atom_site_hse06_10hf_ddec_sum_bond_order
 _atom_site_hse06_10hf_magmom
 _atom_site_hse06_bader_spin_density
 _atom_site_hse06_ddec_charge
 _atom_site_hse06_ddec_spin_density
 _atom_site_hse06_ddec_sum_bond_order
 _atom_site_hse06_magmom
 _atom_site_pbe_bader_spin_density
 _atom_site_pbe_cm5_charge
 _atom_site_pbe_ddec_charge
 _atom_site_pbe_ddec_spin_density
 _atom_site_pbe_ddec_sum_bond_order
 _atom_site_pbe_magmom
Cd  Cd0  1  0.00348680  0.76237036  0.75420898  1  0  1.142932  0  1.609006  0  0  0.967209  0  2.04284  0  0  1.023307  0  1.990935  0  0  0.754029  0.927501  0  2.078061  0
Cd  Cd1  1  0.99650336  0.23762504  0.24579397  1  0  1.142934  0  1.609026  0  0  0.967212  0  2.042871  0  0  1.02331  0  1.990965  0  0  0.754059  0.927507  0  2.07809  0
H  H2  1  0.65834021  0.23651024  0.55199131  1  0  0.090723  0  0.977644  0  0  0.09865  0  1.046577  0  0  0.101784  0  1.043994  0  0  0.099696  0.096369  0  1.048476  0
H  H3  1  0.34164202  0.76348019  0.44800220  1  0  0.090646  0  0.977529  0  0  0.098682  0  1.046367  0  0  0.101816  0  1.043785  0  0  0.099654  0.096401  0  1.048264  0
H  H4  1  0.35057062  0.05426716  0.42255804  1  0  0.100328  0  0.947029  0  0  0.114001  0  1.00388  0  0  0.117188  0  1.002578  0  0  0.102735  0.111726  0  1.004984  0
H  H5  1  0.64941168  0.94571906  0.57743775  1  0  0.100532  0  0.947084  0  0  0.114206  0  1.003893  0  0  0.117392  0  1.002592  0  0  0.102821  0.111934  0  1.004992  0
H  H6  1  0.83461269  0.26665925  0.45663154  1  0  0.103803  0  0.957408  0  0  0.116701  0  1.016046  0  0  0.119261  0  1.015679  0  0  0.105707  0.114858  0  1.016452  0
H  H7  1  0.16539070  0.73332520  0.54337349  1  0  0.103833  0  0.957169  0  0  0.116744  0  1.015808  0  0  0.119311  0  1.015433  0  0  0.105676  0.114899  0  1.016215  0
H  H8  1  0.13775931  0.44113052  0.58684972  1  0  0.105429  0  0.957344  0  0  0.113048  0  1.023821  0  0  0.116936  0  1.020281  0  0  0.103246  0.110193  0  1.026455  0
H  H9  1  0.86224663  0.55889673  0.41314562  1  0  0.105355  0  0.957686  0  0  0.113043  0  1.024059  0  0  0.11692  0  1.02053  0  0  0.103229  0.110188  0  1.026697  0
H  H10  1  0.91735790  0.93777721  0.34114552  1  0  0.32305  0  0.864411  0  0  0.317599  0  0.909414  0  0  0.323149  0  0.906035  0  0  0.316771  0.31369  0  0.911772  0
H  H11  1  0.08262141  0.06220207  0.65885226  1  0  0.323155  0  0.864594  0  0  0.317731  0  0.909526  0  0  0.323282  0  0.90614  0  0  0.316838  0.313822  0  0.91189  0
H  H12  1  0.72933501  0.03584636  0.34991355  1  0  0.319557  0  0.865407  0  0  0.314656  0  0.910243  0  0  0.320253  0  0.906702  0  0  0.316094  0.31068  0  0.912804  0
H  H13  1  0.27064986  0.96414911  0.65008781  1  0  0.31952  0  0.865334  0  0  0.314545  0  0.910278  0  0  0.320139  0  0.906744  0  0  0.31605  0.310567  0  0.912838  0
H  H14  1  0.40366627  0.31553267  0.96608393  1  0  0.084006  0  0.996819  0  0  0.092678  0  1.065363  0  0  0.095466  0  1.063345  0  0  0.097996  0.090464  0  1.067182  0
H  H15  1  0.59634864  0.68447237  0.03391939  1  0  0.084035  0  0.996873  0  0  0.092705  0  1.065394  0  0  0.09549  0  1.063383  0  0  0.097988  0.090491  0  1.067212  0
H  H16  1  0.38052000  0.46318026  0.08847557  1  0  0.104977  0  0.948754  0  0  0.117216  0  1.006659  0  0  0.120963  0  1.004297  0  0  0.103391  0.114571  0  1.008483  0
H  H17  1  0.61948760  0.53681654  0.91152822  1  0  0.105032  0  0.948728  0  0  0.117308  0  1.006595  0  0  0.121064  0  1.004231  0  0  0.103395  0.11466  0  1.008424  0
H  H18  1  0.60259701  0.16314116  0.01186032  1  0  0.107142  0  0.964697  0  0  0.119805  0  1.023736  0  0  0.122378  0  1.023348  0  0  0.105845  0.117752  0  1.024546  0
H  H19  1  0.39741456  0.83685549  0.98814669  1  0  0.107191  0  0.964547  0  0  0.119788  0  1.023673  0  0  0.122427  0  1.023193  0  0  0.105822  0.117736  0  1.024483  0
H  H20  1  0.62480499  0.02444299  0.89048617  1  0  0.104466  0  0.964705  0  0  0.116026  0  1.025372  0  0  0.119089  0  1.0226  0  0  0.104752  0.113821  0  1.027398  0
H  H21  1  0.37520801  0.97557998  0.10951316  1  0  0.104346  0  0.964728  0  0  0.115925  0  1.025385  0  0  0.118989  0  1.022608  0  0  0.104663  0.113721  0  1.027409  0
H  H22  1  0.10963437  0.53331885  0.14637375  1  0  0.320687  0  0.8683  0  0  0.314685  0  0.913767  0  0  0.319967  0  0.911125  0  0  0.314136  0.310941  0  0.915655  0
H  H23  1  0.89039412  0.46667668  0.85362994  1  0  0.320772  0  0.868205  0  0  0.314742  0  0.9137  0  0  0.320024  0  0.911057  0  0  0.31413  0.311  0  0.915589  0
H  H24  1  0.81094206  0.40962015  0.12139118  1  0  0.317504  0  0.88334  0  0  0.309484  0  0.933568  0  0  0.315101  0  0.930066  0  0  0.305855  0.305484  0  0.936086  0
H  H25  1  0.18908021  0.59039731  0.87860999  1  0  0.317783  0  0.883379  0  0  0.309779  0  0.933536  0  0  0.315397  0  0.930032  0  0  0.306001  0.305778  0  0.936058  0
H  H26  1  0.54277143  0.82076835  0.79627593  1  0  0.431202  0  0.871808  0  0  0.398404  0  0.939084  0  0  0.410195  0  0.921867  0  0  0.284452  0.39003  0  0.951265  0
H  H27  1  0.45723053  0.17922860  0.20372449  1  0  0.431316  0  0.87169  0  0  0.398527  0  0.938947  0  0  0.410316  0  0.92173  0  0  0.284496  0.390171  0  0.951115  0
H  H28  1  0.38958860  0.64289236  0.73915730  1  0  0.441823  0  0.846486  0  0  0.413455  0  0.904747  0  0  0.424751  0  0.888153  0  0  0.293471  0.405392  0  0.916586  0
H  H29  1  0.61039991  0.35710878  0.26084036  1  0  0.441816  0  0.846501  0  0  0.413444  0  0.904769  0  0  0.424741  0  0.888172  0  0  0.293477  0.405378  0  0.91661  0
C  C30  1  0.61538406  0.47754223  0.64783407  1  0  0.63084  0  3.954416  0  0  0.584323  0  4.242049  0  0  0.618577  0  4.236842  0  0  0.185071  0.56114  0  4.244695  0
C  C31  1  0.38460079  0.52245479  0.35216382  1  0  0.630726  0  3.9547  0  0  0.58428  0  4.242266  0  0  0.61853  0  4.237068  0  0  0.185058  0.561099  0  4.244911  0
C  C32  1  0.41948446  0.35106194  0.57740985  1  0  -0.08906  0  3.782414  0  0  -0.06929  0  4.021019  0  0  -0.079297  0  4.044805  0  0  -0.032771  -0.063041  0  4.005221  0
C  C33  1  0.58052078  0.64893548  0.42258211  1  0  -0.089019  0  3.782265  0  0  -0.069376  0  4.021047  0  0  -0.079378  0  4.044832  0  0  -0.032846  -0.063133  0  4.005261  0
C  C34  1  0.47525055  0.23874925  0.53126729  1  0  -0.061623  0  3.767407  0  0  -0.087779  0  4.023382  0  0  -0.084983  0  4.042796  0  0  -0.088612  -0.089286  0  4.010192  0
C  C35  1  0.52477088  0.76126469  0.46872328  1  0  -0.061493  0  3.767183  0  0  -0.087695  0  4.023134  0  0  -0.084907  0  4.042557  0  0  -0.088483  -0.0892  0  4.009947  0
C  C36  1  0.30446821  0.13806968  0.45931930  1  0  -0.177339  0  3.737939  0  0  -0.195661  0  3.995138  0  0  -0.202721  0  4.016656  0  0  -0.101129  -0.191105  0  3.980691  0
C  C37  1  0.69550980  0.86192428  0.54068440  1  0  -0.177814  0  3.73817  0  0  -0.196135  0  3.995433  0  0  -0.203193  0  4.016942  0  0  -0.101373  -0.191581  0  3.980996  0
C  C38  1  0.07311698  0.14837623  0.43204413  1  0  0.294549  0  3.811613  0  0  0.289633  0  4.060676  0  0  0.298571  0  4.083059  0  0  0.08973  0.283644  0  4.045418  0
C  C39  1  0.92684748  0.85160450  0.56795073  1  0  0.294729  0  3.811607  0  0  0.289784  0  4.060673  0  0  0.298725  0  4.083054  0  0  0.08973  0.283792  0  4.045415  0
C  C40  1  0.01375864  0.25709042  0.47854446  1  0  -0.175815  0  3.726015  0  0  -0.192756  0  3.978827  0  0  -0.199667  0  4.000498  0  0  -0.098711  -0.188214  0  3.964198  0
C  C41  1  0.98622390  0.74291516  0.52144637  1  0  -0.176107  0  3.72607  0  0  -0.193041  0  3.978906  0  0  -0.199954  0  4.000566  0  0  -0.098742  -0.188493  0  3.964273  0
C  C42  1  0.18463511  0.35632857  0.55091045  1  0  -0.053855  0  3.731121  0  0  -0.079859  0  3.985871  0  0  -0.076762  0  4.003854  0  0  -0.085475  -0.081605  0  3.97373  0
C  C43  1  0.81535433  0.64365799  0.44907952  1  0  -0.053512  0  3.731382  0  0  -0.079532  0  3.98612  0  0  -0.076426  0  4.004106  0  0  -0.085258  -0.08128  0  3.973985  0
C  C44  1  0.03517524  0.05545150  0.85225301  1  0  0.633226  0  3.946818  0  0  0.585968  0  4.235846  0  0  0.620455  0  4.23003  0  0  0.187118  0.562597  0  4.23887  0
C  C45  1  0.96483769  0.94455626  0.14775019  1  0  0.633319  0  3.946628  0  0  0.586082  0  4.235634  0  0  0.620569  0  4.229817  0  0  0.187118  0.56271  0  4.238661  0
C  C46  1  0.01751723  0.15840283  0.91998088  1  0  -0.100217  0  3.792811  0  0  -0.078881  0  4.030319  0  0  -0.08965  0  4.054427  0  0  -0.034633  -0.072051  0  4.014203  0
C  C47  1  0.98249878  0.84160766  0.08002260  1  0  -0.100306  0  3.792788  0  0  -0.078987  0  4.030312  0  0  -0.089754  0  4.054417  0  0  -0.034693  -0.072159  0  4.014196  0
C  C48  1  0.22858138  0.28465382  0.97625121  1  0  -0.062811  0  3.772595  0  0  -0.088177  0  4.026581  0  0  -0.08528  0  4.046107  0  0  -0.091352  -0.089661  0  4.01344  0
C  C49  1  0.77142685  0.71535384  0.02375335  1  0  -0.062808  0  3.772745  0  0  -0.088143  0  4.026676  0  0  -0.08525  0  4.046211  0  0  -0.091302  -0.089627  0  4.013538  0
C  C50  1  0.21615101  0.36731551  0.04411216  1  0  -0.181573  0  3.730645  0  0  -0.199491  0  3.986677  0  0  -0.206569  0  4.007385  0  0  -0.102425  -0.194955  0  3.972735  0
C  C51  1  0.78386651  0.63267825  0.95589819  1  0  -0.181675  0  3.730706  0  0  -0.199627  0  3.986736  0  0  -0.206722  0  4.007465  0  0  -0.102434  -0.19509  0  3.972792  0
C  C52  1  0.98996962  0.32559686  0.05714194  1  0  0.297498  0  3.814579  0  0  0.292629  0  4.062658  0  0  0.301939  0  4.085117  0  0  0.090235  0.286431  0  4.047221  0
C  C53  1  0.01004401  0.67441226  0.94286133  1  0  0.297677  0  3.814668  0  0  0.292813  0  4.062737  0  0  0.30212  0  4.085206  0  0  0.090263  0.286614  0  4.047304  0
C  C54  1  0.77862321  0.19995293  0.00155242  1  0  -0.175419  0  3.718016  0  0  -0.193923  0  3.9736  0  0  -0.200996  0  3.994285  0  0  -0.09848  -0.189335  0  3.960077  0
C  C55  1  0.22138197  0.80003303  0.99844986  1  0  -0.175477  0  3.717785  0  0  -0.193946  0  3.9734  0  0  -0.20106  0  3.994049  0  0  -0.098459  -0.189356  0  3.959877  0
C  C56  1  0.79240534  0.11928338  0.93336434  1  0  -0.04222  0  3.739361  0  0  -0.069429  0  3.99205  0  0  -0.065209  0  4.009724  0  0  -0.084163  -0.071978  0  3.980135  0
C  C57  1  0.20760044  0.88072029  0.06663823  1  0  -0.042064  0  3.739096  0  0  -0.069275  0  3.991767  0  0  -0.06506  0  4.00946  0  0  -0.084067  -0.071823  0  3.979848  0
N  N58  1  0.90650589  0.05804688  0.35537029  1  0  -0.664287  0  3.137456  0  0  -0.614807  0  3.371752  0  0  -0.635094  0  3.369723  0  0  -0.589502  -0.600548  0  3.372758  0
N  N59  1  0.09345731  0.94194897  0.64462236  1  0  -0.664377  0  3.137592  0  0  -0.614838  0  3.371935  0  0  -0.635128  0  3.36991  0  0  -0.589535  -0.600575  0  3.372933  0
N  N60  1  0.97825662  0.40592378  0.12725919  1  0  -0.661376  0  3.143869  0  0  -0.609548  0  3.374552  0  0  -0.630932  0  3.374606  0  0  -0.594455  -0.594476  0  3.374014  0
N  N61  1  0.02177105  0.59407571  0.87274682  1  0  -0.661875  0  3.144046  0  0  -0.610023  0  3.374757  0  0  -0.63141  0  3.374804  0  0  -0.594607  -0.594952  0  3.374227  0
O  O62  1  0.83238402  0.48056643  0.66600947  1  0  -0.644015  0  1.906975  0  0  -0.584161  0  2.130647  0  0  -0.612258  0  2.122188  0  0  -0.344769  -0.564499  0  2.135713  0
O  O63  1  0.16761701  0.51944180  0.33398404  1  0  -0.643959  0  1.907312  0  0  -0.58413  0  2.130976  0  0  -0.612222  0  2.122518  0  0  -0.344748  -0.56447  0  2.136041  0
O  O64  1  0.56358504  0.58811595  0.68528034  1  0  -0.681264  0  1.99665  0  0  -0.615189  0  2.228244  0  0  -0.643751  0  2.217286  0  0  -0.339373  -0.595117  0  2.235059  0
O  O65  1  0.43641368  0.41188671  0.31471525  1  0  -0.681214  0  1.99664  0  0  -0.61515  0  2.228197  0  0  -0.643715  0  2.21724  0  0  -0.339346  -0.595073  0  2.235007  0
O  O66  1  0.24146257  0.06985410  0.84780432  1  0  -0.634828  0  1.901331  0  0  -0.582132  0  2.12514  0  0  -0.608404  0  2.117024  0  0  -0.337624  -0.563569  0  2.12998  0
O  O67  1  0.75854263  0.93015502  0.15219828  1  0  -0.634868  0  1.901259  0  0  -0.582181  0  2.125067  0  0  -0.608453  0  2.116944  0  0  -0.3376  -0.563615  0  2.129905  0
O  O68  1  0.83375796  0.94409531  0.80107430  1  0  -0.689072  0  2.031179  0  0  -0.616031  0  2.266054  0  0  -0.646242  0  2.254416  0  0  -0.343358  -0.594784  0  2.27321  0
O  O69  1  0.16625070  0.05590276  0.19893133  1  0  -0.689115  0  2.031151  0  0  -0.616086  0  2.26603  0  0  -0.646291  0  2.254382  0  0  -0.343375  -0.594843  0  2.273195  0
O  O70  1  0.37723912  0.72014219  0.78076453  1  0  -0.858957  0  1.830964  0  0  -0.799071  0  2.020179  0  0  -0.821533  0  1.984613  0  0  -0.593525  -0.783072  0  2.044999  0
O  O71  1  0.62274672  0.27985347  0.21923342  1  0  -0.859045  0  1.830932  0  0  -0.799162  0  2.020142  0  0  -0.821623  0  1.984573  0  0  -0.593573  -0.783184  0  2.044941  0
