# generated using pymatgen
data_CaH9C6(N3O2)3
_symmetry_space_group_name_H-M   'P 1'
_cell_length_a   7.56367049
_cell_length_b   9.62718427
_cell_length_c   9.62714185
_cell_angle_alpha   95.41638361
_cell_angle_beta   100.52397140
_cell_angle_gamma   100.52425595
_symmetry_Int_Tables_number   1
_chemical_formula_structural   CaH9C6(N3O2)3
_chemical_formula_sum   'Ca2 H18 C12 N18 O12'
_cell_volume   671.68745955
_cell_formula_units_Z   2
loop_
 _symmetry_equiv_pos_site_id
 _symmetry_equiv_pos_as_xyz
  1  'x, y, z'
loop_
 _atom_site_type_symbol
 _atom_site_label
 _atom_site_symmetry_multiplicity
 _atom_site_fract_x
 _atom_site_fract_y
 _atom_site_fract_z
 _atom_site_occupancy
 _atom_site_hle17_bader_spin_density
 _atom_site_hle17_ddec_charge
 _atom_site_hle17_ddec_spin_density
 _atom_site_hle17_ddec_sum_bond_order
 _atom_site_hle17_magmom
 _atom_site_hse06_10hf_bader_spin_density
 _atom_site_hse06_10hf_ddec_charge
 _atom_site_hse06_10hf_ddec_spin_density
 _atom_site_hse06_10hf_ddec_sum_bond_order
 _atom_site_hse06_10hf_magmom
 _atom_site_hse06_bader_spin_density
 _atom_site_hse06_ddec_charge
 _atom_site_hse06_ddec_spin_density
 _atom_site_hse06_ddec_sum_bond_order
 _atom_site_hse06_magmom
 _atom_site_pbe_bader_spin_density
 _atom_site_pbe_cm5_charge
 _atom_site_pbe_ddec_charge
 _atom_site_pbe_ddec_spin_density
 _atom_site_pbe_ddec_sum_bond_order
 _atom_site_pbe_magmom
Ca  Ca0  1  0.01545613  0.99786819  0.06407112  1  0  1.547003  0  1.068891  0  0  1.419041  0  1.404423  0  0  1.463091  0  1.360928  0  0  0.873732  1.38581  0  1.435339  0
Ca  Ca1  1  0.51545659  0.06407211  0.99786955  1  0  1.546948  0  1.068996  0  0  1.418996  0  1.404494  0  0  1.463033  0  1.361013  0  0  0.873705  1.38576  0  1.435406  0
H  H2  1  0.53942303  0.84763248  0.66790648  1  0  0.15501  0  0.896956  0  0  0.162738  0  0.960077  0  0  0.166033  0  0.957434  0  0  0.139789  0.160103  0  0.962423  0
H  H3  1  0.03943474  0.66790841  0.84762702  1  0  0.154989  0  0.896961  0  0  0.162775  0  0.960011  0  0  0.166071  0  0.957361  0  0  0.139819  0.160136  0  0.962363  0
H  H4  1  0.63408863  0.99667313  0.58870096  1  0  0.143247  0  0.904133  0  0  0.151719  0  0.966151  0  0  0.154625  0  0.963859  0  0  0.13714  0.149545  0  0.967952  0
H  H5  1  0.13409270  0.58870866  0.99667100  1  0  0.143214  0  0.904192  0  0  0.151653  0  0.966269  0  0  0.154561  0  0.963971  0  0  0.137117  0.149477  0  0.968067  0
H  H6  1  0.91123070  0.48186589  0.35660485  1  0  0.340986  0  0.823997  0  0  0.328303  0  0.870924  0  0  0.334388  0  0.867034  0  0  0.35115  0.323923  0  0.873745  0
H  H7  1  0.41123861  0.35660629  0.48187271  1  0  0.341034  0  0.824044  0  0  0.328418  0  0.870884  0  0  0.334491  0  0.866992  0  0  0.351159  0.324035  0  0.873708  0
H  H8  1  0.24220717  0.89530764  0.29670208  1  0  0.405685  0  0.902325  0  0  0.3649  0  0.982952  0  0  0.37611  0  0.966501  0  0  0.299693  0.357118  0  0.994266  0
H  H9  1  0.74221499  0.29670249  0.89531407  1  0  0.40568  0  0.902346  0  0  0.364895  0  0.982974  0  0  0.376106  0  0.966523  0  0  0.299686  0.357111  0  0.994292  0
H  H10  1  0.06133092  0.90206551  0.34546561  1  0  0.40269  0  0.88837  0  0  0.372246  0  0.963267  0  0  0.380759  0  0.950591  0  0  0.304856  0.366091  0  0.972478  0
H  H11  1  0.56133004  0.34545562  0.90206004  1  0  0.402766  0  0.888264  0  0  0.372288  0  0.963227  0  0  0.380806  0  0.950544  0  0  0.304861  0.366133  0  0.972438  0
H  H12  1  0.82107852  0.74378385  0.16184714  1  0  0.39875  0  0.903967  0  0  0.361711  0  0.978793  0  0  0.371861  0  0.963686  0  0  0.294483  0.354269  0  0.989856  0
H  H13  1  0.32107723  0.16184294  0.74378342  1  0  0.39873  0  0.904004  0  0  0.3617  0  0.978814  0  0  0.37185  0  0.963707  0  0  0.294493  0.354256  0  0.989881  0
H  H14  1  0.68965385  0.76040797  0.02046136  1  0  0.436274  0  0.854553  0  0  0.40651  0  0.915722  0  0  0.417142  0  0.900097  0  0  0.304373  0.398837  0  0.927092  0
H  H15  1  0.18965370  0.02045738  0.76041117  1  0  0.43632  0  0.854465  0  0  0.40656  0  0.915627  0  0  0.417189  0  0.900006  0  0  0.304416  0.398891  0  0.92699  0
H  H16  1  0.00916645  0.11897494  0.43928600  1  0  0.132819  0  0.924154  0  0  0.143508  0  0.98891  0  0  0.146683  0  0.985396  0  0  0.13279  0.14106  0  0.991935  0
H  H17  1  0.50915619  0.43928338  0.11897264  1  0  0.132841  0  0.924169  0  0  0.143478  0  0.988945  0  0  0.146652  0  0.98543  0  0  0.132818  0.141033  0  0.991957  0
H  H18  1  0.02941840  0.27162714  0.34936113  1  0  0.121725  0  0.974666  0  0  0.128692  0  1.045932  0  0  0.132375  0  1.042938  0  0  0.119813  0.126309  0  1.047849  0
H  H19  1  0.52941369  0.34936017  0.27162443  1  0  0.121713  0  0.974651  0  0  0.12867  0  1.045911  0  0  0.132348  0  1.042926  0  0  0.11982  0.126284  0  1.047831  0
C  C20  1  0.80925930  0.96073290  0.78095990  1  0  0.714805  0  3.880739  0  0  0.662686  0  4.188928  0  0  0.696061  0  4.181486  0  0  0.226613  0.639789  0  4.193281  0
C  C21  1  0.30925513  0.78096735  0.96073457  1  0  0.714822  0  3.880255  0  0  0.66262  0  4.188593  0  0  0.695985  0  4.181154  0  0  0.226553  0.639732  0  4.192939  0
C  C22  1  0.66585200  0.90674791  0.64321131  1  0  -0.205719  0  3.585092  0  0  -0.276117  0  3.832006  0  0  -0.277904  0  3.835319  0  0  -0.032787  -0.274751  0  3.830066  0
C  C23  1  0.16585662  0.64321334  0.90674627  1  0  -0.205581  0  3.585096  0  0  -0.276024  0  3.832003  0  0  -0.277828  0  3.83536  0  0  -0.032757  -0.274655  0  3.830068  0
C  C24  1  0.81720909  0.63678752  0.46523302  1  0  0.483444  0  3.796217  0  0  0.432794  0  4.104641  0  0  0.449659  0  4.115109  0  0  0.336406  0.421216  0  4.098026  0
C  C25  1  0.31721498  0.46523505  0.63678907  1  0  0.483593  0  3.796155  0  0  0.432998  0  4.104554  0  0  0.449846  0  4.115018  0  0  0.336475  0.421419  0  4.097936  0
C  C26  1  0.85119447  0.40923349  0.54104485  1  0  0.446342  0  3.803334  0  0  0.38405  0  4.107784  0  0  0.40518  0  4.117022  0  0  0.344065  0.369991  0  4.101133  0
C  C27  1  0.35119690  0.54104351  0.40923325  1  0  0.446205  0  3.803497  0  0  0.383908  0  4.107993  0  0  0.405018  0  4.117232  0  0  0.343974  0.36984  0  4.101349  0
C  C28  1  0.93814038  0.20236069  0.40266877  1  0  -0.190999  0  3.635755  0  0  -0.255551  0  3.890399  0  0  -0.25589  0  3.894538  0  0  -0.054313  -0.255515  0  3.888062  0
C  C29  1  0.43813527  0.40266576  0.20236026  1  0  -0.19096  0  3.635643  0  0  -0.255399  0  3.890221  0  0  -0.255734  0  3.894363  0  0  -0.054281  -0.255357  0  3.887888  0
C  C30  1  0.76122397  0.13651750  0.29249620  1  0  0.695113  0  3.912688  0  0  0.645741  0  4.22518  0  0  0.678269  0  4.218168  0  0  0.2157  0.623678  0  4.22876  0
C  C31  1  0.26122709  0.29249765  0.13651423  1  0  0.69511  0  3.912332  0  0  0.645673  0  4.224888  0  0  0.678205  0  4.217875  0  0  0.215688  0.623611  0  4.228467  0
N  N32  1  0.73151019  0.81315064  0.54692912  1  0  0.224153  0  3.636166  0  0  0.310867  0  3.860262  0  0  0.308709  0  3.881698  0  0  0.003334  0.311948  0  3.846234  0
N  N33  1  0.23151569  0.54692898  0.81315175  1  0  0.22398  0  3.636615  0  0  0.310884  0  3.860496  0  0  0.308729  0  3.881923  0  0  0.003359  0.311962  0  3.846471  0
N  N34  1  0.84600045  0.73733275  0.37677499  1  0  -0.360051  0  2.954521  0  0  -0.327536  0  3.240412  0  0  -0.338355  0  3.247048  0  0  -0.199551  -0.32008  0  3.236261  0
N  N35  1  0.34600688  0.37677821  0.73733899  1  0  -0.360093  0  2.954314  0  0  -0.327575  0  3.24018  0  0  -0.338396  0  3.246818  0  0  -0.19953  -0.320116  0  3.236025  0
N  N36  1  0.79113133  0.85013831  0.43252604  1  0  -0.064314  0  2.865094  0  0  -0.076526  0  3.133878  0  0  -0.071915  0  3.143014  0  0  -0.057874  -0.07927  0  3.128184  0
N  N37  1  0.29113390  0.43253187  0.85013861  1  0  -0.064256  0  2.865213  0  0  -0.076523  0  3.133957  0  0  -0.071912  0  3.143092  0  0  -0.057896  -0.079271  0  3.128268  0
N  N38  1  0.74381736  0.68124270  0.57315625  1  0  -0.314781  0  2.799693  0  0  -0.320865  0  3.067266  0  0  -0.328444  0  3.077449  0  0  -0.198105  -0.31612  0  3.061404  0
N  N39  1  0.24382905  0.57315596  0.68124497  1  0  -0.314848  0  2.799923  0  0  -0.321028  0  3.067467  0  0  -0.328604  0  3.07765  0  0  -0.198227  -0.316285  0  3.061612  0
N  N40  1  0.85267967  0.50201834  0.44142535  1  0  -0.460465  0  3.293149  0  0  -0.407406  0  3.548284  0  0  -0.42605  0  3.552737  0  0  -0.379203  -0.39451  0  3.545158  0
N  N41  1  0.35268362  0.44142419  0.50201859  1  0  -0.460507  0  3.293259  0  0  -0.407563  0  3.548407  0  0  -0.426151  0  3.552817  0  0  -0.379171  -0.394658  0  3.545281  0
N  N42  1  0.80521874  0.42887389  0.66785989  1  0  -0.344705  0  2.887698  0  0  -0.337276  0  3.187942  0  0  -0.348666  0  3.196549  0  0  -0.230261  -0.32948  0  3.181965  0
N  N43  1  0.30521866  0.66785504  0.42887784  1  0  -0.344611  0  2.887598  0  0  -0.337133  0  3.187798  0  0  -0.348526  0  3.196412  0  0  -0.230222  -0.329332  0  3.181818  0
N  N44  1  0.90266836  0.28172139  0.52601517  1  0  -0.049116  0  3.551733  0  0  0.031685  0  3.790727  0  0  0.017479  0  3.814454  0  0  -0.133584  0.040789  0  3.774757  0
N  N45  1  0.40266984  0.52601524  0.28172532  1  0  -0.049014  0  3.551513  0  0  0.03178  0  3.790472  0  0  0.017573  0  3.8142  0  0  -0.133554  0.040887  0  3.774499  0
N  N46  1  0.83108457  0.31052137  0.72861166  1  0  -0.050724  0  3.057926  0  0  -0.026997  0  3.360249  0  0  -0.025229  0  3.367621  0  0  -0.059346  -0.027765  0  3.354674  0
N  N47  1  0.33107585  0.72860690  0.31052019  1  0  -0.050787  0  3.057936  0  0  -0.027082  0  3.360279  0  0  -0.025312  0  3.367644  0  0  -0.059393  -0.027853  0  3.354703  0
N  N48  1  0.88756059  0.22119195  0.64642373  1  0  -0.084765  0  2.876367  0  0  -0.095421  0  3.169084  0  0  -0.094142  0  3.179953  0  0  -0.066398  -0.095804  0  3.162023  0
N  N49  1  0.38755287  0.64641906  0.22119285  1  0  -0.084796  0  2.876358  0  0  -0.095453  0  3.169078  0  0  -0.094169  0  3.17994  0  0  -0.066363  -0.095837  0  3.162014  0
O  O50  1  0.96847762  0.93430732  0.79417104  1  0  -0.675363  0  1.96704  0  0  -0.622445  0  2.19786  0  0  -0.64838  0  2.189139  0  0  -0.328345  -0.604171  0  2.203896  0
O  O51  1  0.46850040  0.79417489  0.93430586  1  0  -0.675489  0  1.966062  0  0  -0.622529  0  2.196897  0  0  -0.648482  0  2.188225  0  0  -0.328381  -0.604272  0  2.202967  0
O  O52  1  0.15158957  0.95799040  0.30093536  1  0  -0.848042  0  1.831758  0  0  -0.795293  0  2.014578  0  0  -0.814031  0  1.984354  0  0  -0.616926  -0.781547  0  2.035368  0
O  O53  1  0.65159447  0.30093303  0.95799226  1  0  -0.848116  0  1.831645  0  0  -0.795355  0  2.014453  0  0  -0.814092  0  1.984228  0  0  -0.616932  -0.781611  0  2.035244  0
O  O54  1  0.81974550  0.76421831  0.06351762  1  0  -0.855538  0  1.783204  0  0  -0.801565  0  1.945014  0  0  -0.820828  0  1.914307  0  0  -0.61111  -0.787716  0  1.967261  0
O  O55  1  0.31974998  0.06351878  0.76422030  1  0  -0.855538  0  1.783189  0  0  -0.801559  0  1.944971  0  0  -0.820819  0  1.914266  0  0  -0.611131  -0.787709  0  1.967214  0
O  O56  1  0.61022377  0.16058354  0.31293011  1  0  -0.628019  0  1.894526  0  0  -0.582972  0  2.112353  0  0  -0.605166  0  2.103832  0  0  -0.317149  -0.567377  0  2.117102  0
O  O57  1  0.11020286  0.31293969  0.16058174  1  0  -0.628136  0  1.893828  0  0  -0.583068  0  2.111674  0  0  -0.605273  0  2.103155  0  0  -0.317264  -0.567475  0  2.116421  0
O  O58  1  0.78438233  0.06400282  0.18097396  1  0  -0.77308  0  2.024257  0  0  -0.706835  0  2.281258  0  0  -0.738053  0  2.272395  0  0  -0.406031  -0.684315  0  2.28609  0
O  O59  1  0.28436986  0.18097692  0.06401074  1  0  -0.773028  0  2.024462  0  0  -0.706774  0  2.281531  0  0  -0.737987  0  2.272665  0  0  -0.405973  -0.684259  0  2.286364  0
O  O60  1  0.75585989  0.02845448  0.88024900  1  0  -0.742335  0  2.018659  0  0  -0.674393  0  2.267572  0  0  -0.705361  0  2.259757  0  0  -0.392957  -0.65204  0  2.271885  0
O  O61  1  0.25586668  0.88024252  0.02844868  1  0  -0.742218  0  2.019102  0  0  -0.674229  0  2.268022  0  0  -0.705188  0  2.260207  0  0  -0.392867  -0.651889  0  2.272337  0
