# generated using pymatgen
data_Tb2H16C15(N3O7)2
_symmetry_space_group_name_H-M   'P 1'
_cell_length_a   9.61242704
_cell_length_b   9.71639917
_cell_length_c   15.95857175
_cell_angle_alpha   86.48760359
_cell_angle_beta   82.88512926
_cell_angle_gamma   60.35360453
_symmetry_Int_Tables_number   1
_chemical_formula_structural   Tb2H16C15(N3O7)2
_chemical_formula_sum   'Tb4 H32 C30 N12 O28'
_cell_volume   1285.41222945
_cell_formula_units_Z   2
loop_
 _symmetry_equiv_pos_site_id
 _symmetry_equiv_pos_as_xyz
  1  'x, y, z'
loop_
 _atom_site_type_symbol
 _atom_site_label
 _atom_site_symmetry_multiplicity
 _atom_site_fract_x
 _atom_site_fract_y
 _atom_site_fract_z
 _atom_site_occupancy
 _atom_site_pbe_bader_spin_density
 _atom_site_pbe_cm5_charge
 _atom_site_pbe_ddec_charge
 _atom_site_pbe_ddec_spin_density
 _atom_site_pbe_ddec_sum_bond_order
 _atom_site_pbe_magmom
Tb  Tb0  1  0.49991399  0.09819366  0.87570109  1  0  1.555645  2.097399  0  2.236221  0
Tb  Tb1  1  0.59808789  0.90182020  0.37571510  1  0  1.555638  2.097298  0  2.236415  0
Tb  Tb2  1  0.49558710  0.90764421  0.12469880  1  0  1.492734  2.135054  0  2.057371  0
Tb  Tb3  1  0.40321049  0.09237217  0.62470205  1  0  1.492782  2.135052  0  2.057226  0
H  H4  1  0.85214584  0.93849489  0.10223374  1  0  0.124494  0.124947  0  1.005285  0
H  H5  1  0.79063773  0.06150318  0.60222284  1  0  0.124477  0.124937  0  1.005367  0
H  H6  1  0.98459757  0.82243052  0.01517605  1  0  0.121508  0.119844  0  0.957313  0
H  H7  1  0.80700934  0.17756467  0.51515708  1  0  0.121567  0.119972  0  0.957084  0
H  H8  1  0.05539639  0.12498814  0.91663848  1  0  0.123027  0.128915  0  0.957928  0
H  H9  1  0.18036818  0.87502340  0.41664197  1  0  0.123047  0.128972  0  0.958022  0
H  H10  1  0.10291359  0.92543251  0.91469924  1  0  0.125385  0.129755  0  0.948312  0
H  H11  1  0.02832789  0.07456978  0.41469759  1  0  0.125444  0.129845  0  0.948189  0
H  H12  1  0.49351241  0.29126161  0.15127425  1  0  0.123328  0.126503  0  1.004054  0
H  H13  1  0.78477213  0.70876266  0.65127781  1  0  0.12333  0.126475  0  1.004174  0
H  H14  1  0.35183742  0.41650565  0.23415184  1  0  0.117718  0.112629  0  0.975091  0
H  H15  1  0.76834495  0.58349840  0.73416810  1  0  0.117679  0.112635  0  0.97504  0
H  H16  1  0.43253312  0.51011097  0.33680535  1  0  0.122742  0.124578  0  0.956949  0
H  H17  1  0.94263771  0.48988536  0.83680369  1  0  0.122759  0.124655  0  0.956838  0
H  H18  1  0.63634907  0.45619448  0.34015189  1  0  0.118706  0.117219  0  0.972274  0
H  H19  1  0.09256386  0.54378187  0.84015422  1  0  0.118732  0.117278  0  0.972074  0
H  H20  1  0.10102266  0.55583085  0.19766185  1  0  0.119214  0.113944  0  0.972849  0
H  H21  1  0.65683531  0.44418684  0.69767839  1  0  0.119253  0.11403  0  0.973004  0
H  H22  1  0.00547825  0.46294793  0.26009381  1  0  0.120506  0.120143  0  0.964171  0
H  H23  1  0.46841323  0.53703136  0.76009726  1  0  0.120597  0.120276  0  0.964205  0
H  H24  1  0.14061346  0.54241988  0.05662753  1  0  0.119878  0.116957  0  0.96587  0
H  H25  1  0.68304427  0.45758158  0.55663335  1  0  0.119906  0.11696  0  0.965943  0
H  H26  1  0.06434347  0.45138854  0.99747451  1  0  0.124401  0.125746  0  0.978185  0
H  H27  1  0.51571976  0.54862978  0.49747312  1  0  0.124409  0.125776  0  0.978106  0
H  H28  1  0.63729415  0.72787892  0.95819951  1  0  0.313668  0.410536  0  0.905759  0
H  H29  1  0.36516340  0.27212207  0.45819609  1  0  0.31369  0.410663  0  0.905612  0
H  H30  1  0.56161284  0.63751499  0.01436169  1  0  0.33883  0.424793  0  0.848227  0
H  H31  1  0.19910651  0.36249825  0.51437631  1  0  0.338769  0.424725  0  0.848364  0
H  H32  1  0.17760704  0.97991700  0.19880290  1  0  0.329803  0.420835  0  0.858804  0
H  H33  1  0.15750845  0.02008174  0.69879730  1  0  0.329804  0.42072  0  0.85909  0
H  H34  1  0.19352898  0.13130159  0.18694820  1  0  0.306261  0.39079  0  0.937255  0
H  H35  1  0.32483339  0.86869125  0.68695141  1  0  0.306302  0.390827  0  0.937218  0
C  C36  1  0.89809319  0.17700543  0.07320099  1  0  0.342601  0.487247  0  4.136205  0
C  C37  1  0.07512500  0.82297121  0.57319131  1  0  0.342475  0.487181  0  4.135893  0
C  C38  1  0.72776690  0.32385645  0.18358126  1  0  0.343915  0.490813  0  4.125777  0
C  C39  1  0.05162233  0.67614723  0.68357263  1  0  0.343824  0.49076  0  4.125754  0
C  C40  1  0.93094257  0.36596898  0.12840139  1  0  0.343169  0.482429  0  4.132872  0
C  C41  1  0.29693964  0.63399397  0.62839629  1  0  0.34311  0.482406  0  4.132942  0
C  C42  1  0.89178489  0.94294047  0.03535016  1  0  -0.047828  -0.201728  0  3.904402  0
C  C43  1  0.83472385  0.05704471  0.53534099  1  0  -0.047958  -0.202015  0  3.904482  0
C  C44  1  0.75072637  0.99403573  0.98414715  1  0  0.221912  0.663335  0  4.114934  0
C  C45  1  0.74475531  0.00596133  0.48413618  1  0  0.221803  0.663254  0  4.115309  0
C  C46  1  0.08718185  0.01930609  0.95625207  1  0  -0.04742  -0.198972  0  3.89818  0
C  C47  1  0.10647027  0.98070214  0.45624702  1  0  -0.047643  -0.199394  0  3.898437  0
C  C48  1  0.24925115  0.97143017  0.98724834  1  0  0.230468  0.681141  0  4.144764  0
C  C49  1  0.22066335  0.02858062  0.48724060  1  0  0.230576  0.681213  0  4.144769  0
C  C50  1  0.47587299  0.32047520  0.21820186  1  0  -0.049176  -0.196525  0  3.879967  0
C  C51  1  0.79634688  0.67953208  0.71820269  1  0  -0.049163  -0.196536  0  3.880081  0
C  C52  1  0.49788124  0.17639672  0.27121638  1  0  0.228381  0.670595  0  4.077119  0
C  C53  1  0.67426615  0.82360903  0.77121331  1  0  0.228407  0.670617  0  4.076936  0
C  C54  1  0.54197491  0.49435247  0.29778696  1  0  -0.050211  -0.202685  0  3.906923  0
C  C55  1  0.03632734  0.50564142  0.79778760  1  0  -0.050233  -0.202897  0  3.906658  0
C  C56  1  0.51091863  0.65602513  0.26181456  1  0  0.230067  0.67707  0  4.140506  0
C  C57  1  0.16694570  0.34397232  0.76181619  1  0  0.230177  0.677269  0  4.140493  0
C  C58  1  0.99970776  0.53209424  0.20219204  1  0  -0.05086  -0.206294  0  3.933171  0
C  C59  1  0.53180281  0.46790421  0.70219224  1  0  -0.050958  -0.206714  0  3.933679  0
C  C60  1  0.84520147  0.69088170  0.21508837  1  0  0.23831  0.689143  0  4.135983  0
C  C61  1  0.53609436  0.30910634  0.71507122  1  0  0.238357  0.689303  0  4.135481  0
C  C62  1  0.12089704  0.44041876  0.05511221  1  0  -0.049301  -0.208444  0  3.926821  0
C  C63  1  0.56134196  0.55958613  0.55510033  1  0  -0.049236  -0.208379  0  3.926232  0
C  C64  1  0.28546932  0.29101446  0.04450222  1  0  0.236659  0.680181  0  4.131206  0
C  C65  1  0.57649988  0.70900222  0.54448828  1  0  0.236563  0.680011  0  4.130828  0
N  N66  1  0.95998728  0.04688337  0.02301431  1  0  -0.274263  -0.076598  0  3.660797  0
N  N67  1  0.00687233  0.95308571  0.52299671  1  0  -0.27402  -0.076124  0  3.660374  0
N  N68  1  0.58627018  0.37459611  0.23469791  1  0  -0.270955  -0.078713  0  3.625113  0
N  N69  1  0.96087201  0.62539637  0.73469064  1  0  -0.270877  -0.078617  0  3.624823  0
N  N70  1  0.01612107  0.44423062  0.12872968  1  0  -0.281398  -0.083615  0  3.688901  0
N  N71  1  0.46037682  0.55576460  0.62872586  1  0  -0.281428  -0.083519  0  3.688901  0
N  N72  1  0.76804938  0.20738991  0.12831204  1  0  -0.355865  -0.538829  0  3.250861  0
N  N73  1  0.97544156  0.79260307  0.62829740  1  0  -0.355691  -0.538751  0  3.250859  0
N  N74  1  0.81375439  0.39660174  0.19230956  1  0  -0.350312  -0.531312  0  3.250847  0
N  N75  1  0.21035278  0.60339376  0.69230235  1  0  -0.350314  -0.531362  0  3.250972  0
N  N76  1  0.97485765  0.26243657  0.06478100  1  0  -0.354566  -0.542522  0  3.267925  0
N  N77  1  0.23731965  0.73754144  0.56477988  1  0  -0.354584  -0.542582  0  3.267749  0
O  O78  1  0.63419735  0.96892174  0.01306011  1  0  -0.439297  -0.756949  0  2.422597  0
O  O79  1  0.60311200  0.03107127  0.51305265  1  0  -0.439252  -0.756952  0  2.422607  0
O  O80  1  0.75057892  0.05872171  0.91322932  1  0  -0.369598  -0.599737  0  2.166123  0
O  O81  1  0.80929919  0.94127919  0.41321929  1  0  -0.369501  -0.599617  0  2.166351  0
O  O82  1  0.27966157  0.91151418  0.06000460  1  0  -0.387367  -0.680856  0  2.281268  0
O  O83  1  0.19117577  0.08847731  0.55999967  1  0  -0.387378  -0.680851  0  2.281413  0
O  O84  1  0.34903677  0.99238923  0.93563711  1  0  -0.430812  -0.727332  0  2.37142  0
O  O85  1  0.34141438  0.00762824  0.43563381  1  0  -0.430876  -0.727315  0  2.371407  0
O  O86  1  0.52119671  0.04976219  0.23679370  1  0  -0.406454  -0.73531  0  2.35242  0
O  O87  1  0.57096176  0.95025028  0.73678569  1  0  -0.406483  -0.735376  0  2.352253  0
O  O88  1  0.49733983  0.18249751  0.35070212  1  0  -0.367999  -0.631216  0  2.210529  0
O  O89  1  0.67984555  0.81752552  0.85069731  1  0  -0.367994  -0.631139  0  2.210439  0
O  O90  1  0.47128449  0.69332368  0.18731854  1  0  -0.398653  -0.652086  0  2.219004  0
O  O91  1  0.16461954  0.30667413  0.68732669  1  0  -0.398627  -0.652078  0  2.219469  0
O  O92  1  0.52379554  0.74642643  0.31069579  1  0  -0.409542  -0.72162  0  2.361668  0
O  O93  1  0.27023651  0.25355590  0.81069807  1  0  -0.409801  -0.721833  0  2.361548  0
O  O94  1  0.75643463  0.74864565  0.15592228  1  0  -0.400702  -0.670264  0  2.341802  0
O  O95  1  0.50509192  0.25136276  0.65590744  1  0  -0.400679  -0.670167  0  2.342055  0
O  O96  1  0.82128397  0.75390613  0.28646442  1  0  -0.421978  -0.677275  0  2.282845  0
O  O97  1  0.57521206  0.24606130  0.78645112  1  0  -0.422155  -0.67744  0  2.282289  0
O  O98  1  0.32128813  0.18371532  0.10025149  1  0  -0.373886  -0.673738  0  2.369754  0
O  O99  1  0.50499627  0.81629439  0.60024480  1  0  -0.37392  -0.673753  0  2.369524  0
O  O100  1  0.37503785  0.28720741  0.97801808  1  0  -0.42201  -0.682882  0  2.251513  0
O  O101  1  0.66225653  0.71281026  0.47800774  1  0  -0.421944  -0.682652  0  2.251637  0
O  O102  1  0.62306816  0.69205150  0.01605804  1  0  -0.600543  -0.799217  0  2.01758  0
O  O103  1  0.31510543  0.30795036  0.51605251  1  0  -0.600509  -0.799246  0  2.017522  0
O  O104  1  0.23229667  0.03144725  0.21901883  1  0  -0.602287  -0.78786  0  2.000756  0
O  O105  1  0.26372553  0.96855339  0.71901479  1  0  -0.602301  -0.787766  0  2.001023  0
