# generated using pymatgen
data_CdH38C38S2(N3O4)2
_symmetry_space_group_name_H-M   'P 1'
_cell_length_a   9.62574766
_cell_length_b   9.60092322
_cell_length_c   10.13423833
_cell_angle_alpha   81.01572033
_cell_angle_beta   87.37352536
_cell_angle_gamma   85.26928266
_symmetry_Int_Tables_number   1
_chemical_formula_structural   CdH38C38S2(N3O4)2
_chemical_formula_sum   'Cd1 H38 C38 S2 N6 O8'
_cell_volume   921.40796494
_cell_formula_units_Z   1
loop_
 _symmetry_equiv_pos_site_id
 _symmetry_equiv_pos_as_xyz
  1  'x, y, z'
loop_
 _atom_site_type_symbol
 _atom_site_label
 _atom_site_symmetry_multiplicity
 _atom_site_fract_x
 _atom_site_fract_y
 _atom_site_fract_z
 _atom_site_occupancy
 _atom_site_hle17_bader_spin_density
 _atom_site_hle17_ddec_charge
 _atom_site_hle17_ddec_spin_density
 _atom_site_hle17_ddec_sum_bond_order
 _atom_site_hle17_magmom
 _atom_site_hse06_10hf_bader_spin_density
 _atom_site_hse06_10hf_ddec_charge
 _atom_site_hse06_10hf_ddec_spin_density
 _atom_site_hse06_10hf_ddec_sum_bond_order
 _atom_site_hse06_10hf_magmom
 _atom_site_hse06_bader_spin_density
 _atom_site_hse06_ddec_charge
 _atom_site_hse06_ddec_spin_density
 _atom_site_hse06_ddec_sum_bond_order
 _atom_site_hse06_magmom
 _atom_site_pbe_bader_spin_density
 _atom_site_pbe_cm5_charge
 _atom_site_pbe_ddec_charge
 _atom_site_pbe_ddec_spin_density
 _atom_site_pbe_ddec_sum_bond_order
 _atom_site_pbe_magmom
Cd  Cd0  1  0.49999958  0.99999966  0.00000163  1  0  1.169027  0  1.700062  0  0  0.988422  0  2.150126  0  0  1.039062  0  2.101106  0  0  0.802735  0.952276  0  2.184521  0
H  H1  1  0.56293125  0.15135443  0.28452963  1  0  0.097526  0  0.979248  0  0  0.108673  0  1.038702  0  0  0.109386  0  1.040947  0  0  0.114316  0.108144  0  1.03715  0
H  H2  1  0.43706918  0.84865118  0.71547073  1  0  0.09745  0  0.979293  0  0  0.108624  0  1.038732  0  0  0.109335  0  1.040976  0  0  0.114293  0.108093  0  1.037173  0
H  H3  1  0.24568743  0.94908539  0.40341539  1  0  0.099353  0  0.980952  0  0  0.108388  0  1.045053  0  0  0.112245  0  1.042092  0  0  0.101379  0.105505  0  1.047581  0
H  H4  1  0.75431269  0.05090965  0.59658062  1  0  0.099379  0  0.980954  0  0  0.108448  0  1.045018  0  0  0.112306  0  1.042055  0  0  0.101403  0.105548  0  1.047564  0
H  H5  1  0.70228144  0.71899681  0.36439140  1  0  0.109851  0  0.949277  0  0  0.11983  0  1.008292  0  0  0.123369  0  1.00633  0  0  0.106647  0.117192  0  1.010019  0
H  H6  1  0.29771811  0.28099189  0.63561249  1  0  0.109796  0  0.949223  0  0  0.119765  0  1.008258  0  0  0.123303  0  1.006298  0  0  0.106623  0.117127  0  1.009985  0
H  H7  1  0.14571290  0.15500188  0.50594936  1  0  0.080154  0  0.958556  0  0  0.091696  0  1.019635  0  0  0.094729  0  1.018556  0  0  0.096633  0.088965  0  1.021642  0
H  H8  1  0.85428746  0.84498999  0.49405303  1  0  0.080161  0  0.958529  0  0  0.091672  0  1.019643  0  0  0.094702  0  1.018568  0  0  0.096615  0.088942  0  1.021651  0
H  H9  1  0.32300467  0.58292491  0.83977087  1  0  0.083503  0  1.011095  0  0  0.0916  0  1.078528  0  0  0.093896  0  1.078862  0  0  0.09575  0.09021  0  1.077961  0
H  H10  1  0.67699227  0.41707120  0.16023302  1  0  0.083566  0  1.011086  0  0  0.091646  0  1.078539  0  0  0.093956  0  1.07884  0  0  0.095745  0.090253  0  1.07798  0
H  H11  1  0.27596343  0.62883042  0.60079245  1  0  0.111187  0  0.958928  0  0  0.121279  0  1.016401  0  0  0.124693  0  1.014497  0  0  0.10283  0.118605  0  1.018136  0
H  H12  1  0.72403343  0.37116675  0.39921031  1  0  0.111215  0  0.958816  0  0  0.121231  0  1.016379  0  0  0.12464  0  1.014486  0  0  0.102825  0.118557  0  1.018115  0
H  H13  1  0.15185087  0.45649218  0.31729691  1  0  0.09731  0  0.96684  0  0  0.107815  0  1.028303  0  0  0.110553  0  1.027415  0  0  0.103454  0.10578  0  1.029022  0
H  H14  1  0.84813692  0.54351560  0.68270469  1  0  0.097228  0  0.966801  0  0  0.107708  0  1.028299  0  0  0.110433  0  1.027445  0  0  0.103426  0.105673  0  1.029018  0
H  H15  1  0.33314422  0.61224910  0.02441742  1  0  0.090038  0  0.936206  0  0  0.102997  0  1.000764  0  0  0.104028  0  1.00017  0  0  0.111763  0.102048  0  1.001124  0
H  H16  1  0.66685004  0.38775548  0.97558140  1  0  0.089995  0  0.936281  0  0  0.102984  0  1.000805  0  0  0.104021  0  1.000211  0  0  0.111762  0.102035  0  1.00116  0
H  H17  1  0.26518590  0.58286933  0.18857583  1  0  0.095195  0  0.96057  0  0  0.106177  0  1.029423  0  0  0.108318  0  1.026889  0  0  0.116736  0.10489  0  1.030549  0
H  H18  1  0.73481467  0.41713417  0.81142582  1  0  0.095175  0  0.960578  0  0  0.106189  0  1.029384  0  0  0.10833  0  1.026856  0  0  0.116744  0.104902  0  1.030511  0
H  H19  1  0.33541310  0.31640889  0.94188643  1  0  0.111638  0  0.95682  0  0  0.118304  0  1.024462  0  0  0.121557  0  1.020087  0  0  0.135633  0.11605  0  1.027252  0
H  H20  1  0.66459356  0.68359670  0.05810971  1  0  0.111656  0  0.956784  0  0  0.118337  0  1.024441  0  0  0.121584  0  1.02007  0  0  0.135643  0.116082  0  1.027233  0
H  H21  1  0.43670431  0.41639760  0.31688974  1  0  0.133119  0  0.944002  0  0  0.144188  0  0.999017  0  0  0.147115  0  0.997406  0  0  0.129544  0.141807  0  1.000692  0
H  H22  1  0.56329105  0.58360592  0.68310721  1  0  0.133085  0  0.944024  0  0  0.144178  0  0.999024  0  0  0.147106  0  0.997411  0  0  0.129541  0.141797  0  1.000699  0
H  H23  1  0.78311472  0.13369651  0.11994200  1  0  0.034742  0  0.934517  0  0  0.042868  0  1.008143  0  0  0.044616  0  1.00366  0  0  0.118632  0.041872  0  1.010695  0
H  H24  1  0.21689009  0.86630591  0.88005666  1  0  0.034763  0  0.934525  0  0  0.042892  0  1.008129  0  0  0.04464  0  1.003648  0  0  0.118653  0.041896  0  1.010681  0
H  H25  1  0.03428352  0.05286899  0.32260824  1  0  0.093988  0  0.933796  0  0  0.117061  0  0.992586  0  0  0.116888  0  0.993232  0  0  0.101768  0.116677  0  0.99296  0
H  H26  1  0.96571913  0.94713449  0.67738937  1  0  0.094006  0  0.933756  0  0  0.117091  0  0.992528  0  0  0.116916  0  0.993175  0  0  0.101767  0.116706  0  0.992903  0
H  H27  1  0.98108043  0.18353590  0.18590392  1  0  0.096366  0  0.982804  0  0  0.112146  0  1.054376  0  0  0.111657  0  1.057354  0  0  0.102293  0.1116  0  1.053936  0
H  H28  1  0.01892230  0.81646653  0.81409385  1  0  0.096319  0  0.982854  0  0  0.112108  0  1.05442  0  0  0.11162  0  1.057398  0  0  0.10227  0.111567  0  1.053973  0
H  H29  1  0.13181487  0.06405465  0.16781421  1  0  0.120432  0  0.927235  0  0  0.139686  0  0.98698  0  0  0.140873  0  0.986653  0  0  0.109199  0.138548  0  0.987545  0
H  H30  1  0.86818890  0.93594777  0.83218351  1  0  0.120492  0  0.927196  0  0  0.139711  0  0.986978  0  0  0.140899  0  0.986652  0  0  0.109214  0.138572  0  0.987543  0
H  H31  1  0.92762996  0.77355944  0.12223997  1  0  0.110544  0  0.947975  0  0  0.127352  0  1.013644  0  0  0.128569  0  1.013697  0  0  0.108115  0.126123  0  1.01455  0
H  H32  1  0.07237292  0.22644088  0.87776106  1  0  0.110512  0  0.948022  0  0  0.127327  0  1.013689  0  0  0.128544  0  1.013744  0  0  0.108109  0.126097  0  1.014596  0
H  H33  1  0.98520800  0.77806493  0.28637196  1  0  0.095915  0  0.930823  0  0  0.118199  0  0.993908  0  0  0.117919  0  0.994676  0  0  0.102857  0.118018  0  0.994118  0
H  H34  1  0.01479681  0.22193749  0.71362868  1  0  0.095892  0  0.930787  0  0  0.118155  0  0.993928  0  0  0.117877  0  0.994695  0  0  0.102858  0.117974  0  0.994138  0
H  H35  1  0.10072242  0.82200864  0.14746491  1  0  0.108769  0  0.939427  0  0  0.128435  0  1.004157  0  0  0.128977  0  1.00427  0  0  0.106493  0.127972  0  1.004058  0
H  H36  1  0.89928261  0.17799061  0.85253420  1  0  0.108648  0  0.939605  0  0  0.128389  0  1.004256  0  0  0.128925  0  1.004377  0  0  0.106461  0.127938  0  1.004146  0
H  H37  1  0.03882571  0.61220800  0.52304006  1  0  0.088286  0  0.959949  0  0  0.099578  0  1.020737  0  0  0.102029  0  1.020195  0  0  0.100802  0.098852  0  1.019047  0
H  H38  1  0.96116975  0.38779446  0.47696790  1  0  0.088262  0  0.959895  0  0  0.099541  0  1.020705  0  0  0.101996  0  1.020157  0  0  0.100768  0.098806  0  1.019025  0
C  C39  1  0.49600879  0.22410143  0.21853270  1  0  -0.006159  0  3.769533  0  0  -0.040627  0  4.038028  0  0  -0.039404  0  4.060774  0  0  -0.007228  -0.041272  0  4.022589  0
C  C40  1  0.50399081  0.77590101  0.78146619  1  0  -0.006078  0  3.76944  0  0  -0.040578  0  4.037947  0  0  -0.03935  0  4.060689  0  0  -0.007225  -0.041215  0  4.022499  0
C  C41  1  0.31151318  0.00698563  0.45642279  1  0  -0.101126  0  3.733299  0  0  -0.127174  0  3.988096  0  0  -0.127143  0  4.005816  0  0  -0.08934  -0.126923  0  3.975881  0
C  C42  1  0.68848813  0.99300729  0.54357447  1  0  -0.101126  0  3.733281  0  0  -0.127195  0  3.988031  0  0  -0.127165  0  4.005754  0  0  -0.089331  -0.126929  0  3.975824  0
C  C43  1  0.45585289  0.96298120  0.46394822  1  0  0.046462  0  3.76032  0  0  0.056304  0  3.988619  0  0  0.056889  0  4.012034  0  0  -0.004348  0.055849  0  3.972575  0
C  C44  1  0.54414731  0.03701278  0.53604893  1  0  0.046443  0  3.760332  0  0  0.056289  0  3.988632  0  0  0.056874  0  4.012042  0  0  -0.004346  0.055834  0  3.972586  0
C  C45  1  0.51854859  0.84860413  0.40146147  1  0  -0.158472  0  3.682352  0  0  -0.135631  0  3.92589  0  0  -0.143215  0  3.94764  0  0  -0.018025  -0.130581  0  3.911264  0
C  C46  1  0.48145265  0.15138985  0.59853662  1  0  -0.158441  0  3.682392  0  0  -0.135592  0  3.925912  0  0  -0.14316  0  3.947636  0  0  -0.018034  -0.130543  0  3.911286  0
C  C47  1  0.65880797  0.80697602  0.41321530  1  0  -0.060032  0  3.759419  0  0  -0.087572  0  4.011306  0  0  -0.085503  0  4.029836  0  0  -0.087838  -0.088715  0  3.998709  0
C  C48  1  0.34119542  0.19301689  0.58678186  1  0  -0.060135  0  3.759433  0  0  -0.08767  0  4.011327  0  0  -0.085606  0  4.02986  0  0  -0.087897  -0.088812  0  3.998726  0
C  C49  1  0.25623592  0.12035372  0.51504701  1  0  -0.070352  0  3.790492  0  0  -0.084636  0  4.050255  0  0  -0.087429  0  4.07083  0  0  -0.094736  -0.082565  0  4.036622  0
C  C50  1  0.74376636  0.87964026  0.48494906  1  0  -0.070462  0  3.790491  0  0  -0.084734  0  4.050298  0  0  -0.087524  0  4.070869  0  0  -0.094793  -0.082664  0  4.036662  0
C  C51  1  0.13429910  0.51828012  0.04542385  1  0  -0.017152  0  3.690752  0  0  -0.008244  0  3.936457  0  0  -0.010052  0  3.960131  0  0  -0.009512  -0.006903  0  3.919549  0
C  C52  1  0.86569442  0.48172023  0.95458154  1  0  -0.017182  0  3.690682  0  0  -0.008319  0  3.936353  0  0  -0.010128  0  3.960028  0  0  -0.009576  -0.006979  0  3.919444  0
C  C53  1  0.02735279  0.47529145  0.13923555  1  0  0.015891  0  3.77111  0  0  0.026115  0  4.001709  0  0  0.025647  0  4.02658  0  0  -0.010022  0.02602  0  3.986819  0
C  C54  1  0.97263961  0.52470997  0.86076579  1  0  0.015776  0  3.77133  0  0  0.026123  0  4.001787  0  0  0.025656  0  4.026657  0  0  -0.009974  0.02603  0  3.986895  0
C  C55  1  0.10974328  0.54109064  0.90694174  1  0  0.002825  0  3.790361  0  0  0.011017  0  4.025621  0  0  0.010643  0  4.050128  0  0  -0.011964  0.011589  0  4.009454  0
C  C56  1  0.89025233  0.45890971  0.09306159  1  0  0.00291  0  3.790257  0  0  0.0112  0  4.025457  0  0  0.010825  0  4.049962  0  0  -0.011794  0.011773  0  4.009288  0
C  C57  1  0.21736473  0.57722434  0.80881977  1  0  -0.126255  0  3.774349  0  0  -0.144587  0  4.027053  0  0  -0.14777  0  4.048683  0  0  -0.098495  -0.142731  0  4.012286  0
C  C58  1  0.78262880  0.42277602  0.19118562  1  0  -0.126381  0  3.774211  0  0  -0.144733  0  4.026887  0  0  -0.147912  0  4.048517  0  0  -0.098542  -0.142877  0  4.012118  0
C  C59  1  0.19273346  0.60187714  0.67460313  1  0  -0.054707  0  3.74704  0  0  -0.067564  0  3.990903  0  0  -0.068917  0  4.011106  0  0  -0.089707  -0.066795  0  3.978113  0
C  C60  1  0.80726475  0.39811579  0.32540414  1  0  -0.054663  0  3.746848  0  0  -0.06745  0  3.9907  0  0  -0.068803  0  4.010904  0  0  -0.089722  -0.06668  0  3.977907  0
C  C61  1  0.04925245  0.44706828  0.28004617  1  0  -0.120152  0  3.741998  0  0  -0.137751  0  3.988814  0  0  -0.140585  0  4.010771  0  0  -0.092434  -0.136204  0  3.974621  0
C  C62  1  0.95073766  0.55293632  0.71996073  1  0  -0.119863  0  3.741859  0  0  -0.137463  0  3.988632  0  0  -0.140299  0  4.01058  0  0  -0.092356  -0.135918  0  3.97444  0
C  C63  1  0.27528244  0.53823621  0.09532248  1  0  -0.047109  0  3.65353  0  0  -0.115027  0  3.904742  0  0  -0.110134  0  3.913912  0  0  -0.052405  -0.117579  0  3.897116  0
C  C64  1  0.72471181  0.46176837  0.90467732  1  0  -0.047036  0  3.653493  0  0  -0.115007  0  3.904714  0  0  -0.110127  0  3.913892  0  0  -0.052404  -0.117556  0  3.897086  0
C  C65  1  0.37880895  0.30517920  0.03991833  1  0  0.17199  0  3.638197  0  0  0.108307  0  3.903255  0  0  0.123386  0  3.914453  0  0  0.140863  0.099126  0  3.894862  0
C  C66  1  0.62119563  0.69482640  0.96007692  1  0  0.171986  0  3.638301  0  0  0.108241  0  3.903358  0  0  0.123324  0  3.914556  0  0  0.140824  0.09906  0  3.894964  0
C  C67  1  0.43285346  0.35334015  0.23755883  1  0  -0.05109  0  3.641311  0  0  -0.091338  0  3.89806  0  0  -0.089937  0  3.91668  0  0  0.006142  -0.092134  0  3.885748  0
C  C68  1  0.56714719  0.64666229  0.76244001  1  0  -0.050999  0  3.641262  0  0  -0.091287  0  3.898036  0  0  -0.089879  0  3.916644  0  0  0.006167  -0.092084  0  3.885725  0
C  C69  1  0.81012703  0.01881174  0.12488843  1  0  0.392354  0  3.822534  0  0  0.320029  0  4.107525  0  0  0.348737  0  4.1077  0  0  0.172942  0.300743  0  4.10638  0
C  C70  1  0.18987674  0.98119068  0.87511323  1  0  0.392217  0  3.822632  0  0  0.319908  0  4.107608  0  0  0.348614  0  4.107782  0  0  0.172845  0.30062  0  4.106459  0
C  C71  1  0.02651197  0.07504577  0.21325066  1  0  -0.174058  0  3.646133  0  0  -0.274846  0  3.89313  0  0  -0.271436  0  3.904836  0  0  -0.130792  -0.276421  0  3.88604  0
C  C72  1  0.97349075  0.92495666  0.78674711  1  0  -0.174063  0  3.646101  0  0  -0.274851  0  3.893114  0  0  -0.271438  0  3.90482  0  0  -0.130772  -0.276426  0  3.886024  0
C  C73  1  0.99079818  0.82890112  0.18128930  1  0  -0.167926  0  3.638069  0  0  -0.270621  0  3.887516  0  0  -0.266857  0  3.898214  0  0  -0.134167  -0.27264  0  3.880566  0
C  C74  1  0.00920559  0.17110130  0.81871039  1  0  -0.167779  0  3.638116  0  0  -0.27053  0  3.887565  0  0  -0.266755  0  3.898258  0  0  -0.134148  -0.272559  0  3.880606  0
C  C75  1  0.05710123  0.59143473  0.62995937  1  0  -0.070909  0  3.783818  0  0  -0.08325  0  4.030737  0  0  -0.084763  0  4.05212  0  0  -0.09148  -0.082371  0  4.014927  0
C  C76  1  0.94289290  0.40855716  0.37005021  1  0  -0.070787  0  3.783808  0  0  -0.08311  0  4.03067  0  0  -0.084627  0  4.052055  0  0  -0.091401  -0.082223  0  4.014863  0
S  S77  1  0.42097325  0.76071722  0.29634714  1  0  1.285661  0  5.690417  0  0  1.193503  0  6.209568  0  0  1.241863  0  6.185961  0  0  0.49536  1.16021  0  6.224642  0
S  S78  1  0.57903103  0.23927780  0.70364869  1  0  1.285552  0  5.690473  0  0  1.193438  0  6.209581  0  0  1.241795  0  6.185973  0  0  0.495429  1.160148  0  6.224653  0
N  N79  1  0.35995128  0.40324333  0.12308318  1  0  -0.053736  0  3.540049  0  0  0.042384  0  3.758338  0  0  0.027328  0  3.784121  0  0  -0.241252  0.051796  0  3.740586  0
N  N80  1  0.64005033  0.59676017  0.87691546  1  0  -0.053745  0  3.540165  0  0  0.042405  0  3.758448  0  0  0.027352  0  3.784232  0  0  -0.241174  0.051814  0  3.740699  0
N  N81  1  0.46160448  0.19549116  0.09511444  1  0  -0.403159  0  3.28437  0  0  -0.321605  0  3.567374  0  0  -0.343507  0  3.58403  0  0  -0.368321  -0.306899  0  3.555701  0
N  N82  1  0.53840114  0.80451443  0.90488273  1  0  -0.403256  0  3.284354  0  0  -0.321676  0  3.567363  0  0  -0.343578  0  3.584013  0  0  -0.368373  -0.30697  0  3.555688  0
N  N83  1  0.93860844  0.97687642  0.16793815  1  0  -0.090674  0  3.506448  0  0  0.01322  0  3.73955  0  0  -0.007362  0  3.76502  0  0  -0.28351  0.027356  0  3.721357  0
N  N84  1  0.06139636  0.02312600  0.83206051  1  0  -0.090611  0  3.506238  0  0  0.013292  0  3.739337  0  0  -0.007288  0  3.764807  0  0  -0.283448  0.027429  0  3.721146  0
O  O85  1  0.37317121  0.87398354  0.18647031  1  0  -0.71606  0  1.992763  0  0  -0.657793  0  2.270258  0  0  -0.681432  0  2.254497  0  0  -0.363716  -0.64099  0  2.280999  0
O  O86  1  0.62683174  0.12601571  0.81352890  1  0  -0.716023  0  1.992802  0  0  -0.657739  0  2.270268  0  0  -0.681376  0  2.254507  0  0  -0.363701  -0.640939  0  2.281003  0
O  O87  1  0.51957294  0.65306136  0.25046313  1  0  -0.663403  0  1.974826  0  0  -0.619485  0  2.228809  0  0  -0.640388  0  2.217356  0  0  -0.343385  -0.604775  0  2.236314  0
O  O88  1  0.48043006  0.34693685  0.74952637  1  0  -0.663236  0  1.974757  0  0  -0.619386  0  2.228737  0  0  -0.640291  0  2.21729  0  0  -0.343373  -0.604674  0  2.236246  0
O  O89  1  0.30135425  0.70378615  0.37585734  1  0  -0.665376  0  1.90815  0  0  -0.620915  0  2.149956  0  0  -0.641766  0  2.136418  0  0  -0.353317  -0.605856  0  2.158713  0
O  O90  1  0.69865270  0.29620041  0.62413567  1  0  -0.665388  0  1.908208  0  0  -0.620932  0  2.150009  0  0  -0.641785  0  2.136479  0  0  -0.353362  -0.605873  0  2.158767  0
O  O91  1  0.72695841  0.93750030  0.09234253  1  0  -0.539754  0  2.072915  0  0  -0.482794  0  2.337162  0  0  -0.507945  0  2.329568  0  0  -0.305579  -0.465426  0  2.341964  0
O  O92  1  0.27304544  0.06250107  0.90766028  1  0  -0.539694  0  2.073021  0  0  -0.482756  0  2.337307  0  0  -0.507911  0  2.329711  0  0  -0.30555  -0.465393  0  2.342113  0
