# generated using pymatgen
data_KH6C8O3F
_symmetry_space_group_name_H-M   'P 1'
_cell_length_a   6.59887802
_cell_length_b   6.90245505
_cell_length_c   18.48284133
_cell_angle_alpha   89.99976713
_cell_angle_beta   93.30260694
_cell_angle_gamma   89.99996880
_symmetry_Int_Tables_number   1
_chemical_formula_structural   KH6C8O3F
_chemical_formula_sum   'K4 H24 C32 O12 F4'
_cell_volume   840.46676706
_cell_formula_units_Z   4
loop_
 _symmetry_equiv_pos_site_id
 _symmetry_equiv_pos_as_xyz
  1  'x, y, z'
loop_
 _atom_site_type_symbol
 _atom_site_label
 _atom_site_symmetry_multiplicity
 _atom_site_fract_x
 _atom_site_fract_y
 _atom_site_fract_z
 _atom_site_occupancy
 _atom_site_hle17_bader_spin_density
 _atom_site_hle17_ddec_charge
 _atom_site_hle17_ddec_spin_density
 _atom_site_hle17_ddec_sum_bond_order
 _atom_site_hle17_magmom
 _atom_site_hse06_10hf_bader_spin_density
 _atom_site_hse06_10hf_ddec_charge
 _atom_site_hse06_10hf_ddec_spin_density
 _atom_site_hse06_10hf_ddec_sum_bond_order
 _atom_site_hse06_10hf_magmom
 _atom_site_hse06_bader_spin_density
 _atom_site_hse06_ddec_charge
 _atom_site_hse06_ddec_spin_density
 _atom_site_hse06_ddec_sum_bond_order
 _atom_site_hse06_magmom
 _atom_site_pbe_bader_spin_density
 _atom_site_pbe_cm5_charge
 _atom_site_pbe_ddec_charge
 _atom_site_pbe_ddec_spin_density
 _atom_site_pbe_ddec_sum_bond_order
 _atom_site_pbe_magmom
K  K0  1  0.75281306  0.51689033  0.43816524  1  0  0.928123  0  0.502407  0  0  0.877357  0  0.694931  0  0  0.892513  0  0.671608  0  0  0.831603  0.86595  0  0.711595  0
K  K1  1  0.74718457  0.01689220  0.56183655  1  0  0.928098  0  0.502443  0  0  0.877354  0  0.694941  0  0  0.892509  0  0.671616  0  0  0.83161  0.865945  0  0.711605  0
K  K2  1  0.24718954  0.48311485  0.56183440  1  0  0.928109  0  0.502428  0  0  0.87736  0  0.69492  0  0  0.892516  0  0.671598  0  0  0.831604  0.865953  0  0.711584  0
K  K3  1  0.25281349  0.98311008  0.43816354  1  0  0.928113  0  0.502427  0  0  0.877371  0  0.694916  0  0  0.892525  0  0.671593  0  0  0.831616  0.865962  0  0.71158  0
H  H4  1  0.33038099  0.33213728  0.18055027  1  0  0.101205  0  0.996838  0  0  0.10869  0  1.064298  0  0  0.110448  0  1.065895  0  0  0.099117  0.107385  0  1.063313  0
H  H5  1  0.16962066  0.83213712  0.81945003  1  0  0.101186  0  0.996846  0  0  0.108663  0  1.064322  0  0  0.110421  0  1.06592  0  0  0.099107  0.107362  0  1.063327  0
H  H6  1  0.66961707  0.66786500  0.81944927  1  0  0.101211  0  0.996834  0  0  0.108668  0  1.064312  0  0  0.110426  0  1.06591  0  0  0.099105  0.107358  0  1.063343  0
H  H7  1  0.83038195  0.16786227  0.18055068  1  0  0.101201  0  0.996857  0  0  0.108683  0  1.064317  0  0  0.110437  0  1.065924  0  0  0.099119  0.107373  0  1.063346  0
H  H8  1  0.46758768  0.33418645  0.05833820  1  0  0.131057  0  0.945427  0  0  0.133301  0  1.013664  0  0  0.137658  0  1.01013  0  0  0.106065  0.130162  0  1.016255  0
H  H9  1  0.03241702  0.83418504  0.94166270  1  0  0.131042  0  0.94538  0  0  0.133303  0  1.013598  0  0  0.137662  0  1.01006  0  0  0.106064  0.130164  0  1.016191  0
H  H10  1  0.53241038  0.66581438  0.94166135  1  0  0.131061  0  0.945476  0  0  0.133289  0  1.013729  0  0  0.137645  0  1.010197  0  0  0.106068  0.130151  0  1.016319  0
H  H11  1  0.96758560  0.16581580  0.05833801  1  0  0.131064  0  0.945389  0  0  0.133314  0  1.013619  0  0  0.137672  0  1.010082  0  0  0.106079  0.130175  0  1.01621  0
H  H12  1  0.98177236  0.66849447  0.13876813  1  0  0.119258  0  0.963997  0  0  0.127383  0  1.026907  0  0  0.129564  0  1.027425  0  0  0.104492  0.125758  0  1.026741  0
H  H13  1  0.51822819  0.16849032  0.86123294  1  0  0.119303  0  0.96396  0  0  0.127382  0  1.02692  0  0  0.129572  0  1.027427  0  0  0.104505  0.125757  0  1.026754  0
H  H14  1  0.01822722  0.33150491  0.86123144  1  0  0.119283  0  0.963999  0  0  0.127408  0  1.026907  0  0  0.12959  0  1.027424  0  0  0.104506  0.125783  0  1.026741  0
H  H15  1  0.48177139  0.83150617  0.13876772  1  0  0.11925  0  0.96402  0  0  0.127374  0  1.026932  0  0  0.129556  0  1.027449  0  0  0.104493  0.125749  0  1.026766  0
H  H16  1  0.84508141  0.66959779  0.26288833  1  0  0.116937  0  0.954091  0  0  0.125725  0  1.015255  0  0  0.130089  0  1.012425  0  0  0.112111  0.122535  0  1.017494  0
H  H17  1  0.65491761  0.16959781  0.73711270  1  0  0.116914  0  0.954112  0  0  0.125736  0  1.015241  0  0  0.130101  0  1.01241  0  0  0.11212  0.122546  0  1.01748  0
H  H18  1  0.15491816  0.33040305  0.73711124  1  0  0.117002  0  0.954042  0  0  0.125784  0  1.015199  0  0  0.130149  0  1.012368  0  0  0.112139  0.122595  0  1.017439  0
H  H19  1  0.34508197  0.83040158  0.26288795  1  0  0.116943  0  0.954087  0  0  0.12573  0  1.015252  0  0  0.130094  0  1.012422  0  0  0.112111  0.12254  0  1.017491  0
H  H20  1  0.34108299  0.26631798  0.30747504  1  0  0.082377  0  0.943492  0  0  0.089706  0  1.015733  0  0  0.091672  0  1.013739  0  0  0.10945  0.088312  0  1.017252  0
H  H21  1  0.15891567  0.76631920  0.69252368  1  0  0.082416  0  0.943489  0  0  0.089717  0  1.015731  0  0  0.091684  0  1.013737  0  0  0.109461  0.088323  0  1.017252  0
H  H22  1  0.65891658  0.73368286  0.69252453  1  0  0.082389  0  0.943504  0  0  0.089703  0  1.015739  0  0  0.091669  0  1.013745  0  0  0.10945  0.08831  0  1.017258  0
H  H23  1  0.84108542  0.23368019  0.30747593  1  0  0.082424  0  0.943475  0  0  0.089728  0  1.015713  0  0  0.091695  0  1.013719  0  0  0.10947  0.088334  0  1.017235  0
H  H24  1  0.20244675  0.47268825  0.27365203  1  0  0.082104  0  0.923401  0  0  0.095446  0  0.986976  0  0  0.095833  0  0.986875  0  0  0.109728  0.095134  0  0.987243  0
H  H25  1  0.29755021  0.97269193  0.72634472  1  0  0.082172  0  0.923403  0  0  0.095519  0  0.986928  0  0  0.095907  0  0.986829  0  0  0.109772  0.095208  0  0.987197  0
H  H26  1  0.79755281  0.52731114  0.72634701  1  0  0.082148  0  0.923383  0  0  0.095475  0  0.986948  0  0  0.095862  0  0.986847  0  0  0.109742  0.095165  0  0.987214  0
H  H27  1  0.70244785  0.02730746  0.27365482  1  0  0.08215  0  0.923409  0  0  0.095499  0  0.986938  0  0  0.095887  0  0.986839  0  0  0.109766  0.095188  0  0.987204  0
C  C28  1  0.57902663  0.50289069  0.22966124  1  0  0.244206  0  3.827958  0  0  0.236315  0  4.086865  0  0  0.245879  0  4.103703  0  0  0.074927  0.229701  0  4.075399  0
C  C29  1  0.92097253  0.00289021  0.77033897  1  0  0.244106  0  3.828069  0  0  0.236281  0  4.086897  0  0  0.245852  0  4.103734  0  0  0.074921  0.229666  0  4.075433  0
C  C30  1  0.42097143  0.49710870  0.77033830  1  0  0.244161  0  3.82804  0  0  0.236314  0  4.086875  0  0  0.24588  0  4.103712  0  0  0.074931  0.229698  0  4.07541  0
C  C31  1  0.07902706  0.99710773  0.22966169  1  0  0.244175  0  3.828043  0  0  0.23627  0  4.086973  0  0  0.245839  0  4.103811  0  0  0.07493  0.229656  0  4.075504  0
C  C32  1  0.47274340  0.40644563  0.17263830  1  0  -0.180266  0  3.76274  0  0  -0.197173  0  4.013296  0  0  -0.202227  0  4.035814  0  0  -0.108037  -0.193712  0  3.998208  0
C  C33  1  0.02725820  0.90644401  0.82736243  1  0  -0.180166  0  3.762779  0  0  -0.197095  0  4.013314  0  0  -0.202149  0  4.035831  0  0  -0.107985  -0.193634  0  3.99823  0
C  C34  1  0.52725618  0.59355665  0.82736128  1  0  -0.180145  0  3.762797  0  0  -0.197032  0  4.013321  0  0  -0.202086  0  4.035838  0  0  -0.107963  -0.193574  0  3.998234  0
C  C35  1  0.97274290  0.09355393  0.17263880  1  0  -0.180193  0  3.762847  0  0  -0.197104  0  4.013414  0  0  -0.202157  0  4.035928  0  0  -0.108004  -0.193644  0  3.998323  0
C  C36  1  0.54866484  0.40707765  0.10347728  1  0  -0.157028  0  3.755738  0  0  -0.184022  0  4.016436  0  0  -0.185994  0  4.034082  0  0  -0.099845  -0.182558  0  4.004608  0
C  C37  1  0.95133854  0.90707650  0.89652294  1  0  -0.157033  0  3.755828  0  0  -0.184042  0  4.016529  0  0  -0.186013  0  4.034176  0  0  -0.099897  -0.182577  0  4.004701  0
C  C38  1  0.45133321  0.59292319  0.89652226  1  0  -0.157111  0  3.755945  0  0  -0.184095  0  4.016642  0  0  -0.186067  0  4.034292  0  0  -0.099914  -0.18263  0  4.004814  0
C  C39  1  0.04866256  0.09292289  0.10347775  1  0  -0.157067  0  3.755861  0  0  -0.184064  0  4.016557  0  0  -0.186036  0  4.034206  0  0  -0.099915  -0.182599  0  4.004727  0
C  C40  1  0.72896259  0.50329704  0.09297297  1  0  0.284497  0  3.799791  0  0  0.271267  0  4.081286  0  0  0.279577  0  4.092608  0  0  0.084149  0.26524  0  4.073822  0
C  C41  1  0.77104113  0.00329516  0.90702841  1  0  0.284476  0  3.799793  0  0  0.271238  0  4.081293  0  0  0.279548  0  4.092619  0  0  0.084169  0.265213  0  4.073828  0
C  C42  1  0.27103699  0.49670234  0.90702660  1  0  0.284461  0  3.799832  0  0  0.27123  0  4.081326  0  0  0.279539  0  4.09265  0  0  0.084154  0.265203  0  4.073866  0
C  C43  1  0.22895997  0.99670423  0.09297281  1  0  0.284471  0  3.799835  0  0  0.27124  0  4.081335  0  0  0.279548  0  4.09266  0  0  0.08417  0.265213  0  4.073873  0
C  C44  1  0.83963963  0.59634331  0.14913339  1  0  -0.166782  0  3.783929  0  0  -0.190749  0  4.03965  0  0  -0.192606  0  4.058707  0  0  -0.101785  -0.189375  0  4.026938  0
C  C45  1  0.66036249  0.09634210  0.85086728  1  0  -0.166804  0  3.783916  0  0  -0.190731  0  4.039655  0  0  -0.192594  0  4.058708  0  0  -0.101799  -0.189356  0  4.026944  0
C  C46  1  0.16035994  0.40365607  0.85086619  1  0  -0.166845  0  3.783952  0  0  -0.19082  0  4.039674  0  0  -0.192675  0  4.05873  0  0  -0.101843  -0.189446  0  4.026967  0
C  C47  1  0.33963861  0.90365584  0.14913286  1  0  -0.166752  0  3.783929  0  0  -0.190721  0  4.039646  0  0  -0.192577  0  4.058703  0  0  -0.101776  -0.189346  0  4.026936  0
C  C48  1  0.76375355  0.59555194  0.21792719  1  0  -0.173883  0  3.751984  0  0  -0.194724  0  4.011627  0  0  -0.198421  0  4.028974  0  0  -0.103174  -0.192209  0  4.000053  0
C  C49  1  0.73624705  0.09554998  0.78207399  1  0  -0.173838  0  3.752081  0  0  -0.194733  0  4.011693  0  0  -0.198431  0  4.029046  0  0  -0.103182  -0.192218  0  4.00012  0
C  C50  1  0.23624602  0.40444890  0.78207238  1  0  -0.17393  0  3.752021  0  0  -0.19477  0  4.011631  0  0  -0.198467  0  4.028979  0  0  -0.103175  -0.192256  0  4.000062  0
C  C51  1  0.26375253  0.90444941  0.21792721  1  0  -0.173893  0  3.751998  0  0  -0.194728  0  4.011641  0  0  -0.198421  0  4.028984  0  0  -0.103177  -0.192213  0  4.000069  0
C  C52  1  0.32503634  0.42415165  0.31270271  1  0  -0.060708  0  3.612606  0  0  -0.118525  0  3.878054  0  0  -0.113773  0  3.876988  0  0  -0.068722  -0.121928  0  3.878986  0
C  C53  1  0.17495915  0.92415292  0.68729571  1  0  -0.060926  0  3.612828  0  0  -0.118648  0  3.878149  0  0  -0.113901  0  3.877101  0  0  -0.068785  -0.122058  0  3.879091  0
C  C54  1  0.67496171  0.57584773  0.68729684  1  0  -0.060808  0  3.612762  0  0  -0.118563  0  3.878119  0  0  -0.113812  0  3.877061  0  0  -0.068749  -0.12197  0  3.879055  0
C  C55  1  0.82504043  0.07584502  0.31270441  1  0  -0.060896  0  3.612783  0  0  -0.118627  0  3.878101  0  0  -0.113877  0  3.877054  0  0  -0.068776  -0.122035  0  3.879037  0
C  C56  1  0.26191834  0.47279627  0.38900799  1  0  0.67788  0  3.955436  0  0  0.635128  0  4.259338  0  0  0.667521  0  4.249718  0  0  0.174291  0.61309  0  4.265183  0
C  C57  1  0.23808319  0.97279398  0.61099048  1  0  0.677885  0  3.955395  0  0  0.635105  0  4.259307  0  0  0.6675  0  4.249686  0  0  0.174261  0.613067  0  4.265151  0
C  C58  1  0.73808427  0.52720312  0.61099165  1  0  0.677885  0  3.955427  0  0  0.635141  0  4.259299  0  0  0.667535  0  4.249676  0  0  0.174299  0.613103  0  4.265145  0
C  C59  1  0.76191639  0.02720686  0.38900964  1  0  0.677977  0  3.955214  0  0  0.635226  0  4.259075  0  0  0.667616  0  4.249462  0  0  0.17434  0.61319  0  4.264917  0
O  O60  1  0.51269309  0.51786327  0.29867709  1  0  -0.300746  0  2.37946  0  0  -0.233196  0  2.621126  0  0  -0.249529  0  2.622361  0  0  -0.215079  -0.221661  0  2.620018  0
O  O61  1  0.98730454  0.01786640  0.70132307  1  0  -0.300627  0  2.379601  0  0  -0.233128  0  2.621225  0  0  -0.249474  0  2.622472  0  0  -0.215046  -0.221589  0  2.620118  0
O  O62  1  0.48730649  0.48213612  0.70132248  1  0  -0.30068  0  2.379526  0  0  -0.233164  0  2.621162  0  0  -0.249503  0  2.622402  0  0  -0.215046  -0.221623  0  2.620053  0
O  O63  1  0.01269656  0.98213154  0.29867762  1  0  -0.300664  0  2.37964  0  0  -0.233144  0  2.621296  0  0  -0.24949  0  2.622543  0  0  -0.215069  -0.221607  0  2.620187  0
O  O64  1  0.35104290  0.60918376  0.42382751  1  0  -0.756322  0  1.966475  0  0  -0.711267  0  2.207156  0  0  -0.733663  0  2.194642  0  0  -0.52059  -0.695431  0  2.215283  0
O  O65  1  0.14894829  0.10918408  0.57617022  1  0  -0.756335  0  1.96633  0  0  -0.711289  0  2.207032  0  0  -0.733684  0  2.194515  0  0  -0.520607  -0.695451  0  2.215158  0
O  O66  1  0.64895666  0.39081997  0.57617098  1  0  -0.756319  0  1.966472  0  0  -0.711276  0  2.20716  0  0  -0.733671  0  2.194642  0  0  -0.520573  -0.695439  0  2.215288  0
O  O67  1  0.85104977  0.89081676  0.42383041  1  0  -0.75641  0  1.966217  0  0  -0.711371  0  2.206916  0  0  -0.733764  0  2.194399  0  0  -0.520652  -0.695534  0  2.215043  0
O  O68  1  0.11879807  0.36908236  0.41113020  1  0  -0.754381  0  1.928721  0  0  -0.708658  0  2.167215  0  0  -0.733373  0  2.156951  0  0  -0.484181  -0.691126  0  2.173684  0
O  O69  1  0.38120051  0.86908604  0.58886891  1  0  -0.754318  0  1.928799  0  0  -0.708606  0  2.167313  0  0  -0.733319  0  2.157047  0  0  -0.484129  -0.691074  0  2.17378  0
O  O70  1  0.88120454  0.63091992  0.58886998  1  0  -0.754383  0  1.928698  0  0  -0.708674  0  2.167198  0  0  -0.73339  0  2.156932  0  0  -0.484204  -0.691142  0  2.173667  0
O  O71  1  0.61880058  0.13091770  0.41113070  1  0  -0.754354  0  1.928812  0  0  -0.708655  0  2.167315  0  0  -0.733366  0  2.157052  0  0  -0.48416  -0.691122  0  2.173783  0
F  F72  1  0.80200341  0.50550096  0.02511058  1  0  -0.217527  0  1.200699  0  0  -0.162008  0  1.354677  0  0  -0.171171  0  1.345103  0  0  -0.10453  -0.155271  0  1.361177  0
F  F73  1  0.69800030  0.00549548  0.97489026  1  0  -0.217546  0  1.200644  0  0  -0.162022  0  1.354624  0  0  -0.171185  0  1.345052  0  0  -0.104559  -0.155286  0  1.361124  0
F  F74  1  0.19799465  0.49449843  0.97488896  1  0  -0.217494  0  1.200708  0  0  -0.161976  0  1.35469  0  0  -0.171139  0  1.345117  0  0  -0.104526  -0.155239  0  1.36119  0
F  F75  1  0.30200079  0.99450246  0.02510989  1  0  -0.217538  0  1.200699  0  0  -0.162022  0  1.354677  0  0  -0.171183  0  1.345105  0  0  -0.10456  -0.155285  0  1.361178  0
