# generated using pymatgen
data_NiH10(C3O4)2
_symmetry_space_group_name_H-M   'P 1'
_cell_length_a   6.42059945
_cell_length_b   10.69063411
_cell_length_c   10.69250101
_cell_angle_alpha   75.20881146
_cell_angle_beta   73.34796121
_cell_angle_gamma   73.25336189
_symmetry_Int_Tables_number   1
_chemical_formula_structural   NiH10(C3O4)2
_chemical_formula_sum   'Ni3 H30 C18 O24'
_cell_volume   661.29331083
_cell_formula_units_Z   3
loop_
 _symmetry_equiv_pos_site_id
 _symmetry_equiv_pos_as_xyz
  1  'x, y, z'
loop_
 _atom_site_type_symbol
 _atom_site_label
 _atom_site_symmetry_multiplicity
 _atom_site_fract_x
 _atom_site_fract_y
 _atom_site_fract_z
 _atom_site_occupancy
 _atom_site_hle17_ddec_charge
 _atom_site_hle17_ddec_spin_density
 _atom_site_hle17_ddec_sum_bond_order
 _atom_site_hle17_magmom
 _atom_site_hse06_10hf_ddec_charge
 _atom_site_hse06_10hf_ddec_spin_density
 _atom_site_hse06_10hf_ddec_sum_bond_order
 _atom_site_hse06_10hf_magmom
 _atom_site_hse06_ddec_charge
 _atom_site_hse06_ddec_spin_density
 _atom_site_hse06_ddec_sum_bond_order
 _atom_site_hse06_magmom
 _atom_site_pbe_cm5_charge
 _atom_site_pbe_ddec_charge
 _atom_site_pbe_ddec_spin_density
 _atom_site_pbe_ddec_sum_bond_order
 _atom_site_pbe_magmom
Ni  Ni0  1  0.22656722  0.03911288  0.44181248  1  1.049261  1.868577  1.771941  1.562  1.064281  1.897567  2.152221  1.681  1.140733  1.946691  2.089705  1.755  0.620389  0.999108  1.849053  2.206853  1.615
Ni  Ni1  1  0.77310415  0.55832633  0.96075818  1  1.04905  -1.810046  1.769534  -1.562  1.064011  -1.861214  2.150187  -1.681  1.14051  -1.907468  2.08781  -1.755  0.619498  0.999579  -1.817405  2.203586  -1.616
Ni  Ni2  1  0.99971715  0.58908798  0.41048338  1  1.091987  -1.82787  1.729665  -1.582  1.093917  -1.873324  2.119592  -1.697  1.171145  -1.915929  2.054001  -1.768  0.632794  1.028903  -1.831952  2.174466  -1.634
H  H3  1  0.49909402  0.92550055  0.07599712  1  0.118833  8e-06  0.938068  0.0  0.126303  1e-05  0.998029  0.0  0.130832  8e-06  0.99389  0.0  0.112863  0.122862  1.4e-05  1.001243  0.0
H  H4  1  0.29567740  0.34337943  0.92405702  1  0.108343  9e-06  0.967187  0.0  0.115778  3.9e-05  1.03619  0.0  0.119543  4.6e-05  1.032253  0.0  0.111129  0.112811  2.7e-05  1.039443  0.0
H  H5  1  0.70325117  0.07694652  0.65865351  1  0.107121  -2e-05  0.967325  0.0  0.11398  -3.5e-05  1.037023  0.0  0.117797  -4.4e-05  1.033114  0.0  0.110992  0.110993  -1.9e-05  1.040227  0.0
H  H6  1  0.00196850  0.19144775  0.80676651  1  0.113397  -1.1e-05  0.930753  0.0  0.119738  1e-05  0.993955  0.0  0.123969  6e-06  0.990124  0.0  0.10874  0.11657  1.2e-05  0.996925  0.0
H  H7  1  0.20823371  0.77333609  0.96168953  1  0.113511  -0.000227  0.964677  0.0  0.121159  -0.000171  1.031386  0.0  0.125012  -9.4e-05  1.027737  0.0  0.11315  0.118112  -0.000251  1.034421  0.0
H  H8  1  0.79237866  0.03813217  0.22444011  1  0.112098  -0.000183  0.965021  0.0  0.119124  -0.000184  1.032572  0.0  0.122977  -0.000138  1.028889  0.0  0.112601  0.11609  -0.000229  1.035601  0.0
H  H9  1  0.02731960  0.25013648  0.32308338  1  0.422485  -0.000249  0.886876  -0.001  0.386954  4e-05  0.959742  0.0  0.400172  -6e-05  0.940992  0.0  0.295841  0.377562  0.000144  0.973026  0.0
H  H10  1  0.97113694  0.67893682  0.75076891  1  0.421209  0.000281  0.889575  0.001  0.384647  -1.7e-05  0.963535  0.0  0.397904  8.2e-05  0.944752  0.0  0.294823  0.375229  -0.000121  0.976848  0.0
H  H11  1  0.54454096  0.18509035  0.30554889  1  0.43523  0.000366  0.860759  0.001  0.405563  0.000519  0.923087  0.001  0.417309  0.000366  0.906021  0.001  0.297449  0.396934  0.000645  0.935588  0.001
H  H12  1  0.45651362  0.69391616  0.81426042  1  0.435252  -0.000383  0.861391  0.0  0.405212  -0.000579  0.924188  -0.001  0.417024  -0.000408  0.907047  -0.001  0.297126  0.396538  -0.000731  0.936734  -0.001
H  H13  1  0.91558462  0.90687819  0.58353500  1  0.431989  0.00016  0.869811  0.0  0.400506  0.000398  0.934388  0.0  0.412269  0.000242  0.917459  0.0  0.294949  0.391976  0.000542  0.946613  0.0
H  H14  1  0.08225383  0.41649764  0.09417326  1  0.432754  -0.000127  0.869238  0.0  0.40164  -0.000366  0.933335  0.0  0.413451  -0.000217  0.916334  0.0  0.29574  0.393075  -0.000505  0.945606  -0.001
H  H15  1  0.58227505  0.83531302  0.40981244  1  0.440103  7.4e-05  0.844723  -0.001  0.412861  0.000341  0.903224  0.0  0.423412  0.000235  0.888122  0.0  0.306455  0.405126  0.000425  0.914238  0.0
H  H16  1  0.41680885  0.58794403  0.16409890  1  0.439485  0.000166  0.845494  0.001  0.412745  -0.000174  0.902903  0.0  0.423263  -2.2e-05  0.887875  0.0  0.307325  0.405031  -0.000338  0.913874  0.0
H  H17  1  0.31187172  0.57705202  0.54274949  1  0.413309  -0.000644  0.878572  -0.001  0.385362  -0.00068  0.947115  -0.001  0.396574  -0.000475  0.930524  -0.001  0.296403  0.377049  -0.000876  0.959451  -0.001
H  H18  1  0.68720362  0.45652299  0.42397855  1  0.411272  -0.000506  0.880989  -0.001  0.383237  -0.000503  0.950331  -0.001  0.394517  -0.000341  0.933678  -0.001  0.295135  0.374911  -0.000645  0.962643  -0.001
H  H19  1  0.32819819  0.38094904  0.46803084  1  0.416173  -0.000588  0.883336  -0.001  0.389459  -0.000792  0.942404  -0.001  0.40027  -0.000588  0.926823  -0.001  0.295067  0.381372  -0.000963  0.95406  -0.001
H  H20  1  0.67291806  0.53305432  0.61921517  1  0.419428  -0.000514  0.881459  -0.001  0.392921  -0.0007  0.938433  -0.001  0.403697  -0.000515  0.922873  -0.001  0.297086  0.384843  -0.000862  0.950114  -0.001
H  H21  1  0.29804059  0.72241422  0.45716102  1  0.443104  -0.001155  0.846991  -0.003  0.419362  -0.001003  0.897707  -0.003  0.430985  -0.000816  0.880799  -0.002  0.298094  0.410612  -0.001169  0.91045  -0.003
H  H22  1  0.70093497  0.54112113  0.27811843  1  0.443299  -0.001214  0.846388  -0.003  0.419758  -0.001099  0.897004  -0.003  0.431408  -0.000829  0.880032  -0.002  0.298454  0.411021  -0.001343  0.90973  -0.003
H  H23  1  0.13464971  0.33249522  0.43471800  1  0.438836  1.9e-05  0.86589  0.001  0.410218  -0.000148  0.925645  0.0  0.422438  -7.1e-05  0.908001  0.0  0.294822  0.401272  -0.000217  0.938512  0.0
H  H24  1  0.86683554  0.56703574  0.66673903  1  0.43886  0.000191  0.866034  0.001  0.410535  -5e-05  0.92526  0.0  0.422768  7.8e-05  0.907599  0.0  0.295043  0.401569  -0.000174  0.938151  0.0
H  H25  1  0.52959433  0.16176699  0.46074676  1  0.425524  0.000257  0.8426  0.0  0.401127  0.000445  0.911911  0.001  0.411005  0.00028  0.897667  0.0  0.30747  0.393818  0.000595  0.920291  0.001
H  H26  1  0.47442670  0.53840590  0.83639995  1  0.423954  -0.000292  0.846402  0.0  0.39934  -0.000537  0.915782  -0.001  0.409281  -0.000351  0.901214  0.0  0.306173  0.391952  -0.000716  0.924516  -0.001
H  H27  1  0.92695562  0.90974329  0.43118514  1  0.430108  0.000376  0.85146  0.0  0.406559  0.000586  0.909393  0.001  0.416542  0.00043  0.895148  0.0  0.303108  0.399215  0.000728  0.919846  0.001
H  H28  1  0.06999451  0.56895633  0.09163428  1  0.430453  -0.000359  0.854801  0.0  0.407037  -0.000579  0.910188  -0.001  0.417039  -0.000358  0.895898  0.0  0.303018  0.399671  -0.000787  0.920701  -0.001
H  H29  1  0.85365914  0.23619916  0.47302509  1  0.43256  0.000226  0.8524  0.0  0.404623  0.000499  0.916903  0.001  0.415118  0.000339  0.901789  0.0  0.30597  0.396864  0.000631  0.928073  0.001
H  H30  1  0.14660754  0.52933350  0.76455958  1  0.433114  -0.000182  0.851782  0.0  0.405222  -0.000464  0.915861  -0.001  0.415693  -0.000307  0.900798  0.0  0.306914  0.397503  -0.000605  0.926958  -0.001
H  H31  1  0.43004852  0.83144497  0.56081559  1  0.421303  -0.000342  0.88316  -0.001  0.385155  -1.8e-05  0.95761  0.0  0.39807  -0.00011  0.939128  0.0  0.290701  0.37595  7.8e-05  0.970725  0.0
H  H32  1  0.57148041  0.43733838  0.16703385  1  0.421086  0.000399  0.883719  0.001  0.386009  2.7e-05  0.956461  0.0  0.398909  0.000124  0.938002  0.0  0.290673  0.376811  -8.5e-05  0.969564  0.0
C  C33  1  0.25722343  0.15041427  0.15370228  1  0.662996  -0.002189  3.854246  -0.005  0.610941  0.000204  4.158053  -0.001  0.648074  0.000251  4.151025  0.0  0.220191  0.585145  0.000142  4.161502  -0.001
C  C34  1  0.74081462  0.84753635  0.85075015  1  0.662926  0.002393  3.858037  0.005  0.611177  -0.000124  4.16095  0.001  0.648196  -0.00019  4.154093  0.0  0.220099  0.585457  -5.7e-05  4.164357  0.001
C  C35  1  0.38197026  0.13596920  0.01467869  1  -0.088371  0.004703  3.770816  0.006  -0.061114  0.002611  4.005713  0.003  -0.073932  0.001856  4.030021  0.002  -0.016591  -0.052977  0.003302  3.989782  0.004
C  C36  1  0.61631557  0.98657665  0.86562152  1  -0.09003  -0.004612  3.771119  -0.006  -0.062595  -0.002553  4.005378  -0.003  -0.075404  -0.001802  4.029751  -0.002  -0.018206  -0.054492  -0.00324  3.989462  -0.004
C  C37  1  0.49920693  0.00865426  0.99273143  1  -0.033443  7.4e-05  3.691635  0.0  -0.067974  2.5e-05  3.93112  0.0  -0.061772  1.5e-05  3.948291  0.0  -0.062607  -0.071841  4.3e-05  3.919832  0.0
C  C38  1  0.38467462  0.24347149  0.90794740  1  -0.024238  0.000686  3.640775  0.001  -0.068911  0.000517  3.897944  0.001  -0.061761  0.000355  3.91363  0.0  -0.062802  -0.073552  0.00049  3.887675  0.001
C  C39  1  0.61401485  0.09338097  0.75829036  1  -0.02688  -0.000535  3.644376  -0.001  -0.071462  -0.000492  3.902173  -0.001  -0.064458  -0.00034  3.91789  0.0  -0.065378  -0.075954  -0.000478  3.891843  -0.001
C  C40  1  0.49958120  0.22231940  0.77922957  1  -0.09416  -5.6e-05  3.743257  0.0  -0.07068  8e-06  3.994415  0.0  -0.083313  1.6e-05  4.018083  0.0  -0.023291  -0.062612  -2e-06  3.97858  0.0
C  C41  1  0.50031653  0.33651959  0.66478741  1  0.676808  0.000161  3.838757  0.0  0.620855  -2.3e-05  4.131593  0.0  0.654958  2e-06  4.124656  0.0  0.228267  0.597773  -4e-05  4.135679  0.0
C  C42  1  0.23011519  0.95441544  0.73035977  1  0.665573  -0.00226  3.865269  -0.005  0.612974  0.000199  4.174221  -0.001  0.650021  0.000194  4.167368  -0.001  0.216213  0.58744  0.000229  4.177199  -0.001
C  C43  1  0.77215742  0.26879120  0.04371800  1  0.663819  0.002419  3.869192  0.005  0.61293  -0.000149  4.176376  0.001  0.649846  -0.000144  4.169649  0.001  0.216528  0.587473  -0.000197  4.179324  0.001
C  C44  1  0.11655068  0.97970471  0.86844656  1  -0.090528  0.004503  3.755773  0.006  -0.062209  0.002581  3.990592  0.003  -0.075169  0.00178  4.015031  0.002  -0.016948  -0.053877  0.003267  3.974363  0.004
C  C45  1  0.88597010  0.13064651  0.01840292  1  -0.091489  -0.005637  3.756375  -0.007  -0.064838  -0.002962  3.99255  -0.004  -0.077775  -0.002106  4.016992  -0.003  -0.017118  -0.056493  -0.003769  3.976232  -0.005
C  C46  1  0.00151201  0.10823954  0.89029147  1  -0.029441  0.001189  3.65687  0.001  -0.065569  0.000486  3.900955  0.001  -0.059185  0.000371  3.91833  0.0  -0.062163  -0.069668  0.000693  3.889485  0.001
C  C47  1  0.11827745  0.87354378  0.97614413  1  -0.028294  0.001232  3.651406  0.001  -0.073278  0.000458  3.905711  0.001  -0.066453  0.00035  3.921432  0.0  -0.064778  -0.077698  0.000437  3.895421  0.001
C  C48  1  0.88302703  0.02306879  0.12463219  1  -0.028639  -0.00016  3.651439  0.0  -0.072601  -0.000645  3.905914  -0.001  -0.065757  -0.000389  3.921564  0.0  -0.066696  -0.077008  -0.000673  3.895648  -0.001
C  C49  1  0.00028356  0.89516053  0.10364905  1  -0.078495  -0.002408  3.771018  -0.003  -0.052108  -0.001186  4.012654  -0.001  -0.064224  -0.000782  4.034246  -0.001  -0.018451  -0.044552  -0.001621  3.998852  -0.002
C  C50  1  0.99941077  0.78263244  0.21655015  1  0.661887  0.004751  3.826785  0.009  0.613117  0.001036  4.119291  0.004  0.649825  0.000844  4.114622  0.003  0.222897  0.587141  0.001315  4.121603  0.004
O  O51  1  0.28715609  0.04643082  0.24286779  1  -0.606373  0.049569  2.050313  0.078  -0.580327  0.029684  2.322858  0.048  -0.616578  0.022544  2.31368  0.037  -0.312977  -0.552249  0.03579  2.328078  0.057
O  O52  1  0.71076465  0.75786372  0.95416154  1  -0.606617  -0.047763  2.048976  -0.078  -0.580576  -0.028988  2.320607  -0.048  -0.616776  -0.02195  2.311518  -0.037  -0.312185  -0.552614  -0.035073  2.325691  -0.057
O  O53  1  0.12708276  0.26216454  0.17601139  1  -0.618552  -0.000917  2.05156  -0.001  -0.550717  -0.00063  2.265473  -0.001  -0.578015  -0.000557  2.25503  -0.001  -0.300356  -0.531718  -0.00068  2.272531  -0.001
O  O54  1  0.87094591  0.82575000  0.73894671  1  -0.619717  0.00095  2.052987  0.001  -0.551173  0.000661  2.266972  0.001  -0.578322  0.000594  2.256376  0.001  -0.301386  -0.532358  0.000706  2.274226  0.001
O  O55  1  0.01159520  0.22793294  0.42499821  1  -0.8244  0.039824  2.038608  0.061  -0.779844  0.028881  2.253719  0.044  -0.810294  0.022924  2.218407  0.036  -0.557272  -0.755897  0.034026  2.278721  0.051
O  O56  1  0.98842376  0.57677201  0.77220042  1  -0.82385  -0.038696  2.03744  -0.061  -0.77894  -0.02833  2.252759  -0.045  -0.809361  -0.022297  2.217362  -0.036  -0.557283  -0.755117  -0.033715  2.27766  -0.052
O  O57  1  0.50958100  0.12343484  0.39237317  1  -0.815638  0.032314  1.929599  0.05  -0.78568  0.024457  2.144047  0.038  -0.810541  0.019415  2.108889  0.03  -0.571149  -0.765569  0.02902  2.167631  0.044
O  O58  1  0.49187199  0.60684812  0.87581378  1  -0.81598  -0.032972  1.932188  -0.052  -0.786332  -0.025317  2.148093  -0.039  -0.811389  -0.019889  2.112591  -0.032  -0.572097  -0.766204  -0.030295  2.171966  -0.046
O  O59  1  0.94309384  0.96060547  0.49123401  1  -0.817582  0.040659  1.922476  0.062  -0.790858  0.028565  2.133306  0.044  -0.818209  0.022258  2.098335  0.035  -0.573076  -0.768697  0.034271  2.158429  0.052
O  O60  1  0.05450745  0.50894473  0.04045906  1  -0.82091  -0.039337  1.926023  -0.063  -0.794977  -0.027934  2.135025  -0.044  -0.822323  -0.021703  2.099956  -0.035  -0.576032  -0.773044  -0.033636  2.160235  -0.052
O  O61  1  0.42710510  0.84281805  0.46333408  1  -0.815217  0.038392  1.96015  0.059  -0.774032  0.027391  2.158005  0.042  -0.803642  0.021704  2.121834  0.034  -0.549371  -0.75043  0.032223  2.183873  0.049
O  O62  1  0.57246952  0.53509877  0.15670234  1  -0.816348  -0.040538  1.957972  -0.065  -0.775839  -0.028918  2.154981  -0.046  -0.805454  -0.022418  2.118878  -0.036  -0.551548  -0.752401  -0.034802  2.180712  -0.054
O  O63  1  0.17903893  0.04901718  0.63601286  1  -0.612571  0.052614  2.050104  0.083  -0.588858  0.030908  2.328077  0.05  -0.626069  0.023331  2.319314  0.039  -0.317172  -0.560027  0.037346  2.332578  0.06
O  O64  1  0.82294498  0.36348314  0.94963517  1  -0.613355  -0.050973  2.048617  -0.084  -0.589812  -0.030294  2.32512  -0.051  -0.626936  -0.022778  2.316407  -0.039  -0.318031  -0.561167  -0.03677  2.329563  -0.06
O  O65  1  0.36524669  0.84248364  0.71429031  1  -0.630871  -0.000895  2.002777  -0.001  -0.567843  -0.000664  2.22025  -0.001  -0.594586  -0.000594  2.209107  -0.001  -0.308096  -0.549026  -0.000748  2.227644  -0.001
O  O66  1  0.63678308  0.28447786  0.15554078  1  -0.630342  0.000843  2.002662  0.001  -0.568786  0.000629  2.219911  0.001  -0.595463  0.000579  2.208799  0.001  -0.308587  -0.549993  0.000658  2.227246  0.001
O  O67  1  0.11921628  0.66563318  0.20155935  1  -0.628631  -0.046134  2.029531  -0.074  -0.584101  -0.027981  2.268875  -0.045  -0.619989  -0.020554  2.259347  -0.034  -0.292513  -0.556671  -0.03496  2.274761  -0.055
O  O68  1  0.87910267  0.79842890  0.33307140  1  -0.630629  -0.04573  2.027566  -0.073  -0.586205  -0.027518  2.267259  -0.045  -0.622164  -0.020246  2.257811  -0.034  -0.293398  -0.558823  -0.034413  2.273173  -0.055
O  O69  1  0.23628283  0.64211581  0.47666522  1  -0.842137  -0.027262  1.92179  -0.043  -0.805631  -0.022406  2.126394  -0.035  -0.830534  -0.017888  2.088922  -0.028  -0.586784  -0.786139  -0.026416  2.154188  -0.04
O  O70  1  0.76325584  0.52191739  0.35820516  1  -0.840735  -0.026383  1.920886  -0.043  -0.804227  -0.021386  2.125233  -0.034  -0.829107  -0.017157  2.087588  -0.028  -0.586489  -0.784828  -0.025112  2.153175  -0.039
O  O71  1  0.20913437  0.40809582  0.41885246  1  -0.833481  -0.043053  1.954833  -0.069  -0.804677  -0.028986  2.167776  -0.046  -0.8334  -0.022558  2.129659  -0.036  -0.586809  -0.782149  -0.034474  2.195547  -0.053
O  O72  1  0.79187127  0.58224873  0.59139840  1  -0.836421  -0.042905  1.955753  -0.069  -0.808044  -0.028445  2.167117  -0.046  -0.836784  -0.022105  2.129102  -0.036  -0.588253  -0.785506  -0.033877  2.194811  -0.053
O  O73  1  0.43378167  0.45605153  0.68702700  1  -0.676356  -0.001386  2.00576  -0.002  -0.6019  -0.000935  2.211741  -0.001  -0.627844  -0.000586  2.199567  -0.001  -0.311781  -0.584073  -0.001335  2.22052  -0.002
O  O74  1  0.56749769  0.31362571  0.54555416  1  -0.677782  -0.000676  2.004178  -0.001  -0.603616  -0.000278  2.210745  -0.001  -0.62957  -0.000137  2.198551  0.0  -0.312515  -0.585936  -0.000476  2.219675  -0.001
