# generated using pymatgen
data_SmH10C14NO7
_symmetry_space_group_name_H-M   'P 1'
_cell_length_a   9.34596635
_cell_length_b   10.48079678
_cell_length_c   14.35339409
_cell_angle_alpha   90.00019405
_cell_angle_beta   89.99967348
_cell_angle_gamma   96.30017094
_symmetry_Int_Tables_number   1
_chemical_formula_structural   SmH10C14NO7
_chemical_formula_sum   'Sm4 H40 C56 N4 O28'
_cell_volume   1397.46939005
_cell_formula_units_Z   4
loop_
 _symmetry_equiv_pos_site_id
 _symmetry_equiv_pos_as_xyz
  1  'x, y, z'
loop_
 _atom_site_type_symbol
 _atom_site_label
 _atom_site_symmetry_multiplicity
 _atom_site_fract_x
 _atom_site_fract_y
 _atom_site_fract_z
 _atom_site_occupancy
 _atom_site_pbe_bader_spin_density
 _atom_site_pbe_cm5_charge
 _atom_site_pbe_ddec_charge
 _atom_site_pbe_ddec_spin_density
 _atom_site_pbe_ddec_sum_bond_order
 _atom_site_pbe_magmom
Sm  Sm0  1  0.87098168  0.52829721  0.86823967  1  0  1.50022  2.096356  0  2.151076  0
Sm  Sm1  1  0.12901745  0.97170382  0.36823930  1  0  1.500174  2.096389  0  2.151057  0
Sm  Sm2  1  0.12901835  0.47170299  0.13176082  1  0  1.500212  2.096293  0  2.151079  0
Sm  Sm3  1  0.87098129  0.02829446  0.63176048  1  0  1.500236  2.096386  0  2.150911  0
H  H4  1  0.44692970  0.22563044  0.66416849  1  0  0.115433  0.126046  0  0.994131  0
H  H5  1  0.55307147  0.27436427  0.16416606  1  0  0.115413  0.12601  0  0.994189  0
H  H6  1  0.55306571  0.77436687  0.33583339  1  0  0.115406  0.126011  0  0.994158  0
H  H7  1  0.44693177  0.72563595  0.83583652  1  0  0.115421  0.126049  0  0.994107  0
H  H8  1  0.22439570  0.29745240  0.73916868  1  0  0.121467  0.12539  0  0.995912  0
H  H9  1  0.77560705  0.20255220  0.23916802  1  0  0.121436  0.12537  0  0.995926  0
H  H10  1  0.77560337  0.70254876  0.26083320  1  0  0.121466  0.125417  0  0.995912  0
H  H11  1  0.22439478  0.79744514  0.76083316  1  0  0.121443  0.125388  0  0.995868  0
H  H12  1  0.50663892  0.53020193  0.92499557  1  0  0.125566  0.09009  0  1.01147  0
H  H13  1  0.49336662  0.96980319  0.42499593  1  0  0.125589  0.090102  0  1.011435  0
H  H14  1  0.49336309  0.46980596  0.07499935  1  0  0.125601  0.090138  0  1.01147  0
H  H15  1  0.50663770  0.03019704  0.57500386  1  0  0.12557  0.090063  0  1.011482  0
H  H16  1  0.67506995  0.13745755  0.89818786  1  0  0.103171  0.104628  0  1.014881  0
H  H17  1  0.32492890  0.36254380  0.39819277  1  0  0.10315  0.10458  0  1.01498  0
H  H18  1  0.32492445  0.86254934  0.10181401  1  0  0.103161  0.104569  0  1.015063  0
H  H19  1  0.67506966  0.63744393  0.60181468  1  0  0.103213  0.104651  0  1.014927  0
H  H20  1  0.55302696  0.91687366  0.92235547  1  0  0.095087  0.087742  0  1.046573  0
H  H21  1  0.44697578  0.58312568  0.42235853  1  0  0.095113  0.087746  0  1.04658  0
H  H22  1  0.44696423  0.08313323  0.07764571  1  0  0.09513  0.087822  0  1.046526  0
H  H23  1  0.55303540  0.41686018  0.57764265  1  0  0.095141  0.087809  0  1.046472  0
H  H24  1  0.62970350  0.78195923  0.05075783  1  0  0.097004  0.089676  0  1.029927  0
H  H25  1  0.37030118  0.71804732  0.55075983  1  0  0.097015  0.089654  0  1.029866  0
H  H26  1  0.37029355  0.21804288  0.94923918  1  0  0.096999  0.089662  0  1.02998  0
H  H27  1  0.62971446  0.28194911  0.44923787  1  0  0.097069  0.089713  0  1.029844  0
H  H28  1  0.82453472  0.87110993  0.15952000  1  0  0.097463  0.097424  0  1.063487  0
H  H29  1  0.17546608  0.62889894  0.65952112  1  0  0.097448  0.097405  0  1.063474  0
H  H30  1  0.17546914  0.12888645  0.84047561  1  0  0.097433  0.097379  0  1.063525  0
H  H31  1  0.82453926  0.37110992  0.34047519  1  0  0.097444  0.097384  0  1.063434  0
H  H32  1  0.94838965  0.08998900  0.13387748  1  0  0.108167  0.115192  0  1.027696  0
H  H33  1  0.05160739  0.41002284  0.63387975  1  0  0.108175  0.11517  0  1.027846  0
H  H34  1  0.05161326  0.91000834  0.86611813  1  0  0.10816  0.115176  0  1.027659  0
H  H35  1  0.94839282  0.58998792  0.36612352  1  0  0.10817  0.115219  0  1.027728  0
H  H36  1  0.94521092  0.74913077  0.74207522  1  0  0.30899  0.399746  0  0.937505  0
H  H37  1  0.05478440  0.75086497  0.24207807  1  0  0.309027  0.399795  0  0.937445  0
H  H38  1  0.05478996  0.25086752  0.25792039  1  0  0.309024  0.399795  0  0.937441  0
H  H39  1  0.94521174  0.24912946  0.75792311  1  0  0.309047  0.399807  0  0.937422  0
H  H40  1  0.93305332  0.63726391  0.67000643  1  0  0.323179  0.40646  0  0.895057  0
H  H41  1  0.06693904  0.86272866  0.17000882  1  0  0.323168  0.406441  0  0.895214  0
H  H42  1  0.06693938  0.36272859  0.32999266  1  0  0.323186  0.406444  0  0.89518  0
H  H43  1  0.93305744  0.13726865  0.82999376  1  0  0.323199  0.406451  0  0.89511  0
C  C44  1  0.58960312  0.34534298  0.75332498  1  0  0.120919  0.10931  0  3.975294  0
C  C45  1  0.41039873  0.15465495  0.25332627  1  0  0.12092  0.109285  0  3.975263  0
C  C46  1  0.41039584  0.65465722  0.24667271  1  0  0.120939  0.109288  0  3.975333  0
C  C47  1  0.58960367  0.84534718  0.74667700  1  0  0.120928  0.109309  0  3.975203  0
C  C48  1  0.45416948  0.29413787  0.72143167  1  0  -0.068572  -0.120126  0  3.917578  0
C  C49  1  0.54583179  0.20586185  0.22143119  1  0  -0.068567  -0.120062  0  3.917358  0
C  C50  1  0.54582948  0.70586233  0.27856881  1  0  -0.068542  -0.120034  0  3.917533  0
C  C51  1  0.45416610  0.79413834  0.77856930  1  0  -0.068598  -0.120147  0  3.917411  0
C  C52  1  0.33192702  0.33306149  0.76328895  1  0  -0.049729  -0.031696  0  3.902087  0
C  C53  1  0.66807627  0.16694033  0.26328930  1  0  -0.049692  -0.031745  0  3.902022  0
C  C54  1  0.66807335  0.66694160  0.23670945  1  0  -0.049766  -0.031849  0  3.902191  0
C  C55  1  0.33192438  0.83305604  0.73671118  1  0  -0.049714  -0.031809  0  3.901873  0
C  C56  1  0.34863217  0.41603929  0.83986045  1  0  0.00083  -0.06577  0  3.905962  0
C  C57  1  0.65136857  0.08396473  0.33986276  1  0  0.000902  -0.065606  0  3.905968  0
C  C58  1  0.65136628  0.58396571  0.16013724  1  0  0.000852  -0.065655  0  3.905902  0
C  C59  1  0.34863208  0.91603164  0.66013912  1  0  0.000896  -0.065498  0  3.905649  0
C  C60  1  0.48846362  0.46332859  0.86688104  1  0  0.065483  0.095055  0  3.93461  0
C  C61  1  0.51153678  0.03667456  0.36688235  1  0  0.0654  0.094958  0  3.934668  0
C  C62  1  0.51153388  0.53667736  0.13311527  1  0  0.065446  0.094961  0  3.93447  0
C  C63  1  0.48846528  0.96332469  0.63311953  1  0  0.065439  0.095005  0  3.934664  0
C  C64  1  0.72690398  0.30637734  0.71221245  1  0  0.23223  0.586974  0  4.205522  0
C  C65  1  0.27309820  0.19362044  0.21221435  1  0  0.232239  0.586932  0  4.205482  0
C  C66  1  0.27309357  0.69361998  0.28778525  1  0  0.23223  0.586959  0  4.205375  0
C  C67  1  0.72690419  0.80638170  0.78778753  1  0  0.232237  0.586933  0  4.205442  0
C  C68  1  0.22049822  0.45000048  0.89436143  1  0  0.239714  0.651904  0  4.168949  0
C  C69  1  0.77950281  0.05000087  0.39436526  1  0  0.239825  0.651976  0  4.168848  0
C  C70  1  0.77950204  0.55000164  0.10563766  1  0  0.239753  0.651846  0  4.169215  0
C  C71  1  0.22049880  0.94999455  0.60563662  1  0  0.239762  0.651964  0  4.169059  0
C  C72  1  0.82014752  0.12628753  0.01391659  1  0  -0.025346  -0.063286  0  3.990675  0
C  C73  1  0.17984994  0.37371906  0.51391969  1  0  -0.025391  -0.063376  0  3.990776  0
C  C74  1  0.17985155  0.87371364  0.98608111  1  0  -0.02535  -0.063219  0  3.990603  0
C  C75  1  0.82014891  0.62628018  0.48608428  1  0  -0.0253  -0.063307  0  3.990873  0
C  C76  1  0.70934439  0.07678431  0.95378294  1  0  -0.089275  -0.106642  0  3.984581  0
C  C77  1  0.29065316  0.42321917  0.45378673  1  0  -0.089186  -0.106433  0  3.984584  0
C  C78  1  0.29064945  0.92321778  0.04621824  1  0  -0.08922  -0.10651  0  3.984592  0
C  C79  1  0.70934738  0.57677624  0.54621794  1  0  -0.089282  -0.106581  0  3.984626  0
C  C80  1  0.64152121  0.95343075  0.96740532  1  0  -0.094777  -0.079528  0  4.03146  0
C  C81  1  0.35848054  0.54657260  0.46740792  1  0  -0.094851  -0.079675  0  4.03149  0
C  C82  1  0.35847296  0.04657423  0.03259447  1  0  -0.094847  -0.079682  0  4.031517  0
C  C83  1  0.64152524  0.45342188  0.53259186  1  0  -0.094949  -0.079677  0  4.031512  0
C  C84  1  0.68314281  0.87862207  0.04077345  1  0  -0.084489  -0.055879  0  3.968746  0
C  C85  1  0.31686184  0.62138348  0.54077611  1  0  -0.08453  -0.055818  0  3.968474  0
C  C86  1  0.31685508  0.12137812  0.95922425  1  0  -0.084536  -0.055972  0  3.968929  0
C  C87  1  0.68314879  0.37861581  0.45922368  1  0  -0.084522  -0.056002  0  3.968651  0
C  C88  1  0.79253164  0.92778248  0.10118132  1  0  -0.0962  -0.093369  0  3.995734  0
C  C89  1  0.20746439  0.57222711  0.60118148  1  0  -0.096143  -0.093308  0  3.995581  0
C  C90  1  0.20746625  0.07221772  0.89881568  1  0  -0.096101  -0.093169  0  3.995582  0
C  C91  1  0.79253834  0.42777791  0.39881622  1  0  -0.096131  -0.093126  0  3.995468  0
C  C92  1  0.86194643  0.05101333  0.08763905  1  0  -0.082921  -0.087765  0  3.951292  0
C  C93  1  0.13804839  0.44899448  0.58764040  1  0  -0.082915  -0.087752  0  3.951465  0
C  C94  1  0.13805659  0.94898497  0.91235865  1  0  -0.08292  -0.087785  0  3.951169  0
C  C95  1  0.86195007  0.55101051  0.41236147  1  0  -0.082938  -0.087875  0  3.951428  0
C  C96  1  0.88901139  0.26020673  0.99996285  1  0  0.233208  0.654955  0  4.165687  0
C  C97  1  0.11098911  0.23979790  0.49996616  1  0  0.233136  0.654892  0  4.165758  0
C  C98  1  0.11099411  0.73979446  0.00003973  1  0  0.233177  0.654875  0  4.165818  0
C  C99  1  0.88899904  0.76020130  0.50004547  1  0  0.233148  0.655039  0  4.165804  0
N  N100  1  0.60626101  0.43152697  0.82338932  1  0  -0.36468  -0.353357  0  3.498025  0
N  N101  1  0.39373953  0.06847410  0.32339115  1  0  -0.364708  -0.353349  0  3.497966  0
N  N102  1  0.39373722  0.56847611  0.17660698  1  0  -0.364673  -0.353269  0  3.497842  0
N  N103  1  0.60626073  0.93152802  0.67661142  1  0  -0.364672  -0.353325  0  3.498039  0
O  O104  1  0.84350321  0.37598134  0.73439035  1  0  -0.36044  -0.635651  0  2.298892  0
O  O105  1  0.15649773  0.12401652  0.23439251  1  0  -0.360456  -0.635632  0  2.298885  0
O  O106  1  0.15649564  0.62401790  0.26561083  1  0  -0.360437  -0.635611  0  2.298912  0
O  O107  1  0.84350315  0.87598177  0.76561077  1  0  -0.360442  -0.635627  0  2.298957  0
O  O108  1  0.71905466  0.20635680  0.66263870  1  0  -0.359536  -0.636084  0  2.281978  0
O  O109  1  0.28094805  0.29364174  0.16264291  1  0  -0.359524  -0.636055  0  2.281839  0
O  O110  1  0.28094250  0.79364627  0.33735830  1  0  -0.359556  -0.636096  0  2.281725  0
O  O111  1  0.71905486  0.70635560  0.83735828  1  0  -0.359555  -0.636066  0  2.281764  0
O  O112  1  0.96717364  0.65889843  0.73288630  1  0  -0.618581  -0.821139  0  2.090209  0
O  O113  1  0.03282283  0.84109728  0.23289015  1  0  -0.618598  -0.821116  0  2.090373  0
O  O114  1  0.03282487  0.34109793  0.26711140  1  0  -0.618618  -0.821142  0  2.090359  0
O  O115  1  0.96717224  0.15889715  0.76711243  1  0  -0.618669  -0.821188  0  2.090365  0
O  O116  1  0.10575060  0.45830036  0.84910477  1  0  -0.379277  -0.633668  0  2.273331  0
O  O117  1  0.89425282  0.04169986  0.34910536  1  0  -0.379345  -0.633734  0  2.273246  0
O  O118  1  0.89424977  0.54170272  0.15089015  1  0  -0.379268  -0.633624  0  2.27355  0
O  O119  1  0.10574884  0.95828692  0.65088328  1  0  -0.379297  -0.633766  0  2.273691  0
O  O120  1  0.23933065  0.46567583  0.98161883  1  0  -0.389673  -0.676082  0  2.288784  0
O  O121  1  0.76067534  0.03432875  0.48162060  1  0  -0.389715  -0.676121  0  2.288832  0
O  O122  1  0.76066876  0.53432821  0.01837817  1  0  -0.389724  -0.676079  0  2.288752  0
O  O123  1  0.23934165  0.96567920  0.51837571  1  0  -0.38967  -0.676155  0  2.288628  0
O  O124  1  0.85499577  0.31685240  0.92600835  1  0  -0.411725  -0.693468  0  2.379728  0
O  O125  1  0.14500224  0.18315289  0.42600582  1  0  -0.411712  -0.693504  0  2.379525  0
O  O126  1  0.14500922  0.68315358  0.07399074  1  0  -0.411686  -0.693415  0  2.379846  0
O  O127  1  0.85496252  0.81683853  0.57399327  1  0  -0.411646  -0.693437  0  2.379928  0
O  O128  1  0.97578496  0.30978552  0.06147113  1  0  -0.412901  -0.683475  0  2.327348  0
O  O129  1  0.02422236  0.19021745  0.56147506  1  0  -0.41285  -0.683375  0  2.327408  0
O  O130  1  0.02421580  0.69021181  0.93852796  1  0  -0.41293  -0.683505  0  2.327252  0
O  O131  1  0.97578393  0.80979046  0.43853867  1  0  -0.41293  -0.683613  0  2.327145  0
