# generated using pymatgen
data_ZnH20C20(NO2)2
_symmetry_space_group_name_H-M   'P 1'
_cell_length_a   11.61727478
_cell_length_b   16.10840639
_cell_length_c   24.95295369
_cell_angle_alpha   89.99995159
_cell_angle_beta   89.99997209
_cell_angle_gamma   90.00003219
_symmetry_Int_Tables_number   1
_chemical_formula_structural   ZnH20C20(NO2)2
_chemical_formula_sum   'Zn8 H160 C160 N16 O32'
_cell_volume   4669.59053161
_cell_formula_units_Z   8
loop_
 _symmetry_equiv_pos_site_id
 _symmetry_equiv_pos_as_xyz
  1  'x, y, z'
loop_
 _atom_site_type_symbol
 _atom_site_label
 _atom_site_symmetry_multiplicity
 _atom_site_fract_x
 _atom_site_fract_y
 _atom_site_fract_z
 _atom_site_occupancy
 _atom_site_pbe_bader_charge
 _atom_site_pbe_bader_spin_density
 _atom_site_pbe_cm5_charge
 _atom_site_pbe_ddec_charge
 _atom_site_pbe_ddec_spin_density
 _atom_site_pbe_ddec_sum_bond_order
 _atom_site_pbe_magmom
Zn  Zn0  1  0.74999769  0.24999924  0.29779345  1  1.252105  0  0.679748  0.747511  0  2.325965  0
Zn  Zn1  1  0.25000096  0.24999982  0.20220763  1  1.252088  0  0.679713  0.747431  0  2.326054  0
Zn  Zn2  1  0.25000003  0.75000053  0.70220802  1  1.252086  0  0.6797  0.747429  0  2.326075  0
Zn  Zn3  1  0.75000106  0.75000057  0.79779184  1  1.252076  0  0.679728  0.747486  0  2.326018  0
Zn  Zn4  1  0.24999991  0.75000038  0.92736654  1  1.242626  0  0.686505  0.75961  0  2.337046  0
Zn  Zn5  1  0.74999860  0.74999948  0.57263373  1  1.242398  0  0.686483  0.759618  0  2.337041  0
Zn  Zn6  1  0.75000039  0.25000001  0.07263293  1  1.24276  0  0.686468  0.759583  0  2.337146  0
Zn  Zn7  1  0.25000084  0.24999967  0.42736614  1  1.242595  0  0.686505  0.759588  0  2.337126  0
H  H8  1  0.60970995  0.00137621  0.33465009  1  0.010418  0  0.09608  0.073275  0  0.959423  0
H  H9  1  0.39028938  0.00137627  0.16534992  1  0.010412  0  0.09609  0.07331  0  0.959434  0
H  H10  1  0.10971086  0.49862217  0.16534942  1  0.010465  0  0.096092  0.073286  0  0.959411  0
H  H11  1  0.89028713  0.49862222  0.33465073  1  0.010467  0  0.096069  0.073272  0  0.959464  0
H  H12  1  0.39028950  0.99862419  0.66534978  1  0.010407  0  0.096077  0.073271  0  0.959456  0
H  H13  1  0.60971092  0.99862474  0.83464955  1  0.010388  0  0.096072  0.073289  0  0.959429  0
H  H14  1  0.89028859  0.50137760  0.83465005  1  0.010442  0  0.096071  0.073269  0  0.95942  0
H  H15  1  0.10971232  0.50137693  0.66534954  1  0.010428  0  0.096076  0.073268  0  0.959393  0
H  H16  1  0.43945577  0.08113392  0.31811337  1  0.023943  0  0.099712  0.089128  0  0.978391  0
H  H17  1  0.56054276  0.08113527  0.18188740  1  0.024344  0  0.099724  0.089155  0  0.978345  0
H  H18  1  0.93945705  0.41886336  0.18188566  1  0.023833  0  0.099728  0.08913  0  0.978376  0
H  H19  1  0.06054259  0.41886557  0.31811412  1  0.02397  0  0.099718  0.089128  0  0.978413  0
H  H20  1  0.56054368  0.91886586  0.68188770  1  0.02432  0  0.09973  0.089145  0  0.978364  0
H  H21  1  0.43945669  0.91886574  0.81811327  1  0.023947  0  0.099719  0.08914  0  0.978395  0
H  H22  1  0.06054411  0.58113455  0.81811421  1  0.02393  0  0.099732  0.08916  0  0.978355  0
H  H23  1  0.93945685  0.58113420  0.68188655  1  0.023953  0  0.099718  0.089155  0  0.978393  0
H  H24  1  0.41038472  0.93660896  0.34149555  1  -0.005238  0  0.079743  0.068104  0  0.992843  0
H  H25  1  0.58961360  0.93660912  0.15850476  1  -0.005248  0  0.079756  0.06814  0  0.992868  0
H  H26  1  0.91038748  0.56338915  0.15850443  1  -0.005219  0  0.079719  0.068014  0  0.992917  0
H  H27  1  0.08961227  0.56339072  0.34149528  1  -0.005257  0  0.079749  0.068119  0  0.992883  0
H  H28  1  0.58961300  0.06339081  0.65850513  1  -0.005264  0  0.079747  0.068131  0  0.992874  0
H  H29  1  0.41038585  0.06339127  0.84149511  1  -0.00525  0  0.07975  0.068125  0  0.992881  0
H  H30  1  0.08961368  0.43660938  0.84149584  1  -0.005238  0  0.079758  0.068119  0  0.992843  0
H  H31  1  0.91038889  0.43660905  0.65850499  1  -0.005279  0  0.079738  0.068111  0  0.992881  0
H  H32  1  0.29696398  0.99648324  0.36909668  1  0.024658  0  0.081413  0.07289  0  1.039235  0
H  H33  1  0.70303524  0.99648411  0.13090439  1  0.024671  0  0.081405  0.072915  0  1.039263  0
H  H34  1  0.79696500  0.50351482  0.13090372  1  0.024702  0  0.081386  0.072831  0  1.039264  0
H  H35  1  0.20303385  0.50351640  0.36909643  1  0.024698  0  0.081376  0.072844  0  1.039335  0
H  H36  1  0.70303546  0.00351653  0.63090439  1  0.024675  0  0.081394  0.07289  0  1.0393  0
H  H37  1  0.29696506  0.00351566  0.86909628  1  0.024699  0  0.081385  0.072869  0  1.039295  0
H  H38  1  0.20303616  0.49648433  0.86909615  1  0.024688  0  0.081421  0.072903  0  1.039213  0
H  H39  1  0.79696560  0.49648275  0.63090465  1  0.024684  0  0.081394  0.07286  0  1.039326  0
H  H40  1  0.39322747  0.99268705  0.45890087  1  0.020936  0  0.088161  0.081275  0  1.012925  0
H  H41  1  0.60677175  0.99268675  0.04109981  1  0.020933  0  0.088188  0.081288  0  1.012978  0
H  H42  1  0.89322773  0.50731167  0.04109910  1  0.021585  0  0.088176  0.081253  0  1.012985  0
H  H43  1  0.10677198  0.50731371  0.45890023  1  0.020954  0  0.088163  0.081247  0  1.012957  0
H  H44  1  0.60677283  0.00731334  0.54110020  1  0.02128  0  0.088183  0.081279  0  1.013  0
H  H45  1  0.39322856  0.00731240  0.95890006  1  0.021622  0  0.088171  0.081252  0  1.01301  0
H  H46  1  0.10677257  0.49268748  0.95890036  1  0.020926  0  0.088163  0.081255  0  1.012978  0
H  H47  1  0.89322746  0.49268668  0.54110004  1  0.020954  0  0.088151  0.08124  0  1.012901  0
H  H48  1  0.37027025  0.89081789  0.43533375  1  0.024008  0  0.084535  0.076761  0  0.980654  0
H  H49  1  0.62973147  0.89081881  0.06466698  1  0.023997  0  0.084508  0.076705  0  0.980669  0
H  H50  1  0.87026884  0.60918020  0.06466623  1  0.024029  0  0.084528  0.076731  0  0.980647  0
H  H51  1  0.12972922  0.60918228  0.43533345  1  0.024013  0  0.084513  0.076715  0  0.980656  0
H  H52  1  0.62973091  0.10918188  0.56466692  1  0.023994  0  0.084514  0.076716  0  0.980629  0
H  H53  1  0.37026969  0.10918096  0.93533369  1  0.024026  0  0.084514  0.07671  0  0.980659  0
H  H54  1  0.12973060  0.39081895  0.93533404  1  0.02401  0  0.084512  0.076727  0  0.980663  0
H  H55  1  0.87027022  0.39081749  0.56466682  1  0.024  0  0.084542  0.076748  0  0.980609  0
H  H56  1  0.57305276  0.88133098  0.40500386  1  -0.01253  0  0.076426  0.059922  0  0.996147  0
H  H57  1  0.42694809  0.88132867  0.09499608  1  -0.012562  0  0.076419  0.059906  0  0.996145  0
H  H58  1  0.07305174  0.61866823  0.09499579  1  -0.012496  0  0.076435  0.059943  0  0.996182  0
H  H59  1  0.92694547  0.61866882  0.40500389  1  -0.012536  0  0.076439  0.059947  0  0.996124  0
H  H60  1  0.42694840  0.11867003  0.59499642  1  -0.012551  0  0.076426  0.059913  0  0.996151  0
H  H61  1  0.57305221  0.11866924  0.90500339  1  -0.012554  0  0.076433  0.05993  0  0.996121  0
H  H62  1  0.92694856  0.38133092  0.90500368  1  -0.012535  0  0.076426  0.059909  0  0.996183  0
H  H63  1  0.07305397  0.38133095  0.59499638  1  -0.012539  0  0.076427  0.059928  0  0.996136  0
H  H64  1  0.56807395  0.91011591  0.47356247  1  0.003973  0  0.085022  0.078229  0  1.02881  0
H  H65  1  0.43192779  0.91011493  0.02643746  1  0.003957  0  0.085019  0.078229  0  1.02881  0
H  H66  1  0.06807383  0.58988454  0.02643718  1  0.003953  0  0.085026  0.078282  0  1.028763  0
H  H67  1  0.93192594  0.58988443  0.47356291  1  0.003955  0  0.085009  0.078231  0  1.028796  0
H  H68  1  0.43192722  0.08988449  0.52643781  1  0.003973  0  0.08503  0.078239  0  1.02879  0
H  H69  1  0.56807423  0.08988422  0.97356161  1  0.003989  0  0.085031  0.078257  0  1.028799  0
H  H70  1  0.93192647  0.41011585  0.97356229  1  0.003968  0  0.085025  0.078245  0  1.028798  0
H  H71  1  0.06807436  0.41011596  0.52643776  1  0.00397  0  0.085019  0.078224  0  1.028811  0
H  H72  1  0.60622200  0.05646538  0.45130440  1  0.055081  0  0.090993  0.098532  0  1.007712  0
H  H73  1  0.39377737  0.05646249  0.04869478  1  0.055067  0  0.090963  0.098468  0  1.007695  0
H  H74  1  0.10622041  0.44353486  0.04869470  1  0.055032  0  0.09095  0.098479  0  1.007779  0
H  H75  1  0.89377926  0.44353476  0.45130547  1  0.055021  0  0.090952  0.098479  0  1.007773  0
H  H76  1  0.39377831  0.94353626  0.54869547  1  0.055084  0  0.090966  0.098485  0  1.007666  0
H  H77  1  0.60622121  0.94353541  0.95130429  1  0.055091  0  0.090971  0.098496  0  1.007654  0
H  H78  1  0.89377645  0.55646367  0.95130476  1  0.055088  0  0.090983  0.098532  0  1.007648  0
H  H79  1  0.10622105  0.55646501  0.54869520  1  0.055048  0  0.090971  0.098508  0  1.007748  0
H  H80  1  0.71161628  0.99421492  0.41980647  1  0.045958  0  0.079981  0.073245  0  1.045169  0
H  H81  1  0.28838380  0.99421195  0.08019341  1  0.045946  0  0.079969  0.073193  0  1.045198  0
H  H82  1  0.21161605  0.50578435  0.08019235  1  0.045969  0  0.079971  0.073251  0  1.045227  0
H  H83  1  0.78838280  0.50578362  0.41980739  1  0.04596  0  0.079992  0.073269  0  1.045177  0
H  H84  1  0.28838317  0.00578610  0.58019381  1  0.045962  0  0.079969  0.073227  0  1.045175  0
H  H85  1  0.71161650  0.00578596  0.91980606  1  0.045957  0  0.07999  0.073277  0  1.045191  0
H  H86  1  0.78838254  0.49421356  0.91980632  1  0.045941  0  0.079994  0.073287  0  1.045164  0
H  H87  1  0.21161750  0.49421553  0.58019288  1  0.045957  0  0.079989  0.073261  0  1.04518  0
H  H88  1  0.76085475  0.06328495  0.26854967  1  0.088439  0  0.116023  0.082852  0  1.011565  0
H  H89  1  0.23914377  0.06328673  0.23145111  1  0.088494  0  0.116053  0.082884  0  1.011512  0
H  H90  1  0.26086071  0.43671349  0.23144981  1  0.088484  0  0.116028  0.082872  0  1.011576  0
H  H91  1  0.73914067  0.43671357  0.26854877  1  0.088505  0  0.116069  0.082918  0  1.011486  0
H  H92  1  0.23914126  0.93671358  0.73144940  1  0.088463  0  0.116046  0.082878  0  1.011502  0
H  H93  1  0.76085912  0.93671428  0.76854996  1  0.088457  0  0.116053  0.082875  0  1.011577  0
H  H94  1  0.73914218  0.56328628  0.76854966  1  0.088461  0  0.11603  0.082854  0  1.011528  0
H  H95  1  0.26085877  0.56328620  0.73145150  1  0.088487  0  0.116029  0.082859  0  1.011579  0
H  H96  1  0.85819293  0.97532371  0.20088047  1  0.073137  0  0.104647  0.104739  0  1.004327  0
H  H97  1  0.14180800  0.97532660  0.29912142  1  0.073202  0  0.104627  0.104784  0  1.004367  0
H  H98  1  0.35819506  0.52467437  0.29912032  1  0.07318  0  0.104643  0.104824  0  1.004327  0
H  H99  1  0.64180724  0.52467388  0.20087821  1  0.073189  0  0.104653  0.104837  0  1.004327  0
H  H100  1  0.14180651  0.02467482  0.79911940  1  0.073171  0  0.104673  0.10481  0  1.004303  0
H  H101  1  0.85819231  0.02467565  0.70087925  1  0.073154  0  0.104655  0.104813  0  1.004306  0
H  H102  1  0.64180696  0.47532416  0.70087955  1  0.073154  0  0.10466  0.104802  0  1.004292  0
H  H103  1  0.35819220  0.47532527  0.79912126  1  0.073168  0  0.104659  0.104815  0  1.00432  0
H  H104  1  0.01548384  0.19927723  0.13834389  1  0.145986  0  0.117485  0.136403  0  0.996882  0
H  H105  1  0.98451478  0.19927914  0.36165682  1  0.145948  0  0.117443  0.136358  0  0.996889  0
H  H106  1  0.51548485  0.30072111  0.36165765  1  0.145952  0  0.117438  0.136357  0  0.996884  0
H  H107  1  0.48451385  0.30072063  0.13834260  1  0.145929  0  0.117441  0.136325  0  0.996973  0
H  H108  1  0.98451646  0.80072254  0.86165799  1  0.145925  0  0.117454  0.136387  0  0.996846  0
H  H109  1  0.01548467  0.80072311  0.63834225  1  0.146042  0  0.117445  0.136382  0  0.996839  0
H  H110  1  0.48451460  0.69927742  0.63834343  1  0.145949  0  0.117464  0.136375  0  0.996866  0
H  H111  1  0.51548560  0.69927790  0.86165686  1  0.145943  0  0.117444  0.136333  0  0.99692  0
H  H112  1  0.91238523  0.27714975  0.20911495  1  0.150417  0  0.12158  0.095262  0  1.005122  0
H  H113  1  0.08761344  0.27715139  0.29088532  1  0.150392  0  0.121543  0.095194  0  1.005163  0
H  H114  1  0.41238839  0.22284937  0.29088570  1  0.15041  0  0.121553  0.095209  0  1.005137  0
H  H115  1  0.58761197  0.22284884  0.20911420  1  0.150407  0  0.12155  0.095224  0  1.005133  0
H  H116  1  0.08761335  0.72284940  0.79088613  1  0.150418  0  0.121565  0.09523  0  1.005121  0
H  H117  1  0.91238772  0.72284962  0.70911455  1  0.150412  0  0.121565  0.095209  0  1.005149  0
H  H118  1  0.58761450  0.77714978  0.70911417  1  0.150409  0  0.121546  0.095162  0  1.00515  0
H  H119  1  0.41239006  0.77714969  0.79088487  1  0.1504  0  0.121563  0.095182  0  1.005157  0
H  H120  1  0.06802712  0.07212192  0.09850334  1  0.135927  0  0.112955  0.126589  0  1.01079  0
H  H121  1  0.93197399  0.07212438  0.40149743  1  0.135894  0  0.112963  0.126609  0  1.01081  0
H  H122  1  0.56802560  0.42787644  0.40149818  1  0.135976  0  0.112962  0.126599  0  1.010812  0
H  H123  1  0.43197405  0.42787661  0.09850080  1  0.135947  0  0.112929  0.126546  0  1.010856  0
H  H124  1  0.93197491  0.92787909  0.90149773  1  0.135957  0  0.112921  0.126549  0  1.010844  0
H  H125  1  0.06802460  0.92787725  0.59850163  1  0.136003  0  0.11296  0.12659  0  1.010783  0
H  H126  1  0.43197299  0.57212271  0.59850249  1  0.13592  0  0.112964  0.126604  0  1.010809  0
H  H127  1  0.56802539  0.57212316  0.90149947  1  0.135963  0  0.112944  0.126602  0  1.01082  0
H  H128  1  0.92566488  0.91721747  0.12962037  1  0.036686  0  0.099663  0.095588  0  1.010007  0
H  H129  1  0.07433687  0.91722024  0.37038035  1  0.036713  0  0.099681  0.095591  0  1.01002  0
H  H130  1  0.42566354  0.58278127  0.37038000  1  0.036695  0  0.099655  0.09555  0  1.010042  0
H  H131  1  0.57433537  0.58278084  0.12961970  1  0.036714  0  0.099666  0.095563  0  1.010067  0
H  H132  1  0.07433801  0.08278417  0.87037990  1  0.036639  0  0.099676  0.095626  0  1.01004  0
H  H133  1  0.92566430  0.08278264  0.62961952  1  0.036691  0  0.099666  0.095592  0  1.010006  0
H  H134  1  0.57433590  0.41721726  0.62961987  1  0.036688  0  0.099648  0.095555  0  1.010034  0
H  H135  1  0.42566322  0.41721769  0.87038057  1  0.036681  0  0.099659  0.095566  0  1.010034  0
H  H136  1  0.98346929  0.78954442  0.08840364  1  0.064414  0  0.108088  0.113568  0  0.994491  0
H  H137  1  0.01652978  0.78954462  0.41159755  1  0.064462  0  0.108094  0.113577  0  0.994514  0
H  H138  1  0.48346714  0.71045434  0.41159672  1  0.064745  0  0.108098  0.113624  0  0.994498  0
H  H139  1  0.51652928  0.71045456  0.08840291  1  0.064454  0  0.108106  0.113574  0  0.994513  0
H  H140  1  0.01653016  0.21045846  0.91159583  1  0.064726  0  0.108101  0.113614  0  0.994472  0
H  H141  1  0.98347139  0.21045577  0.58840312  1  0.064441  0  0.108107  0.113593  0  0.994486  0
H  H142  1  0.51652972  0.28954481  0.58840275  1  0.064432  0  0.108125  0.11365  0  0.994498  0
H  H143  1  0.48346844  0.28954583  0.91159816  1  0.064806  0  0.108092  0.113579  0  0.994537  0
H  H144  1  0.08229151  0.71502294  0.01413600  1  0.104012  0  0.117903  0.090194  0  1.051166  0
H  H145  1  0.91770922  0.71502467  0.48586523  1  0.104037  0  0.117906  0.090232  0  1.05118  0
H  H146  1  0.58228979  0.78497627  0.48586445  1  0.104023  0  0.117903  0.090203  0  1.051121  0
H  H147  1  0.41770841  0.78497593  0.01413554  1  0.104028  0  0.117915  0.09023  0  1.051146  0
H  H148  1  0.91770621  0.28497807  0.98586387  1  0.10399  0  0.117907  0.090189  0  1.051239  0
H  H149  1  0.08229539  0.28497697  0.51413624  1  0.104023  0  0.117901  0.090225  0  1.051163  0
H  H150  1  0.41770965  0.21502350  0.51413542  1  0.104005  0  0.117886  0.090195  0  1.051173  0
H  H151  1  0.58229189  0.21502446  0.98586553  1  0.104034  0  0.117909  0.090222  0  1.051139  0
H  H152  1  0.22167146  0.93251748  0.95487987  1  0.117583  0  0.119426  0.089959  0  1.016033  0
H  H153  1  0.77832805  0.93251911  0.54511950  1  0.11755  0  0.119461  0.089966  0  1.016063  0
H  H154  1  0.72167176  0.56748237  0.54511960  1  0.117585  0  0.11944  0.089971  0  1.016027  0
H  H155  1  0.27832747  0.56748201  0.95488036  1  0.117553  0  0.119483  0.090005  0  1.016132  0
H  H156  1  0.77832884  0.06748353  0.04511960  1  0.117607  0  0.11944  0.089975  0  1.016025  0
H  H157  1  0.22167312  0.06748252  0.45488037  1  0.11756  0  0.11942  0.089922  0  1.016074  0
H  H158  1  0.27832768  0.43251678  0.45488027  1  0.117576  0  0.119448  0.089988  0  1.016044  0
H  H159  1  0.72166939  0.43251963  0.04512031  1  0.117538  0  0.119444  0.089932  0  1.016125  0
H  H160  1  0.12569987  0.01768891  0.02479224  1  0.07666  0  0.117106  0.127944  0  0.989122  0
H  H161  1  0.87429947  0.01768939  0.47520697  1  0.076628  0  0.117076  0.127925  0  0.989153  0
H  H162  1  0.62569917  0.48231010  0.47520767  1  0.076647  0  0.117101  0.127911  0  0.989149  0
H  H163  1  0.37430052  0.48230972  0.02479168  1  0.076626  0  0.117097  0.12791  0  0.989165  0
H  H164  1  0.87430388  0.98231272  0.97520723  1  0.076699  0  0.117118  0.12797  0  0.989133  0
H  H165  1  0.12569825  0.98231100  0.52479170  1  0.076651  0  0.117094  0.127926  0  0.989158  0
H  H166  1  0.37430113  0.51768905  0.52479180  1  0.076652  0  0.117097  0.127926  0  0.989149  0
H  H167  1  0.62569548  0.51769067  0.97520819  1  0.076622  0  0.117115  0.127937  0  0.989169  0
C  C168  1  0.58753607  0.04760732  0.36600990  1  -0.012689  0  -0.084901  -0.103981  0  3.855807  0
C  C169  1  0.41246243  0.04760620  0.13398969  1  -0.012683  0  -0.084926  -0.104136  0  3.855812  0
C  C170  1  0.08753784  0.45239167  0.13398882  1  -0.012702  0  -0.084899  -0.103912  0  3.855766  0
C  C171  1  0.91246183  0.45239107  0.36601135  1  -0.01271  0  -0.08489  -0.103972  0  3.855862  0
C  C172  1  0.41246251  0.95239369  0.63398997  1  -0.012683  0  -0.0849  -0.104031  0  3.855772  0
C  C173  1  0.58753787  0.95239295  0.86600938  1  -0.012695  0  -0.084895  -0.104074  0  3.855803  0
C  C174  1  0.91246246  0.54760748  0.86601065  1  -0.012683  0  -0.08491  -0.103939  0  3.855834  0
C  C175  1  0.08753848  0.54760808  0.63399012  1  -0.012699  0  -0.084889  -0.103931  0  3.855677  0
C  C176  1  0.45765364  0.06333821  0.35982186  1  0.039421  0  -0.090887  -0.126375  0  3.846595  0
C  C177  1  0.54234573  0.06333900  0.14017772  1  0.03903  0  -0.0909  -0.126329  0  3.84641  0
C  C178  1  0.95765498  0.43665907  0.14017717  1  0.039571  0  -0.090886  -0.126385  0  3.846475  0
C  C179  1  0.04234468  0.43665935  0.35982261  1  0.039419  0  -0.090889  -0.126405  0  3.846576  0
C  C180  1  0.54234580  0.93666094  0.64017881  1  0.039055  0  -0.090901  -0.126316  0  3.846385  0
C  C181  1  0.45765543  0.93666015  0.85982215  1  0.039451  0  -0.090878  -0.126308  0  3.846499  0
C  C182  1  0.04234360  0.56334008  0.85982310  1  0.03946  0  -0.090896  -0.126471  0  3.846543  0
C  C183  1  0.95765563  0.56333980  0.64017766  1  0.039432  0  -0.090891  -0.126398  0  3.846499  0
C  C184  1  0.38955970  0.98334416  0.37242213  1  -0.018205  0  -0.168093  -0.163071  0  3.943876  0
C  C185  1  0.61043951  0.98334499  0.12757815  1  -0.0182  0  -0.16812  -0.163226  0  3.943986  0
C  C186  1  0.88956160  0.51665394  0.12757744  1  -0.01823  0  -0.1681  -0.163  0  3.943924  0
C  C187  1  0.11043812  0.51665548  0.37242229  1  -0.018181  0  -0.168102  -0.163121  0  3.944007  0
C  C188  1  0.61043888  0.01665561  0.62757854  1  -0.018217  0  -0.168095  -0.163179  0  3.944005  0
C  C189  1  0.38956079  0.01665478  0.87242172  1  -0.018232  0  -0.168124  -0.163198  0  3.943996  0
C  C190  1  0.11043957  0.48334521  0.87242243  1  -0.018205  0  -0.168112  -0.163099  0  3.943838  0
C  C191  1  0.88956132  0.48334429  0.62757838  1  -0.018154  0  -0.168086  -0.163107  0  3.943944  0
C  C192  1  0.41926800  0.94814139  0.42764286  1  -0.053202  0  -0.169504  -0.140863  0  3.94099  0
C  C193  1  0.58073291  0.94814166  0.07235744  1  -0.053094  0  -0.169477  -0.140743  0  3.940902  0
C  C194  1  0.91926740  0.55185672  0.07235711  1  -0.053872  0  -0.169442  -0.140671  0  3.940882  0
C  C195  1  0.08073148  0.55185879  0.42764300  1  -0.053207  0  -0.169475  -0.140718  0  3.940941  0
C  C196  1  0.58073230  0.05185838  0.57235741  1  -0.053518  0  -0.169485  -0.140765  0  3.940901  0
C  C197  1  0.41926826  0.05185811  0.92764283  1  -0.053875  0  -0.16945  -0.14066  0  3.9409  0
C  C198  1  0.08073290  0.44814119  0.92764276  1  -0.053179  0  -0.169478  -0.140774  0  3.940918  0
C  C199  1  0.91926796  0.44814036  0.57235727  1  -0.053196  0  -0.169489  -0.140761  0  3.940838  0
C  C200  1  0.54853755  0.93188779  0.43275607  1  0.000521  0  -0.170597  -0.13937  0  3.94515  0
C  C201  1  0.45146334  0.93188677  0.06724384  1  0.000434  0  -0.170599  -0.139393  0  3.945082  0
C  C202  1  0.04853824  0.56811079  0.06724318  1  0.000533  0  -0.170652  -0.13956  0  3.945189  0
C  C203  1  0.95146152  0.56811198  0.43275612  1  0.000562  0  -0.170588  -0.139413  0  3.945159  0
C  C204  1  0.45146275  0.06811260  0.56724420  1  0.000517  0  -0.170609  -0.139382  0  3.945143  0
C  C205  1  0.54853868  0.06811238  0.93275563  1  0.000506  0  -0.170634  -0.139473  0  3.945239  0
C  C206  1  0.95146206  0.43188774  0.93275589  1  0.000533  0  -0.170621  -0.139418  0  3.945142  0
C  C207  1  0.04853879  0.43188842  0.56724375  1  0.000551  0  -0.170606  -0.139399  0  3.945188  0
C  C208  1  0.61961584  0.00926955  0.42014859  1  -0.023205  0  -0.176759  -0.176417  0  3.937479  0
C  C209  1  0.38038521  0.00926786  0.07985142  1  -0.02317  0  -0.176745  -0.176297  0  3.937442  0
C  C210  1  0.11961598  0.49072946  0.07985052  1  -0.023236  0  -0.176736  -0.176407  0  3.93768  0
C  C211  1  0.88038372  0.49072877  0.42014923  1  -0.023214  0  -0.176765  -0.176463  0  3.937599  0
C  C212  1  0.38038532  0.99073147  0.57985128  1  -0.023209  0  -0.17674  -0.17637  0  3.937432  0
C  C213  1  0.61961595  0.99073191  0.92014845  1  -0.023209  0  -0.176779  -0.176443  0  3.937572  0
C  C214  1  0.88038347  0.50926969  0.92014855  1  -0.023226  0  -0.17676  -0.176474  0  3.93749  0
C  C215  1  0.11961572  0.50927100  0.57985144  1  -0.023212  0  -0.17675  -0.176454  0  3.937563  0
C  C216  1  0.66280333  0.12271844  0.35225198  1  1.54386  0  0.197621  0.575634  0  4.164504  0
C  C217  1  0.33719179  0.12271726  0.14774677  1  1.544114  0  0.197665  0.575746  0  4.164498  0
C  C218  1  0.16280761  0.37728183  0.14774592  1  1.544052  0  0.197579  0.575521  0  4.164673  0
C  C219  1  0.83719372  0.37727997  0.35225309  1  1.544081  0  0.197672  0.575773  0  4.164519  0
C  C220  1  0.33719267  0.87728257  0.64774749  1  1.544107  0  0.197636  0.57566  0  4.164476  0
C  C221  1  0.66280680  0.87728313  0.85225150  1  1.543855  0  0.197716  0.575763  0  4.164447  0
C  C222  1  0.83719355  0.62271857  0.85225275  1  1.543565  0  0.197653  0.575636  0  4.164481  0
C  C223  1  0.16280744  0.62271918  0.64774758  1  1.544046  0  0.197652  0.575693  0  4.164464  0
C  C224  1  0.41305197  0.13469223  0.39470549  1  1.553011  0  0.200562  0.586302  0  4.150219  0
C  C225  1  0.58695005  0.13469122  0.10529324  1  1.552801  0  0.200649  0.586466  0  4.149972  0
C  C226  1  0.91305243  0.36530690  0.10529314  1  1.552888  0  0.20065  0.586475  0  4.150209  0
C  C227  1  0.08694717  0.36530777  0.39470667  1  1.553232  0  0.200685  0.58654  0  4.150273  0
C  C228  1  0.58695006  0.86530878  0.60529438  1  1.5528  0  0.200627  0.58636  0  4.149991  0
C  C229  1  0.41305284  0.86530856  0.89470663  1  1.55311  0  0.200652  0.586446  0  4.150304  0
C  C230  1  0.08694701  0.63469225  0.89470673  1  1.553118  0  0.200681  0.586437  0  4.1503  0
C  C231  1  0.91305141  0.63469200  0.60529360  1  1.553001  0  0.200572  0.586335  0  4.150421  0
C  C232  1  0.81708569  0.09073028  0.23843338  1  0.477997  0  0.047312  0.098352  0  3.958168  0
C  C233  1  0.18291457  0.09073137  0.26156779  1  0.478  0  0.047294  0.098374  0  3.958137  0
C  C234  1  0.31708988  0.40926881  0.26156648  1  0.478044  0  0.047381  0.098502  0  3.95821  0
C  C235  1  0.68291062  0.40926890  0.23843251  1  0.478048  0  0.047331  0.098421  0  3.958088  0
C  C236  1  0.18291031  0.90926887  0.76156609  1  0.47807  0  0.047355  0.098451  0  3.958103  0
C  C237  1  0.81708832  0.90926964  0.73843369  1  0.47803  0  0.047354  0.098497  0  3.95808  0
C  C238  1  0.68291301  0.59073096  0.73843339  1  0.478029  0  0.047312  0.098432  0  3.958108  0
C  C239  1  0.31708796  0.59073149  0.76156656  1  0.478011  0  0.047315  0.098471  0  3.95816  0
C  C240  1  0.87161225  0.04226556  0.20033930  1  -0.008154  0  -0.082428  -0.173016  0  3.95175  0
C  C241  1  0.12839056  0.04226782  0.29966270  1  -0.00813  0  -0.08252  -0.173185  0  3.951934  0
C  C242  1  0.37161385  0.45773355  0.29966095  1  -0.008211  0  -0.082517  -0.173288  0  3.951942  0
C  C243  1  0.62838669  0.45773305  0.20033801  1  -0.008065  0  -0.082548  -0.173317  0  3.951902  0
C  C244  1  0.12838634  0.95773359  0.79966057  1  -0.008204  0  -0.082484  -0.173196  0  3.951878  0
C  C245  1  0.87161319  0.95773381  0.70033878  1  -0.008022  0  -0.082511  -0.17326  0  3.951872  0
C  C246  1  0.62838732  0.54226622  0.70033892  1  -0.008023  0  -0.082493  -0.173203  0  3.951779  0
C  C247  1  0.37161362  0.54226610  0.79966066  1  -0.008155  0  -0.082523  -0.173245  0  3.95184  0
C  C248  1  0.94410174  0.08007939  0.16225161  1  0.013541  0  0.01089  0.147285  0  4.00163  0
C  C249  1  0.05590109  0.08008158  0.33774997  1  0.013189  0  0.011062  0.147297  0  4.001778  0
C  C250  1  0.44410156  0.41991912  0.33774943  1  0.013134  0  0.010972  0.147331  0  4.00167  0
C  C251  1  0.55589723  0.41991926  0.16224995  1  0.013112  0  0.011024  0.147342  0  4.001701  0
C  C252  1  0.05589770  0.91992038  0.83774826  1  0.01356  0  0.010867  0.147278  0  4.001618  0
C  C253  1  0.94410180  0.91992006  0.66225070  1  0.013079  0  0.010912  0.147283  0  4.001676  0
C  C254  1  0.55589789  0.58008003  0.66225124  1  0.01357  0  0.010944  0.147327  0  4.001711  0
C  C255  1  0.44410308  0.58008051  0.83774871  1  0.013118  0  0.010991  0.147308  0  4.001631  0
C  C256  1  0.95852426  0.16637471  0.16571891  1  0.001649  0  -0.068283  -0.147277  0  3.863357  0
C  C257  1  0.04147691  0.16637689  0.33428302  1  0.00127  0  -0.068227  -0.147147  0  3.86339  0
C  C258  1  0.45852487  0.33362381  0.33428253  1  0.001472  0  -0.068202  -0.147184  0  3.863342  0
C  C259  1  0.54147385  0.33362394  0.16571690  1  0.00148  0  -0.068232  -0.147124  0  3.863469  0
C  C260  1  0.04147518  0.83362506  0.83428257  1  0.001575  0  -0.068176  -0.147188  0  3.863342  0
C  C261  1  0.95852511  0.83362474  0.66571725  1  0.001443  0  -0.068197  -0.147191  0  3.863318  0
C  C262  1  0.54147457  0.66637534  0.66571814  1  0.001502  0  -0.068239  -0.147207  0  3.863419  0
C  C263  1  0.45852732  0.66637645  0.83428176  1  -0.000414  0  -0.068213  -0.147125  0  3.863325  0
C  C264  1  0.90092383  0.21040882  0.20530660  1  0.437486  0  0.058464  0.120205  0  3.907307  0
C  C265  1  0.09907652  0.21041108  0.29469410  1  0.438664  0  0.058433  0.120182  0  3.907371  0
C  C266  1  0.40092617  0.28958968  0.29469405  1  0.437608  0  0.058454  0.120255  0  3.907311  0
C  C267  1  0.59907424  0.28958978  0.20530581  1  0.438459  0  0.058442  0.120145  0  3.907348  0
C  C268  1  0.09907389  0.78959033  0.79469447  1  0.438408  0  0.058443  0.120236  0  3.907237  0
C  C269  1  0.90092637  0.78959117  0.70530577  1  0.437619  0  0.058437  0.120227  0  3.907238  0
C  C270  1  0.59907500  0.71040947  0.70530582  1  0.438461  0  0.058439  0.120237  0  3.907353  0
C  C271  1  0.40092779  0.71040999  0.79469366  1  0.439503  0  0.058453  0.120303  0  3.907284  0
C  C272  1  0.00385714  0.03528771  0.11992126  1  -0.054654  0  -0.067569  -0.095667  0  3.929223  0
C  C273  1  0.99614394  0.03529022  0.38007953  1  -0.054291  0  -0.067632  -0.095714  0  3.929411  0
C  C274  1  0.50385653  0.46471063  0.38007987  1  -0.054297  0  -0.067601  -0.095667  0  3.929277  0
C  C275  1  0.49614229  0.46470956  0.11991989  1  -0.054295  0  -0.06762  -0.095671  0  3.929254  0
C  C276  1  0.99614403  0.96471268  0.88007901  1  -0.054766  0  -0.067524  -0.095618  0  3.929063  0
C  C277  1  0.00385637  0.96471203  0.61992034  1  -0.054373  0  -0.067561  -0.09562  0  3.929256  0
C  C278  1  0.49614206  0.53528852  0.61992120  1  -0.054689  0  -0.06757  -0.09566  0  3.929236  0
C  C279  1  0.50385887  0.53528959  0.88007958  1  -0.054236  0  -0.067534  -0.095648  0  3.929202  0
C  C280  1  0.98721807  0.95467930  0.10687996  1  -0.043211  0  -0.089036  -0.143555  0  3.980196  0
C  C281  1  0.01278198  0.95468077  0.39312034  1  -0.043105  0  -0.089024  -0.143513  0  3.980166  0
C  C282  1  0.48721668  0.54531946  0.39312079  1  -0.043197  0  -0.089027  -0.143522  0  3.980154  0
C  C283  1  0.51278220  0.54531965  0.10687933  1  -0.04318  0  -0.08899  -0.143463  0  3.980076  0
C  C284  1  0.01278310  0.04532233  0.89311991  1  -0.043097  0  -0.089059  -0.143602  0  3.980162  0
C  C285  1  0.98721832  0.04532148  0.60687953  1  -0.043102  0  -0.089028  -0.143562  0  3.98016  0
C  C286  1  0.51278191  0.45467907  0.60687948  1  -0.043179  0  -0.089017  -0.143507  0  3.980104  0
C  C287  1  0.48721724  0.45468012  0.89312094  1  -0.043188  0  -0.089049  -0.143531  0  3.980044  0
C  C288  1  0.04623405  0.91099511  0.06395290  1  0.034694  0  0.010015  0.153619  0  4.031185  0
C  C289  1  0.95376425  0.91099630  0.43604702  1  0.034696  0  0.009998  0.153607  0  4.031153  0
C  C290  1  0.54623309  0.58900471  0.43604676  1  0.034686  0  0.010011  0.153618  0  4.031166  0
C  C291  1  0.45376582  0.58900431  0.06395174  1  0.034685  0  0.009998  0.153576  0  4.031175  0
C  C292  1  0.95376626  0.08900652  0.93604737  1  0.034271  0  0.010043  0.153691  0  4.031126  0
C  C293  1  0.04623519  0.08900472  0.56395205  1  0.034659  0  0.010021  0.153669  0  4.031235  0
C  C294  1  0.45376549  0.41099444  0.56395271  1  0.034317  0  0.01  0.153608  0  4.031138  0
C  C295  1  0.54623276  0.41099484  0.93604853  1  0.034657  0  0.009989  0.15361  0  4.031177  0
C  C296  1  0.03562654  0.82421682  0.05976625  1  -0.084869  0  -0.084583  -0.183217  0  3.938707  0
C  C297  1  0.96437255  0.82421800  0.44023453  1  -0.08484  0  -0.084574  -0.183171  0  3.938593  0
C  C298  1  0.53562565  0.67578299  0.44023421  1  -0.085214  0  -0.084591  -0.183307  0  3.938785  0
C  C299  1  0.46437247  0.67578261  0.05976544  1  -0.084853  0  -0.084601  -0.183201  0  3.93879  0
C  C300  1  0.96437291  0.17578481  0.94023362  1  -0.085193  0  -0.084652  -0.183371  0  3.938828  0
C  C301  1  0.03562861  0.17578301  0.55976615  1  -0.084856  0  -0.084625  -0.183248  0  3.938747  0
C  C302  1  0.46437294  0.32421616  0.55976566  1  -0.08489  0  -0.084616  -0.183338  0  3.938794  0
C  C303  1  0.53562611  0.32421716  0.94023564  1  -0.08521  0  -0.084637  -0.18331  0  3.938811  0
C  C304  1  0.09153122  0.78169806  0.01913298  1  0.531823  0  0.048347  0.102444  0  3.951252  0
C  C305  1  0.90846784  0.78169917  0.48086781  1  0.531847  0  0.048357  0.102394  0  3.951298  0
C  C306  1  0.59152946  0.71830115  0.48086706  1  0.531807  0  0.048359  0.102488  0  3.951245  0
C  C307  1  0.40846783  0.71830142  0.01913256  1  0.531819  0  0.048352  0.1024  0  3.951366  0
C  C308  1  0.90846822  0.21830295  0.98086648  1  0.531787  0  0.048366  0.102536  0  3.951379  0
C  C309  1  0.09153419  0.21830184  0.51913326  1  0.531826  0  0.048355  0.10239  0  3.951372  0
C  C310  1  0.40846999  0.28169800  0.51913281  1  0.531797  0  0.048344  0.102456  0  3.951261  0
C  C311  1  0.59153161  0.28169897  0.98086811  1  0.53184  0  0.048374  0.102505  0  3.951385  0
C  C312  1  0.16821053  0.90364557  0.98554679  1  0.451013  0  0.050172  0.097799  0  3.940903  0
C  C313  1  0.83178809  0.90364788  0.51445299  1  0.450932  0  0.050135  0.097841  0  3.940947  0
C  C314  1  0.66821089  0.59635426  0.51445309  1  0.451009  0  0.050145  0.097767  0  3.940862  0
C  C315  1  0.33178837  0.59635326  0.98554605  1  0.450922  0  0.050118  0.097765  0  3.940958  0
C  C316  1  0.83178977  0.09635482  0.01445308  1  0.45102  0  0.050192  0.097864  0  3.940931  0
C  C317  1  0.16821135  0.09635375  0.48554688  1  0.450956  0  0.050187  0.09789  0  3.940871  0
C  C318  1  0.33178942  0.40364613  0.48554638  1  0.451006  0  0.050174  0.097815  0  3.940917  0
C  C319  1  0.66820936  0.40364838  0.01445462  1  0.451024  0  0.050138  0.097901  0  3.940904  0
C  C320  1  0.11446007  0.95059063  0.02483406  1  -0.000867  0  -0.076627  -0.172017  0  3.926682  0
C  C321  1  0.88553912  0.95059235  0.47516624  1  -0.000849  0  -0.076625  -0.172075  0  3.92671  0
C  C322  1  0.61445990  0.54940922  0.47516597  1  -0.000846  0  -0.076623  -0.171973  0  3.92663  0
C  C323  1  0.38553984  0.54940823  0.02483294  1  -0.000792  0  -0.076618  -0.172  0  3.926702  0
C  C324  1  0.88554196  0.04941039  0.97516581  1  -0.00049  0  -0.07668  -0.172132  0  3.926779  0
C  C325  1  0.11445946  0.04940866  0.52483363  1  -0.000824  0  -0.076664  -0.172121  0  3.926865  0
C  C326  1  0.38554040  0.45059117  0.52483349  1  -0.000488  0  -0.076634  -0.172039  0  3.926712  0
C  C327  1  0.61445788  0.45059216  0.97516773  1  -0.000936  0  -0.076625  -0.172079  0  3.926817  0
N  N328  1  0.83126374  0.17366958  0.24113163  1  -1.279469  0  -0.324576  -0.233018  0  3.550912  0
N  N329  1  0.16873572  0.17367130  0.25886909  1  -1.279503  0  -0.324539  -0.232935  0  3.550856  0
N  N330  1  0.33126701  0.32633013  0.25886863  1  -1.27949  0  -0.324581  -0.233073  0  3.55087  0
N  N331  1  0.66873257  0.32632959  0.24113161  1  -1.279488  0  -0.324578  -0.232979  0  3.550785  0
N  N332  1  0.16873312  0.82632957  0.75886864  1  -1.279484  0  -0.324583  -0.233061  0  3.550876  0
N  N333  1  0.83126717  0.82633096  0.74113198  1  -1.279467  0  -0.324571  -0.233047  0  3.550726  0
N  N334  1  0.66873416  0.67366964  0.74113124  1  -1.279498  0  -0.324542  -0.233017  0  3.550901  0
N  N335  1  0.33126860  0.67366956  0.75886866  1  -1.279467  0  -0.324587  -0.233128  0  3.550827  0
N  N336  1  0.15758753  0.82035800  0.98244017  1  -1.230005  0  -0.327497  -0.236173  0  3.559144  0
N  N337  1  0.84241017  0.82035907  0.51756046  1  -1.229983  0  -0.327478  -0.236199  0  3.559287  0
N  N338  1  0.65758622  0.67964182  0.51755931  1  -1.229987  0  -0.327481  -0.236193  0  3.559212  0
N  N339  1  0.34241137  0.67964145  0.98243979  1  -1.230004  0  -0.327489  -0.23616  0  3.559184  0
N  N340  1  0.84241191  0.17964239  0.01755930  1  -1.229997  0  -0.327502  -0.236248  0  3.55923  0
N  N341  1  0.15759099  0.17964194  0.48243981  1  -1.230021  0  -0.327482  -0.236173  0  3.559165  0
N  N342  1  0.34241322  0.32035733  0.48243976  1  -1.229984  0  -0.327495  -0.236168  0  3.559086  0
N  N343  1  0.65758635  0.32036018  0.01756008  1  -1.229976  0  -0.327438  -0.236202  0  3.559261  0
O  O344  1  0.61961940  0.17607258  0.31864633  1  -1.162549  0  -0.333415  -0.559724  0  2.31366  0
O  O345  1  0.38037489  0.17607386  0.18135239  1  -1.1626  0  -0.333367  -0.559652  0  2.31371  0
O  O346  1  0.11962705  0.32392642  0.18135198  1  -1.162541  0  -0.333364  -0.559615  0  2.313824  0
O  O347  1  0.88037596  0.32392463  0.31864866  1  -1.162639  0  -0.333395  -0.559705  0  2.313793  0
O  O348  1  0.38037488  0.82392719  0.68135274  1  -1.162617  0  -0.333372  -0.55963  0  2.31368  0
O  O349  1  0.61962455  0.82392901  0.81864508  1  -1.162427  0  -0.333449  -0.55973  0  2.313737  0
O  O350  1  0.88037756  0.67607459  0.81864709  1  -1.162158  0  -0.333412  -0.559692  0  2.313673  0
O  O351  1  0.11962262  0.67607514  0.68135201  1  -1.162607  0  -0.333386  -0.559679  0  2.313742  0
O  O352  1  0.76369015  0.12828449  0.36959580  1  -1.187106  0  -0.326993  -0.555986  0  2.137605  0
O  O353  1  0.23630411  0.12827957  0.13040374  1  -1.187265  0  -0.327044  -0.556066  0  2.137552  0
O  O354  1  0.26369531  0.37171830  0.13040167  1  -1.187279  0  -0.326986  -0.555972  0  2.13755  0
O  O355  1  0.73630602  0.37171576  0.36959654  1  -1.187227  0  -0.327019  -0.556084  0  2.137548  0
O  O356  1  0.23630413  0.87171963  0.63040407  1  -1.187245  0  -0.327036  -0.556027  0  2.137501  0
O  O357  1  0.76369447  0.87171710  0.86959533  1  -1.187194  0  -0.327035  -0.556034  0  2.137532  0
O  O358  1  0.73630500  0.62828457  0.86959500  1  -1.187205  0  -0.327011  -0.556005  0  2.137604  0
O  O359  1  0.26369686  0.62828277  0.63040573  1  -1.187231  0  -0.327047  -0.556073  0  2.137592  0
O  O360  1  0.31055032  0.16078294  0.38146017  1  -1.17536  0  -0.342686  -0.573951  0  2.339084  0
O  O361  1  0.68945171  0.16078195  0.11853975  1  -1.175435  0  -0.342729  -0.574027  0  2.338977  0
O  O362  1  0.81055075  0.33921738  0.11853929  1  -1.175476  0  -0.342705  -0.573992  0  2.33904  0
O  O363  1  0.18944625  0.33921708  0.38146054  1  -1.175703  0  -0.342735  -0.574028  0  2.339159  0
O  O364  1  0.68944999  0.83921559  0.61854210  1  -1.175241  0  -0.342749  -0.574002  0  2.339041  0
O  O365  1  0.31055290  0.83921844  0.88146092  1  -1.175553  0  -0.342749  -0.574037  0  2.339207  0
O  O366  1  0.18944525  0.66078425  0.88146098  1  -1.175693  0  -0.342743  -0.573967  0  2.339179  0
O  O367  1  0.81055319  0.66078207  0.61853973  1  -1.175342  0  -0.342682  -0.57395  0  2.339248  0
O  O368  1  0.46990264  0.16338593  0.43284606  1  -1.183719  0  -0.319035  -0.54598  0  2.140865  0
O  O369  1  0.53010198  0.16338308  0.06715187  1  -1.183584  0  -0.319026  -0.546024  0  2.140787  0
O  O370  1  0.96990226  0.33661322  0.06715257  1  -1.183668  0  -0.319083  -0.546072  0  2.1409  0
O  O371  1  0.03009818  0.33661216  0.43284646  1  -1.183789  0  -0.319058  -0.546037  0  2.140839  0
O  O372  1  0.53010197  0.83661819  0.56715181  1  -1.183548  0  -0.319019  -0.545993  0  2.140778  0
O  O373  1  0.46990177  0.83661545  0.93284720  1  -1.183642  0  -0.319034  -0.546026  0  2.140847  0
O  O374  1  0.03009546  0.66338655  0.93284690  1  -1.183688  0  -0.319087  -0.546031  0  2.14081  0
O  O375  1  0.96990040  0.66338575  0.56715341  1  -1.183756  0  -0.31903  -0.545994  0  2.140905  0
