# generated using pymatgen
data_Zn2H16C36(N4O3)3
_symmetry_space_group_name_H-M   'P 1'
_cell_length_a   20.53528096
_cell_length_b   20.96048407
_cell_length_c   19.39604921
_cell_angle_alpha   68.75338393
_cell_angle_beta   76.05443471
_cell_angle_gamma   112.22079929
_symmetry_Int_Tables_number   1
_chemical_formula_structural   Zn2H16C36(N4O3)3
_chemical_formula_sum   'Zn4 H32 C72 N24 O18'
_cell_volume   6475.03025203
_cell_formula_units_Z   2
loop_
 _symmetry_equiv_pos_site_id
 _symmetry_equiv_pos_as_xyz
  1  'x, y, z'
loop_
 _atom_site_type_symbol
 _atom_site_label
 _atom_site_symmetry_multiplicity
 _atom_site_fract_x
 _atom_site_fract_y
 _atom_site_fract_z
 _atom_site_occupancy
 _atom_site_pbe_bader_charge
 _atom_site_pbe_bader_spin_density
 _atom_site_pbe_cm5_charge
 _atom_site_pbe_ddec_charge
 _atom_site_pbe_ddec_spin_density
 _atom_site_pbe_ddec_sum_bond_order
 _atom_site_pbe_magmom
Zn  Zn0  1  0.10278018  0.59215457  0.98790130  1  1.189537  0  0.752558  0.649483  0  2.335107  0
Zn  Zn1  1  0.87056874  0.42310468  0.98773779  1  1.173298  0  0.799489  0.70622  0  2.289441  0
Zn  Zn2  1  0.99814958  0.62335975  0.87890892  1  1.200898  0  0.750105  0.641217  0  2.346745  0
Zn  Zn3  1  0.00592162  0.39024900  0.06869839  1  1.179887  0  0.751497  0.663575  0  2.277631  0
H  H4  1  0.13056543  0.74718908  0.02426344  1  0.143899  0  0.13182  0.122479  0  0.974835  0
H  H5  1  0.87655390  0.20204265  0.98193402  1  0.082387  0  0.123036  0.115248  0  0.976569  0
H  H6  1  0.70749724  0.26094204  0.14556506  1  0.093456  0  0.129277  0.120953  0  0.976949  0
H  H7  1  0.24630083  0.64384303  0.83606641  1  0.134947  0  0.126399  0.12308  0  0.994628  0
H  H8  1  0.85347602  0.67448090  0.89122107  1  0.13674  0  0.134116  0.126706  0  0.967977  0
H  H9  1  0.16036261  0.37532994  0.04150367  1  0.097265  0  0.123696  0.115064  0  0.990449  0
H  H10  1  0.03814478  0.35596605  0.23971957  1  0.103069  0  0.128396  0.119365  0  0.97362  0
H  H11  1  0.09858926  0.62445057  0.72408404  1  0.142687  0  0.122868  0.112771  0  1.015919  0
H  H12  1  0.73069156  0.42752813  0.08589275  1  0.116358  0  0.13097  0.123011  0  0.981604  0
H  H13  1  0.26175114  0.61077038  0.01390222  1  0.149921  0  0.127671  0.120109  0  0.978035  0
H  H14  1  0.06720932  0.59119236  0.15272638  1  0.089701  0  0.118977  0.110847  0  1.002175  0
H  H15  1  0.93670506  0.36894464  0.85903419  1  0.107447  0  0.125885  0.118824  0  1.002883  0
H  H16  1  0.87685681  0.28667564  0.24607895  1  0.117519  0  0.125731  0.117218  0  0.986754  0
H  H17  1  0.16862313  0.78520378  0.69236916  1  0.128107  0  0.13264  0.127994  0  0.968089  0
H  H18  1  0.94573527  0.71921816  0.94629577  1  0.096093  0  0.121991  0.110287  0  1.014326  0
H  H19  1  0.10639373  0.35032473  0.95606230  1  0.122726  0  0.122346  0.115728  0  1.007428  0
H  H20  1  0.05379270  0.56711369  0.41573991  1  0.059806  0  0.100085  0.087326  0  0.990171  0
H  H21  1  0.15856994  0.40880081  0.54722613  1  0.065886  0  0.099945  0.087236  0  0.993126  0
H  H22  1  0.96983268  0.43056080  0.57658071  1  0.068621  0  0.100287  0.087544  0  0.989173  0
H  H23  1  0.24195325  0.54481469  0.38735793  1  0.060226  0  0.099019  0.086493  0  0.99453  0
H  H24  1  0.18437238  0.62566904  0.44953987  1  0.101107  0  0.101145  0.089031  0  0.990248  0
H  H25  1  0.02819811  0.34994842  0.51376390  1  0.075779  0  0.101476  0.089807  0  0.989302  0
H  H26  1  0.51216903  0.07393577  0.48965319  1  0.097761  0  0.121673  0.129481  0  0.957129  0
H  H27  1  0.53086500  0.84899005  0.48277963  1  0.094874  0  0.120037  0.128291  0  0.959693  0
H  H28  1  0.51002040  0.95115513  0.61937530  1  0.112082  0  0.12101  0.128662  0  0.957518  0
H  H29  1  0.53407707  0.97188732  0.35274229  1  0.107065  0  0.120039  0.128174  0  0.959477  0
H  H30  1  0.57373511  0.61036692  0.95324181  1  0.139317  0  0.125982  0.147228  0  0.947362  0
H  H31  1  0.38409508  0.40942292  0.24228958  1  0.138823  0  0.126007  0.150179  0  0.94999  0
H  H32  1  0.94597643  0.93566720  0.07262509  1  0.171121  0  0.135134  0.159496  0  0.935925  0
H  H33  1  0.16696149  0.14396644  0.79844764  1  0.168976  0  0.13409  0.159533  0  0.93831  0
H  H34  1  0.47106201  0.40608099  0.01172201  1  0.63538  0  0.320577  0.358952  0  0.924996  0
H  H35  1  0.49373753  0.61759453  0.17730586  1  0.647958  0  0.315305  0.354086  0  0.942179  0
C  C36  1  0.08533154  0.72900023  0.00403757  1  0.449391  0  0.030764  -0.030322  0  3.929483  0
C  C37  1  0.92681595  0.24415450  0.98311231  1  0.518615  0  0.017878  -0.038474  0  3.996323  0
C  C38  1  0.75897983  0.27883447  0.15688960  1  0.476652  0  0.024594  -0.040047  0  3.945686  0
C  C39  1  0.21467359  0.67053628  0.81250781  1  0.43761  0  0.023157  -0.027859  0  3.927244  0
C  C40  1  0.83492153  0.61311410  0.93280697  1  0.402285  0  0.031391  -0.027457  0  3.921609  0
C  C41  1  0.17573737  0.43532422  0.02894074  1  0.415922  0  0.013748  -0.049291  0  3.961958  0
C  C42  1  0.04169475  0.41259720  0.20753788  1  0.441422  0  0.02556  -0.034565  0  3.924021  0
C  C43  1  0.05171586  0.56339555  0.76842512  1  0.383498  0  0.023796  -0.018622  0  3.90373  0
C  C44  1  0.77200362  0.48677181  0.03263943  1  0.444615  0  0.030343  -0.021026  0  3.924375  0
C  C45  1  0.22725093  0.55551640  0.01584381  1  0.395466  0  0.02555  -0.034237  0  3.932698  0
C  C46  1  0.05635870  0.53290043  0.16297676  1  0.430062  0  0.006596  -0.055772  0  3.950203  0
C  C47  1  0.96900525  0.43242824  0.83683597  1  0.443313  0  0.024796  -0.021619  0  3.907003  0
C  C48  1  0.84596457  0.29191276  0.20804299  1  0.463604  0  0.023805  -0.026479  0  3.913857  0
C  C49  1  0.17467833  0.74306119  0.73932054  1  0.456906  0  0.028236  -0.033237  0  3.930311  0
C  C50  1  0.99028101  0.71405454  0.96451767  1  0.442555  0  0.022148  -0.03086  0  3.930877  0
C  C51  1  0.04508577  0.31956092  0.96940841  1  0.428144  0  0.016398  -0.040593  0  3.945041  0
C  C52  1  0.03932182  0.76263686  0.98666307  1  0.11987  0  -0.025833  0.025061  0  4.192485  0
C  C53  1  0.00555073  0.26196837  0.95066463  1  0.099894  0  -0.034196  0.005401  0  4.207242  0
C  C54  1  0.76670235  0.24255226  0.22882745  1  0.056776  0  -0.023083  0.042041  0  4.185951  0
C  C55  1  0.23987605  0.73344509  0.73375913  1  0.093144  0  -0.026307  0.030356  0  4.189515  0
C  C56  1  0.76381218  0.55397848  0.00416657  1  0.137968  0  -0.020841  0.040313  0  4.178986  0
C  C57  1  0.23307507  0.48667387  0.04193745  1  0.118074  0  -0.028165  0.029983  0  4.198692  0
C  C58  1  0.06319751  0.47645373  0.22315561  1  0.111063  0  -0.026824  0.052211  0  4.1964  0
C  C59  1  0.03352072  0.49472027  0.76137180  1  0.202931  0  -0.019108  0.058789  0  4.166526  0
C  C60  1  0.03006761  0.45587568  0.53342942  1  -0.03523  0  -0.07046  -0.074017  0  3.635368  0
C  C61  1  0.18137625  0.51951697  0.42973862  1  -0.01209  0  -0.072755  -0.081949  0  3.633429  0
C  C62  1  0.07671533  0.53193700  0.44622335  1  -0.008212  0  -0.072639  -0.076977  0  3.641366  0
C  C63  1  0.13500904  0.44388858  0.51795536  1  -0.032533  0  -0.07133  -0.079507  0  3.634305  0
C  C64  1  0.08503102  0.48145287  0.28523637  1  -0.482391  0  -0.06737  -0.123074  0  4.218521  0
C  C65  1  0.06690298  0.49135486  0.69114588  1  -0.529694  0  -0.065381  -0.123217  0  4.195122  0
C  C66  1  0.06245137  0.41112832  0.50042970  1  -0.042266  0  -0.072497  -0.078221  0  3.635569  0
C  C67  1  0.14939107  0.56441753  0.46338665  1  -0.067819  0  -0.071059  -0.076803  0  3.63472  0
C  C68  1  0.10835726  0.48689362  0.41078293  1  0.089877  0  0.003837  0.132808  0  3.806248  0
C  C69  1  0.10234970  0.48870079  0.55323190  1  0.107458  0  0.004646  0.131178  0  3.795657  0
C  C70  1  0.10262196  0.48513235  0.34008724  1  0.118127  0  -0.061246  -0.132185  0  4.145023  0
C  C71  1  0.09016244  0.48983238  0.62787305  1  0.140011  0  -0.054397  -0.120865  0  4.123385  0
C  C72  1  0.46028692  0.96177466  0.47371925  1  0.309986  0  0.097352  0.057633  0  3.625679  0
C  C73  1  0.58303471  0.96149480  0.49781364  1  0.313551  0  0.095166  0.051573  0  3.619881  0
C  C74  1  0.51634121  0.02380944  0.48887572  1  0.000653  0  -0.057512  -0.102222  0  3.602266  0
C  C75  1  0.52600368  0.89865123  0.48414102  1  0.005214  0  -0.059487  -0.10459  0  3.595025  0
C  C76  1  0.70794028  0.17049208  0.30112300  1  -0.000528  0  -0.036896  -0.059094  0  4.159184  0
C  C77  1  0.31501521  0.78073950  0.66770107  1  -0.254421  0  -0.036279  -0.052123  0  4.155036  0
C  C78  1  0.52839538  0.96665068  0.41222121  1  -0.00194  0  -0.059194  -0.103346  0  3.603758  0
C  C79  1  0.51487016  0.95643208  0.56004412  1  -0.017543  0  -0.058046  -0.099984  0  3.603184  0
C  C80  1  0.58766190  0.03246283  0.42378366  1  0.108617  0  0.023071  0.132795  0  3.779317  0
C  C81  1  0.45488652  0.89095380  0.54875732  1  0.109111  0  0.023821  0.132969  0  3.770338  0
C  C82  1  0.65442170  0.10573331  0.35931555  1  -0.301275  0  -0.061496  -0.143035  0  4.129275  0
C  C83  1  0.38143200  0.82501640  0.61226250  1  -0.066567  0  -0.066094  -0.153054  0  4.118  0
C  C84  1  0.53110320  0.56487691  0.01676706  1  -0.064617  0  -0.064708  -0.169681  0  3.610838  0
C  C85  1  0.42572790  0.45374714  0.17807687  1  -0.057355  0  -0.067487  -0.179126  0  3.601771  0
C  C86  1  0.46584923  0.47741421  0.04817571  1  0.659923  0  0.09998  0.25938  0  3.765507  0
C  C87  1  0.49266746  0.54120718  0.14675086  1  0.670268  0  0.100603  0.257416  0  3.75237  0
C  C88  1  0.28544303  0.47638170  0.07305656  1  -0.488621  0  -0.02633  -0.031629  0  4.130769  0
C  C89  1  0.69565379  0.55497862  0.03787731  1  -0.110049  0  -0.035952  -0.065599  0  4.137364  0
C  C90  1  0.47306256  0.57471153  0.07355607  1  0.292216  0  0.088571  -0.017204  0  3.66497  0
C  C91  1  0.48394992  0.44347491  0.12233289  1  0.310529  0  0.087899  -0.014209  0  3.676941  0
C  C92  1  0.40369447  0.48697246  0.10505804  1  0.117716  0  0.020306  0.088642  0  3.780395  0
C  C93  1  0.55465745  0.53150876  0.08801738  1  0.080056  0  0.019054  0.076174  0  3.750059  0
C  C94  1  0.33286506  0.47358010  0.10006067  1  0.194814  0  -0.072249  -0.153171  0  4.11463  0
C  C95  1  0.63231507  0.54830692  0.06850037  1  -0.163608  0  -0.05869  -0.120181  0  4.099498  0
C  C96  1  0.06575727  0.05842119  0.99334852  1  0.304394  0  0.102276  0.028704  0  3.616449  0
C  C97  1  0.04724659  0.02108249  0.87775124  1  0.313701  0  0.103275  0.032581  0  3.610328  0
C  C98  1  0.99467706  0.98154209  0.01223448  1  -0.00827  0  -0.05174  -0.130793  0  3.590743  0
C  C99  1  0.11798629  0.09853202  0.85881595  1  -0.030447  0  -0.055527  -0.138554  0  3.588654  0
C  C100  1  0.04472116  0.83262562  0.98320974  1  -0.421237  0  -0.018405  -0.016917  0  4.118059  0
C  C101  1  0.03289204  0.22062752  0.92172941  1  -0.523086  0  -0.011057  0.012564  0  4.114095  0
C  C102  1  0.12465878  0.04932836  0.93613883  1  0.31809  0  0.103733  0.034984  0  3.606708  0
C  C103  1  0.98801117  0.02995077  0.93477682  1  0.314736  0  0.104084  0.035066  0  3.613054  0
C  C104  1  0.05293351  0.96792158  0.95705951  1  0.108268  0  0.033256  0.117403  0  3.768591  0
C  C105  1  0.05939838  0.11161092  0.91418300  1  0.100481  0  0.035425  0.126813  0  3.769412  0
C  C106  1  0.04976964  0.89521216  0.97456695  1  0.128497  0  -0.066592  -0.150171  0  4.117607  0
C  C107  1  0.05305504  0.17878339  0.90323417  1  0.227928  0  -0.086909  -0.192743  0  4.098406  0
N  N108  1  0.06544151  0.66679087  0.99164398  1  -0.79035  0  -0.270467  -0.160801  0  3.598649  0
N  N109  1  0.91957617  0.28626572  0.01874506  1  -0.716835  0  -0.259569  -0.230509  0  3.301142  0
N  N110  1  0.82879693  0.34310505  0.09891222  1  -0.822679  0  -0.292261  -0.183371  0  3.756612  0
N  N111  1  0.14092955  0.64553459  0.86089732  1  -0.810137  0  -0.278753  -0.216298  0  3.576072  0
N  N112  1  0.88108087  0.58302193  0.91985123  1  -0.784919  0  -0.269469  -0.182045  0  3.535073  0
N  N113  1  0.13786789  0.47015887  0.99870246  1  -0.772725  0  -0.26952  -0.234506  0  3.428514  0
N  N114  1  0.02416934  0.43087120  0.14342376  1  -0.800626  0  -0.282394  -0.169765  0  3.666438  0
N  N115  1  0.00100308  0.54387919  0.84148889  1  -0.810728  0  -0.278041  -0.208253  0  3.600519  0
N  N116  1  0.84158302  0.50458457  0.98181042  1  -0.834032  0  -0.285707  -0.209218  0  3.624639  0
N  N117  1  0.17073739  0.54461584  0.99045248  1  -0.806875  0  -0.28173  -0.17825  0  3.629932  0
N  N118  1  0.03310641  0.50508060  0.11493413  1  -0.785078  0  -0.282432  -0.232984  0  3.510025  0
N  N119  1  0.95020966  0.46296382  0.88357914  1  -0.830982  0  -0.29852  -0.2005  0  3.702919  0
N  N120  1  0.88296970  0.35175124  0.12940905  1  -0.759355  0  -0.265981  -0.209536  0  3.502889  0
N  N121  1  0.11643517  0.69065062  0.81567537  1  -0.809811  0  -0.27849  -0.186658  0  3.577009  0
N  N122  1  0.00669472  0.65701557  0.96734778  1  -0.78092  0  -0.271698  -0.20424  0  3.521736  0
N  N123  1  0.99269692  0.33238237  0.01041611  1  -0.832196  0  -0.291169  -0.194972  0  3.717212  0
N  N124  1  0.38864712  0.95424768  0.46750219  1  0.385482  0  0.051708  0.51398  0  4.234917  0
N  N125  1  0.65398234  0.96701114  0.50528091  1  0.389049  0  0.054566  0.51571  0  4.232051  0
N  N126  1  0.49485478  0.37572677  0.14539182  1  0.363256  0  0.051719  0.52474  0  4.222451  0
N  N127  1  0.46141953  0.64205669  0.05089146  1  0.374022  0  0.054788  0.527087  0  4.209899  0
N  N128  1  0.07958900  0.08754043  0.04939822  1  0.39038  0  0.056484  0.518444  0  4.245672  0
N  N129  1  0.03426730  0.99264716  0.82080051  1  0.384344  0  0.057283  0.518943  0  4.242525  0
N  N130  1  0.91778687  0.02831412  0.92873074  1  0.391477  0  0.056362  0.514736  0  4.245292  0
N  N131  1  0.19609070  0.05304737  0.94127143  1  0.398221  0  0.057963  0.51536  0  4.239614  0
O  O132  1  0.34826812  0.96654843  0.51412264  1  -0.457123  0  -0.14543  -0.345369  0  1.849409  0
O  O133  1  0.37139295  0.93193847  0.41993077  1  -0.458982  0  -0.147513  -0.344059  0  1.83766  0
O  O134  1  0.67902130  0.00320499  0.54008751  1  -0.444568  0  -0.145472  -0.341785  0  1.838342  0
O  O135  1  0.68537295  0.93833623  0.47306320  1  -0.452268  0  -0.14382  -0.339742  0  1.838115  0
O  O136  1  0.45059047  0.44242911  0.00230528  1  -1.149993  0  -0.365964  -0.454294  0  2.229132  0
O  O137  1  0.50561403  0.57450281  0.19447477  1  -1.16736  0  -0.372691  -0.459565  0  2.231911  0
O  O138  1  0.48443198  0.33763624  0.21674211  1  -0.4293  0  -0.128235  -0.317316  0  1.839542  0
O  O139  1  0.51700092  0.36237820  0.08863408  1  -0.489479  0  -0.148977  -0.366702  0  1.859846  0
O  O140  1  0.45259544  0.66703625  0.98767428  1  -0.439638  0  -0.122405  -0.314141  0  1.857085  0
O  O141  1  0.45794731  0.66833861  0.09964129  1  -0.481452  0  -0.144061  -0.358973  0  1.85822  0
O  O142  1  0.02463405  0.05417341  0.11767382  1  -0.422506  0  -0.125341  -0.31246  0  1.841183  0
O  O143  1  0.14503390  0.14694556  0.02061383  1  -0.428785  0  -0.131663  -0.323008  0  1.852449  0
O  O144  1  0.08781992  0.02974418  0.75079206  1  -0.413012  0  -0.12402  -0.311043  0  1.843671  0
O  O145  1  0.97079352  0.93057471  0.85034222  1  -0.434209  0  -0.135372  -0.329559  0  1.859591  0
O  O146  1  0.92252106  0.05700609  0.85830130  1  -0.418148  0  -0.127402  -0.316009  0  1.854766  0
O  O147  1  0.86206468  0.00308930  0.99331857  1  -0.435747  0  -0.126624  -0.315438  0  1.844153  0
O  O148  1  0.18960117  0.01833334  0.01172088  1  -0.432294  0  -0.127469  -0.315988  0  1.851796  0
O  O149  1  0.25473819  0.08694830  0.87587191  1  -0.418042  0  -0.124466  -0.311473  0  1.841849  0
