# generated using pymatgen
data_Al2H18C25(SO5)2
_symmetry_space_group_name_H-M   'P 1'
_cell_length_a   6.87045792
_cell_length_b   12.57964801
_cell_length_c   15.16315412
_cell_angle_alpha   72.73076880
_cell_angle_beta   79.36108744
_cell_angle_gamma   77.05750219
_symmetry_Int_Tables_number   1
_chemical_formula_structural   Al2H18C25(SO5)2
_chemical_formula_sum   'Al2 H18 C25 S2 O10'
_cell_volume   1209.78486629
_cell_formula_units_Z   1
loop_
 _symmetry_equiv_pos_site_id
 _symmetry_equiv_pos_as_xyz
  1  'x, y, z'
loop_
 _atom_site_type_symbol
 _atom_site_label
 _atom_site_symmetry_multiplicity
 _atom_site_fract_x
 _atom_site_fract_y
 _atom_site_fract_z
 _atom_site_occupancy
 _atom_site_pbe_bader_charge
 _atom_site_pbe_bader_spin_density
 _atom_site_pbe_cm5_charge
 _atom_site_pbe_ddec_charge
 _atom_site_pbe_ddec_spin_density
 _atom_site_pbe_ddec_sum_bond_order
 _atom_site_pbe_magmom
Al  Al0  1  0.49736970  0.49723962  0.50276795  1  2.509002  0  0.407569  1.638741  0  2.558063  0
Al  Al1  1  0.99715592  0.49807803  0.50245455  1  2.507517  0  0.403398  1.642007  0  2.566132  0
H  H2  1  0.27153458  0.36179712  0.57874110  1  0.615605  0  0.345209  0.421022  0  0.866194  0
H  H3  1  0.75958207  0.58066510  0.38780214  1  0.592432  0  0.343669  0.418575  0  0.872359  0
H  H4  1  0.81468328  0.55425106  0.93647231  1  0.034299  0  0.096989  0.096891  0  1.031081  0
H  H5  1  0.24057434  0.40714071  0.07371973  1  0.039958  0  0.099119  0.100064  0  1.024946  0
H  H6  1  0.58729188  0.60433599  0.21734296  1  0.068223  0  0.105345  0.104469  0  0.999972  0
H  H7  1  0.67718390  0.61610799  0.05002682  1  0.048733  0  0.102055  0.103021  0  1.008369  0
H  H8  1  0.34760666  0.46155102  0.77139437  1  0.096478  0  0.106086  0.105492  0  1.039498  0
H  H9  1  0.24010079  0.47144224  0.93381927  1  0.077578  0  0.099019  0.097341  0  1.024569  0
H  H10  1  0.60595270  0.11984465  0.52601109  1  0.101915  0  0.110189  0.128989  0  1.009599  0
H  H11  1  0.04030392  0.58969825  0.80911041  1  0.010714  0  0.085808  0.118912  0  1.023235  0
H  H12  1  0.95440563  0.63335023  0.69773615  1  0.046455  0  0.095062  0.136421  0  1.007714  0
H  H13  1  0.06917568  0.49292158  0.73955328  1  0.071515  0  0.101518  0.148741  0  0.997558  0
H  H14  1  0.94891203  0.44417510  0.26704211  1  0.044273  0  0.095633  0.138986  0  0.997691  0
H  H15  1  0.12934116  0.32869322  0.31608309  1  0.070364  0  0.08816  0.124425  0  1.031443  0
H  H16  1  0.05321062  0.33812582  0.20739746  1  0.038489  0  0.089932  0.124381  0  0.998213  0
H  H17  1  0.52072270  0.79542545  0.47006219  1  0.113508  0  0.102941  0.160483  0  1.007402  0
H  H18  1  0.48792174  0.88480285  0.54467851  1  0.048935  0  0.090256  0.130408  0  1.0128  0
H  H19  1  0.50544379  0.94512138  0.42246477  1  0.042848  0  0.090704  0.129219  0  0.995905  0
C  C20  1  0.82516220  0.29775721  0.51379575  1  1.583465  0  0.257857  0.65257  0  4.131177  0
C  C21  1  0.68259591  0.49542418  0.66348382  1  1.549262  0  0.270686  0.655125  0  4.071588  0
C  C22  1  0.17077968  0.69542870  0.49358679  1  1.608631  0  0.263473  0.657237  0  4.126117  0
C  C23  1  0.31040937  0.50705673  0.33848261  1  1.545419  0  0.26828  0.66057  0  4.066525  0
C  C24  1  0.63583246  0.50397871  0.76140385  1  0.013436  0  -0.019513  -0.119234  0  3.929111  0
C  C25  1  0.35575499  0.50636942  0.23860203  1  -0.005067  0  -0.019712  -0.113973  0  3.929328  0
C  C26  1  0.76891475  0.53342907  0.80751691  1  -0.041209  0  0.005493  0.180576  0  3.941071  0
C  C27  1  0.70860469  0.53491568  0.90058546  1  0.016476  0  -0.095222  -0.204423  0  3.933072  0
C  C28  1  0.25259212  0.45152496  0.19757399  1  0.023487  0  0.003684  0.172926  0  3.940353  0
C  C29  1  0.31345627  0.45432083  0.10378738  1  -0.04574  0  -0.093579  -0.200187  0  3.932112  0
C  C30  1  0.50999265  0.56267838  0.18426120  1  -0.056971  0  -0.085764  -0.084468  0  4.029574  0
C  C31  1  0.56192410  0.56779958  0.09042884  1  -0.002692  0  -0.095385  -0.142285  0  4.001329  0
C  C32  1  0.44808819  0.48173190  0.80910889  1  -0.014266  0  -0.083851  -0.077265  0  4.020947  0
C  C33  1  0.38986600  0.48631735  0.90054053  1  -0.08074  0  -0.097925  -0.150073  0  4.006463  0
C  C34  1  0.52149831  0.51147131  0.94927550  1  -0.063266  0  -0.002862  0.08433  0  4.011606  0
C  C35  1  0.46528251  0.51197507  0.04812039  1  -0.032353  0  -0.004328  0.080879  0  4.007977  0
C  C36  1  0.22569841  0.89463424  0.48944219  1  0.13416  0  -0.008488  0.149219  0  4.015597  0
C  C37  1  0.76965966  0.10039954  0.51678861  1  0.052812  0  -0.090114  -0.131793  0  3.971026  0
C  C38  1  0.11104182  0.81381118  0.49739825  1  -0.207673  0  -0.025018  -0.203298  0  3.953278  0
C  C39  1  0.88695980  0.17937295  0.51022075  1  -0.195079  0  -0.020687  -0.124046  0  3.973909  0
C  C40  1  0.89153091  0.99557178  0.51004288  1  -0.172934  0  -0.026464  -0.018776  0  4.094408  0
C  C41  1  0.09900092  0.99780140  0.49697644  1  -0.220253  0  -0.025065  -0.080385  0  4.056934  0
C  C42  1  0.96904578  0.56397883  0.76166342  1  -0.023134  0  -0.239461  -0.414404  0  3.955368  0
C  C43  1  0.08774799  0.38706143  0.24979410  1  -0.072368  0  -0.23973  -0.408626  0  3.96611  0
C  C44  1  0.44731441  0.87837218  0.47980642  1  -0.092744  0  -0.244972  -0.417766  0  4.011888  0
S  S45  1  0.85469482  0.86320198  0.51369207  1  0.294645  0  0.102013  0.132673  0  3.020265  0
S  S46  1  0.14472816  0.12740494  0.49531534  1  0.240516  0  0.084163  0.120376  0  2.822785  0
O  O47  1  0.63861678  0.34159183  0.51510958  1  -1.256268  0  -0.239325  -0.588674  0  2.297504  0
O  O48  1  0.86421582  0.49224734  0.62487909  1  -1.261128  0  -0.230474  -0.584358  0  2.377314  0
O  O49  1  0.02533788  0.64806306  0.49191142  1  -1.258085  0  -0.238385  -0.596713  0  2.365852  0
O  O50  1  0.45903877  0.50958075  0.37731826  1  -1.266103  0  -0.243159  -0.617226  0  2.346298  0
O  O51  1  0.35596149  0.64958236  0.49217859  1  -1.256842  0  -0.228513  -0.568034  0  2.334205  0
O  O52  1  0.12859136  0.50719769  0.37690173  1  -1.264005  0  -0.23568  -0.599297  0  2.346648  0
O  O53  1  0.97041371  0.34566497  0.51523196  1  -1.260521  0  -0.24303  -0.614811  0  2.370322  0
O  O54  1  0.53577126  0.48978246  0.62513922  1  -1.267771  0  -0.238182  -0.600102  0  2.35501  0
O  O55  1  0.25167364  0.44212345  0.54777462  1  -1.423006  0  -0.449809  -0.977532  0  2.134187  0
O  O56  1  0.74471979  0.55021753  0.45491262  1  -1.400932  0  -0.44961  -0.97732  0  2.13428  0
