# generated using pymatgen
data_ZnMo2H14C6S4(NO4)2
_symmetry_space_group_name_H-M   'P 1'
_cell_length_a   8.62412802
_cell_length_b   9.93303093
_cell_length_c   10.20690062
_cell_angle_alpha   89.99963016
_cell_angle_beta   90.00024212
_cell_angle_gamma   107.98114454
_symmetry_Int_Tables_number   1
_chemical_formula_structural   ZnMo2H14C6S4(NO4)2
_chemical_formula_sum   'Zn2 Mo4 H28 C12 S8 N4 O16'
_cell_volume   831.65577300
_cell_formula_units_Z   2
loop_
 _symmetry_equiv_pos_site_id
 _symmetry_equiv_pos_as_xyz
  1  'x, y, z'
loop_
 _atom_site_type_symbol
 _atom_site_label
 _atom_site_symmetry_multiplicity
 _atom_site_fract_x
 _atom_site_fract_y
 _atom_site_fract_z
 _atom_site_occupancy
 _atom_site_hle17_bader_spin_density
 _atom_site_hle17_ddec_charge
 _atom_site_hle17_ddec_spin_density
 _atom_site_hle17_ddec_sum_bond_order
 _atom_site_hle17_magmom
 _atom_site_hse06_10hf_bader_spin_density
 _atom_site_hse06_10hf_ddec_charge
 _atom_site_hse06_10hf_ddec_spin_density
 _atom_site_hse06_10hf_ddec_sum_bond_order
 _atom_site_hse06_10hf_magmom
 _atom_site_hse06_bader_spin_density
 _atom_site_hse06_ddec_charge
 _atom_site_hse06_ddec_spin_density
 _atom_site_hse06_ddec_sum_bond_order
 _atom_site_hse06_magmom
 _atom_site_pbe_bader_spin_density
 _atom_site_pbe_cm5_charge
 _atom_site_pbe_ddec_charge
 _atom_site_pbe_ddec_spin_density
 _atom_site_pbe_ddec_sum_bond_order
 _atom_site_pbe_magmom
Zn  Zn0  1  0.46327798  0.15704317  0.40640186  1  0  0.918024  0  1.9316  0  0  0.771368  0  2.375255  0  0  0.811955  0  2.328944  0  0  0.550947  0.743049  0  2.40698  0
Zn  Zn1  1  0.53672205  0.84295648  0.90640081  1  0  0.918055  0  1.931596  0  0  0.771396  0  2.375256  0  0  0.811984  0  2.328944  0  0  0.550977  0.743082  0  2.406981  0
Mo  Mo2  1  0.05407951  0.19074504  0.41003191  1  0  1.249286  0  4.293845  0  0  1.238885  0  4.84823  0  0  1.296317  0  4.852151  0  0  1.077305  1.200754  0  4.844767  0
Mo  Mo3  1  0.94592131  0.80925354  0.91003350  1  0  1.249346  0  4.293775  0  0  1.238926  0  4.848169  0  0  1.296361  0  4.852084  0  0  1.077336  1.200795  0  4.844709  0
Mo  Mo4  1  0.88350654  0.38546762  0.46741063  1  0  1.253144  0  4.252595  0  0  1.247492  0  4.802592  0  0  1.304712  0  4.805109  0  0  1.077142  1.209113  0  4.800359  0
Mo  Mo5  1  0.11649599  0.61453167  0.96741244  1  0  1.253105  0  4.252697  0  0  1.247465  0  4.802689  0  0  1.304684  0  4.805205  0  0  1.077153  1.209091  0  4.800451  0
H  H6  1  0.92600497  0.96487789  0.22957275  1  0  0.288944  0  0.928786  0  0  0.278881  0  0.989426  0  0  0.285902  0  0.984734  0  0  0.271321  0.273761  0  0.993115  0
H  H7  1  0.07399147  0.03512070  0.72957311  1  0  0.288969  0  0.928784  0  0  0.278905  0  0.989419  0  0  0.285926  0  0.984727  0  0  0.271328  0.273787  0  0.993111  0
H  H8  1  0.12418009  0.99295774  0.24224011  1  0  0.314642  0  0.888024  0  0  0.303063  0  0.948328  0  0  0.31093  0  0.94222  0  0  0.297021  0.297388  0  0.952909  0
H  H9  1  0.87581677  0.00704183  0.74223861  1  0  0.314659  0  0.888013  0  0  0.303089  0  0.948316  0  0  0.310957  0  0.942207  0  0  0.29705  0.297438  0  0.952868  0
H  H10  1  0.89589045  0.50971838  0.71516912  1  0  0.308127  0  0.897924  0  0  0.298072  0  0.957359  0  0  0.304684  0  0.953022  0  0  0.292825  0.293478  0  0.960363  0
H  H11  1  0.10411285  0.49028665  0.21517466  1  0  0.308127  0  0.897896  0  0  0.29809  0  0.957292  0  0  0.304701  0  0.952957  0  0  0.292824  0.293495  0  0.960293  0
H  H12  1  0.83364589  0.60813279  0.60772962  1  0  0.319742  0  0.890584  0  0  0.30451  0  0.954948  0  0  0.312621  0  0.948634  0  0  0.296414  0.298869  0  0.959419  0
H  H13  1  0.16635941  0.39187288  0.10773991  1  0  0.319685  0  0.890554  0  0  0.304436  0  0.954971  0  0  0.312557  0  0.948631  0  0  0.296412  0.298783  0  0.959472  0
H  H14  1  0.24197359  0.86809253  0.39652653  1  0  0.111299  0  0.93467  0  0  0.129076  0  0.989987  0  0  0.13057  0  0.989737  0  0  0.105851  0.128099  0  0.990087  0
H  H15  1  0.75802372  0.13190613  0.89652970  1  0  0.111318  0  0.934679  0  0  0.129063  0  0.990012  0  0  0.130558  0  0.989758  0  0  0.105836  0.128086  0  0.990116  0
H  H16  1  0.13434619  0.80934842  0.54450092  1  0  0.114113  0  0.942896  0  0  0.1345  0  0.995473  0  0  0.13621  0  0.994877  0  0  0.093541  0.133325  0  0.995793  0
H  H17  1  0.86565479  0.19064598  0.04450124  1  0  0.114146  0  0.942843  0  0  0.134496  0  0.995443  0  0  0.136206  0  0.994847  0  0  0.093547  0.133322  0  0.995761  0
H  H18  1  0.95337777  0.76466965  0.34286050  1  0  0.09805  0  0.934581  0  0  0.112234  0  0.99027  0  0  0.114928  0  0.988594  0  0  0.10957  0.110162  0  0.991566  0
H  H19  1  0.04661825  0.23532615  0.84286148  1  0  0.098134  0  0.934559  0  0  0.112287  0  0.990304  0  0  0.114982  0  0.988629  0  0  0.109602  0.110213  0  0.991597  0
H  H20  1  0.55360530  0.56862808  0.54998890  1  0  0.125706  0  0.920342  0  0  0.142888  0  0.971789  0  0  0.144891  0  0.970669  0  0  0.108816  0.141426  0  0.972575  0
H  H21  1  0.44640100  0.43137793  0.05000484  1  0  0.125743  0  0.920363  0  0  0.142926  0  0.97179  0  0  0.144928  0  0.970674  0  0  0.108865  0.141462  0  0.97258  0
H  H22  1  0.41106384  0.39900695  0.58219581  1  0  0.106054  0  0.952243  0  0  0.12244  0  1.015048  0  0  0.123327  0  1.015456  0  0  0.093495  0.121717  0  1.014881  0
H  H23  1  0.58893944  0.60099992  0.08220729  1  0  0.106067  0  0.952236  0  0  0.122453  0  1.015014  0  0  0.123343  0  1.015417  0  0  0.093465  0.121728  0  1.014843  0
H  H24  1  0.61850864  0.48327172  0.76447848  1  0  0.091753  0  0.921041  0  0  0.104382  0  0.975557  0  0  0.106822  0  0.974238  0  0  0.112972  0.102592  0  0.976738  0
H  H25  1  0.38149324  0.51673513  0.26448975  1  0  0.091731  0  0.920991  0  0  0.10434  0  0.975488  0  0  0.106781  0  0.974168  0  0  0.112972  0.102549  0  0.976671  0
H  H26  1  0.34086581  0.15898152  0.15770910  1  0  0.438479  0  0.85111  0  0  0.401765  0  0.929406  0  0  0.414541  0  0.910702  0  0  0.299475  0.392942  0  0.942246  0
H  H27  1  0.65913820  0.84101327  0.65770948  1  0  0.438413  0  0.85118  0  0  0.401694  0  0.929501  0  0  0.41447  0  0.910797  0  0  0.299447  0.39287  0  0.942341  0
H  H28  1  0.43019910  0.03974102  0.16218798  1  0  0.449502  0  0.804932  0  0  0.420239  0  0.877106  0  0  0.430395  0  0.864601  0  0  0.316382  0.412874  0  0.886212  0
H  H29  1  0.56978844  0.96023997  0.66218044  1  0  0.449532  0  0.804897  0  0  0.420266  0  0.877085  0  0  0.430422  0  0.864576  0  0  0.316391  0.412901  0  0.88619  0
H  H30  1  0.51770915  0.91446774  0.37499145  1  0  0.44188  0  0.860783  0  0  0.40895  0  0.926746  0  0  0.420564  0  0.910079  0  0  0.291406  0.400834  0  0.938312  0
H  H31  1  0.48229116  0.08553316  0.87497531  1  0  0.441781  0  0.860935  0  0  0.408849  0  0.926885  0  0  0.420463  0  0.910219  0  0  0.291366  0.400731  0  0.938452  0
H  H32  1  0.66345575  0.01808888  0.46127533  1  0  0.423214  0  0.880037  0  0  0.392695  0  0.949772  0  0  0.402961  0  0.935075  0  0  0.293146  0.385452  0  0.960152  0
H  H33  1  0.33654826  0.98191469  0.96126683  1  0  0.423111  0  0.880128  0  0  0.39258  0  0.949904  0  0  0.402847  0  0.935209  0  0  0.293125  0.385342  0  0.960276  0
C  C34  1  0.99283963  0.86873065  0.39111976  1  0  0.048793  0  3.616606  0  0  0.026351  0  3.86439  0  0  0.02574  0  3.875268  0  0  -0.008469  0.026839  0  3.856723  0
C  C35  1  0.00716039  0.13126593  0.89112124  1  0  0.04879  0  3.616684  0  0  0.026294  0  3.864634  0  0  0.02567  0  3.875508  0  0  -0.008439  0.026796  0  3.85697  0
C  C36  1  0.86306264  0.88235261  0.48644029  1  0  0.655786  0  3.780441  0  0  0.604577  0  4.079892  0  0  0.637797  0  4.072506  0  0  0.221567  0.582379  0  4.083962  0
C  C37  1  0.13693079  0.11763388  0.98643449  1  0  0.656032  0  3.779984  0  0  0.60475  0  4.07957  0  0  0.638003  0  4.072155  0  0  0.221711  0.582545  0  4.083646  0
C  C38  1  0.15193655  0.88614898  0.46434710  1  0  -0.115395  0  3.553374  0  0  -0.154777  0  3.807562  0  0  -0.152128  0  3.815992  0  0  -0.149652  -0.156577  0  3.801607  0
C  C39  1  0.84806249  0.11385033  0.96434679  1  0  -0.115461  0  3.553338  0  0  -0.154737  0  3.807481  0  0  -0.15209  0  3.815921  0  0  -0.149629  -0.156539  0  3.801529  0
C  C40  1  0.64921231  0.43675399  0.67435632  1  0  0.056615  0  3.606602  0  0  0.036405  0  3.849563  0  0  0.035827  0  3.8604  0  0  -0.007876  0.036769  0  3.842343  0
C  C41  1  0.35078930  0.56325339  0.17436522  1  0  0.056555  0  3.606774  0  0  0.036536  0  3.849453  0  0  0.035956  0  3.860292  0  0  -0.00784  0.036899  0  3.842226  0
C  C42  1  0.62590850  0.27956199  0.69387396  1  0  0.644316  0  3.85569  0  0  0.60063  0  4.155783  0  0  0.634137  0  4.147518  0  0  0.205244  0.577948  0  4.16059  0
C  C43  1  0.37409201  0.72044528  0.19388001  1  0  0.644331  0  3.855747  0  0  0.600519  0  4.155993  0  0  0.634024  0  4.147732  0  0  0.205137  0.577846  0  4.160791  0
C  C44  1  0.53977466  0.45594350  0.56262773  1  0  -0.129387  0  3.567795  0  0  -0.170625  0  3.827833  0  0  -0.167966  0  3.837087  0  0  -0.147955  -0.17224  0  3.821371  0
C  C45  1  0.46022935  0.54406244  0.06263910  1  0  -0.129442  0  3.567908  0  0  -0.170691  0  3.827852  0  0  -0.168037  0  3.837119  0  0  -0.147976  -0.172307  0  3.821396  0
S  S46  1  0.07392514  0.32564927  0.59828652  1  0  -0.526691  0  1.998738  0  0  -0.574755  0  2.37501  0  0  -0.591029  0  2.375326  0  0  -0.381418  -0.563166  0  2.37445  0
S  S47  1  0.92607751  0.67434904  0.09828894  1  0  -0.526679  0  1.99869  0  0  -0.574737  0  2.374945  0  0  -0.591014  0  2.37526  0  0  -0.381424  -0.563145  0  2.374376  0
S  S48  1  0.83387274  0.22282057  0.29588297  1  0  -0.597304  0  2.067126  0  0  -0.632901  0  2.450515  0  0  -0.650541  0  2.448188  0  0  -0.394974  -0.620664  0  2.452116  0
S  S49  1  0.16612622  0.77717763  0.79588199  1  0  -0.597286  0  2.067087  0  0  -0.632898  0  2.450486  0  0  -0.650538  0  2.448154  0  0  -0.394966  -0.620663  0  2.45209  0
S  S50  1  0.22729538  0.06479600  0.53610418  1  0  -0.357241  0  2.270446  0  0  -0.325674  0  2.657253  0  0  -0.3423  0  2.648404  0  0  -0.17991  -0.314057  0  2.663272  0
S  S51  1  0.77270247  0.93519950  0.03610346  1  0  -0.35725  0  2.270483  0  0  -0.325692  0  2.657266  0  0  -0.342322  0  2.648416  0  0  -0.179928  -0.314073  0  2.663284  0
S  S52  1  0.60173194  0.39486721  0.40699117  1  0  -0.313414  0  2.290279  0  0  -0.280495  0  2.677097  0  0  -0.298523  0  2.668765  0  0  -0.166062  -0.268673  0  2.682894  0
S  S53  1  0.39826887  0.60513139  0.90699992  1  0  -0.313333  0  2.290299  0  0  -0.280451  0  2.677116  0  0  -0.298481  0  2.668787  0  0  -0.166023  -0.268629  0  2.682915  0
N  N54  1  0.02091154  0.98580722  0.29587328  1  0  -0.600369  0  3.149339  0  0  -0.565868  0  3.384835  0  0  -0.585087  0  3.389995  0  0  -0.635846  -0.553084  0  3.381766  0
N  N55  1  0.97908432  0.01419203  0.79587209  1  0  -0.600481  0  3.149368  0  0  -0.565927  0  3.384826  0  0  -0.585143  0  3.38998  0  0  -0.635903  -0.553171  0  3.381727  0
N  N56  1  0.82084263  0.50558188  0.63614207  1  0  -0.604302  0  3.143415  0  0  -0.568226  0  3.381123  0  0  -0.586678  0  3.384657  0  0  -0.63696  -0.555886  0  3.378708  0
N  N57  1  0.17916006  0.49442256  0.13614981  1  0  -0.604187  0  3.143322  0  0  -0.568154  0  3.38105  0  0  -0.5866  0  3.384583  0  0  -0.636991  -0.55582  0  3.378629  0
O  O58  1  0.21649905  0.28237581  0.31776492  1  0  -0.57815  0  1.751866  0  0  -0.558288  0  2.039658  0  0  -0.587026  0  2.045052  0  0  -0.498491  -0.539489  0  2.035778  0
O  O59  1  0.78350151  0.71762332  0.81776749  1  0  -0.578167  0  1.75191  0  0  -0.558295  0  2.039671  0  0  -0.587028  0  2.045064  0  0  -0.498493  -0.539504  0  2.035805  0
O  O60  1  0.99704286  0.53931909  0.39624281  1  0  -0.55026  0  1.617732  0  0  -0.527712  0  1.872237  0  0  -0.554596  0  1.875142  0  0  -0.495807  -0.510526  0  1.870297  0
O  O61  1  0.00295752  0.46068169  0.89624616  1  0  -0.55026  0  1.617784  0  0  -0.527721  0  1.872295  0  0  -0.554605  0  1.875201  0  0  -0.495821  -0.510538  0  1.870358  0
O  O62  1  0.77076720  0.77823092  0.54607364  1  0  -0.571388  0  1.983223  0  0  -0.511177  0  2.196263  0  0  -0.534689  0  2.187447  0  0  -0.284077  -0.494927  0  2.201532  0
O  O63  1  0.22924376  0.22177194  0.04607247  1  0  -0.571561  0  1.982563  0  0  -0.511352  0  2.195683  0  0  -0.534876  0  2.186844  0  0  -0.284217  -0.495097  0  2.200957  0
O  O64  1  0.86063445  0.01088147  0.50371562  1  0  -0.633835  0  2.176265  0  0  -0.571443  0  2.420525  0  0  -0.601072  0  2.417012  0  0  -0.332448  -0.551094  0  2.422653  0
O  O65  1  0.13936560  0.98911740  0.00370937  1  0  -0.633969  0  2.176443  0  0  -0.571506  0  2.420746  0  0  -0.601131  0  2.41717  0  0  -0.332537  -0.551156  0  2.422864  0
O  O66  1  0.52623197  0.21255834  0.77835801  1  0  -0.609178  0  1.966542  0  0  -0.563628  0  2.185749  0  0  -0.586736  0  2.174312  0  0  -0.323398  -0.547572  0  2.192927  0
O  O67  1  0.47375762  0.78744313  0.27836987  1  0  -0.6092  0  1.966603  0  0  -0.563628  0  2.185886  0  0  -0.586736  0  2.17445  0  0  -0.323356  -0.547579  0  2.193063  0
O  O68  1  0.70838441  0.22748776  0.61455048  1  0  -0.629276  0  2.07587  0  0  -0.577337  0  2.327147  0  0  -0.607106  0  2.323008  0  0  -0.330232  -0.556493  0  2.3289  0
O  O69  1  0.29162166  0.77251998  0.11454905  1  0  -0.629299  0  2.075749  0  0  -0.577315  0  2.327024  0  0  -0.607085  0  2.322881  0  0  -0.330218  -0.556476  0  2.328773  0
O  O70  1  0.38819933  0.10108119  0.21749539  1  0  -0.814965  0  1.975071  0  0  -0.744442  0  2.212347  0  0  -0.764384  0  2.175395  0  0  -0.566803  -0.730202  0  2.237698  0
O  O71  1  0.61179906  0.89891323  0.71749426  1  0  -0.814938  0  1.975074  0  0  -0.744425  0  2.212384  0  0  -0.764365  0  2.175434  0  0  -0.566775  -0.730187  0  2.23774  0
O  O72  1  0.54423778  0.99033836  0.44562386  1  0  -0.826309  0  1.988509  0  0  -0.752061  0  2.20506  0  0  -0.775984  0  2.170606  0  0  -0.574071  -0.735113  0  2.228706  0
O  O73  1  0.45576581  0.00966425  0.94560909  1  0  -0.826121  0  1.988683  0  0  -0.751827  0  2.205258  0  0  -0.775759  0  2.170813  0  0  -0.573997  -0.73488  0  2.228901  0
