# generated using pymatgen
data_CuH8C10(NCl)2
_symmetry_space_group_name_H-M   'P 1'
_cell_length_a   7.94498032
_cell_length_b   9.04299596
_cell_length_c   8.72141931
_cell_angle_alpha   121.20162336
_cell_angle_beta   107.32332675
_cell_angle_gamma   90.03432143
_symmetry_Int_Tables_number   1
_chemical_formula_structural   CuH8C10(NCl)2
_chemical_formula_sum   'Cu2 H16 C20 N4 Cl4'
_cell_volume   502.36767230
_cell_formula_units_Z   2
loop_
 _symmetry_equiv_pos_site_id
 _symmetry_equiv_pos_as_xyz
  1  'x, y, z'
loop_
 _atom_site_type_symbol
 _atom_site_label
 _atom_site_symmetry_multiplicity
 _atom_site_fract_x
 _atom_site_fract_y
 _atom_site_fract_z
 _atom_site_occupancy
 _atom_site_hle17_ddec_charge
 _atom_site_hle17_ddec_spin_density
 _atom_site_hle17_ddec_sum_bond_order
 _atom_site_hle17_magmom
 _atom_site_hse06_10hf_ddec_charge
 _atom_site_hse06_10hf_ddec_spin_density
 _atom_site_hse06_10hf_ddec_sum_bond_order
 _atom_site_hse06_10hf_magmom
 _atom_site_hse06_ddec_charge
 _atom_site_hse06_ddec_spin_density
 _atom_site_hse06_ddec_sum_bond_order
 _atom_site_hse06_magmom
 _atom_site_pbe_cm5_charge
 _atom_site_pbe_ddec_charge
 _atom_site_pbe_ddec_spin_density
 _atom_site_pbe_ddec_sum_bond_order
 _atom_site_pbe_magmom
Cu  Cu0  1  0.75020589  0.56280770  0.00016100  1  0.723303  -0.649347  1.898778  -0.445  0.686084  -0.747472  2.327579  -0.561  0.777842  -0.828927  2.250738  -0.643  0.585457  0.635711  -0.695516  2.375266  -0.512
Cu  Cu1  1  0.24979351  0.43718826  0.99982968  1  0.723273  0.649342  1.898853  0.445  0.686057  0.747465  2.327655  0.561  0.777853  0.828929  2.250814  0.643  0.58544  0.635689  0.695511  2.37535  0.512
H  H2  1  0.10195513  0.77818507  0.33517653  1  0.076488  -0.000852  0.988864  -0.002  0.083736  -0.000908  1.057665  -0.002  0.085651  -0.000652  1.055827  -0.001  0.102189  0.08217  -0.001136  1.059183  -0.002
H  H3  1  0.39823205  0.44256096  0.66523495  1  0.077193  -0.00086  0.987712  -0.002  0.084396  -0.000913  1.05666  -0.002  0.086264  -0.000655  1.054869  -0.001  0.102249  0.082863  -0.001136  1.058143  -0.002
H  H4  1  0.89804443  0.22179895  0.66480728  1  0.076435  0.000853  0.988901  0.002  0.083666  0.000909  1.057737  0.002  0.085574  0.000652  1.055915  0.001  0.102168  0.082098  0.001137  1.059258  0.002
H  H5  1  0.60177670  0.55744234  0.33475595  1  0.077224  0.000858  0.987638  0.002  0.084418  0.000915  1.056595  0.002  0.086286  0.000655  1.054803  0.001  0.10228  0.082872  0.001137  1.058088  0.002
H  H6  1  0.27032062  0.09173224  0.51476711  1  0.108452  -0.001952  0.965013  -0.001  0.117518  -0.001758  1.029843  -0.001  0.120923  -0.001336  1.028745  -0.001  0.097455  0.115091  -0.002071  1.03078  -0.001
H  H7  1  0.22991531  0.57582255  0.48485649  1  0.108108  -0.001986  0.965601  -0.001  0.117414  -0.001784  1.030287  -0.001  0.120823  -0.001355  1.029174  -0.001  0.097068  0.114944  -0.002086  1.031323  -0.001
H  H8  1  0.72968588  0.90825914  0.48523355  1  0.108505  0.001951  0.965029  0.001  0.117565  0.001758  1.029849  0.001  0.12097  0.001336  1.02875  0.001  0.097437  0.115137  0.002071  1.030794  0.001
H  H9  1  0.77007661  0.42417518  0.51513768  1  0.108102  0.001985  0.965625  0.001  0.117392  0.001785  1.030319  0.001  0.120799  0.001354  1.029211  0.001  0.097063  0.114922  0.002086  1.031354  0.001
H  H10  1  0.86035707  0.17048750  0.12674498  1  0.117581  -0.00067  0.972006  -0.001  0.12748  -0.000732  1.032989  -0.001  0.131475  -0.000537  1.030789  -0.001  0.100089  0.124719  -0.00087  1.034439  -0.001
H  H11  1  0.63914668  0.04325731  0.87275196  1  0.116844  -0.000683  0.97323  -0.001  0.127079  -0.000744  1.033875  -0.001  0.13097  -0.000545  1.031864  -0.001  0.099897  0.124387  -0.000879  1.035213  -0.001
H  H12  1  0.13963971  0.82952088  0.87325789  1  0.117603  0.000672  0.97199  0.001  0.127467  0.000732  1.033009  0.001  0.131443  0.000537  1.030836  0.001  0.100071  0.124702  0.000871  1.034461  0.001
H  H13  1  0.36084315  0.95675485  0.12726471  1  0.116803  0.000683  0.973224  0.001  0.127038  0.000744  1.033873  0.001  0.130927  0.000545  1.031856  0.001  0.099912  0.124348  0.000879  1.035205  0.001
H  H14  1  0.13737795  0.29038301  0.40959300  1  0.09721  -0.000543  0.947076  0.0  0.110342  -0.000404  1.004715  0.0  0.112832  -0.0003  1.002561  0.0  0.105312  0.108566  -0.000481  1.006174  0.0
H  H15  1  0.36250225  0.87954484  0.58950270  1  0.097039  -0.000539  0.947245  0.0  0.11022  -0.000398  1.004886  0.0  0.112727  -0.000296  1.002717  0.0  0.105055  0.108446  -0.000478  1.006358  0.0
H  H16  1  0.86262239  0.70961662  0.59041347  1  0.097153  0.000542  0.947088  0.0  0.110322  0.000404  1.004679  0.0  0.112811  0.0003  1.002528  0.0  0.10532  0.108548  0.000481  1.006138  0.0
H  H17  1  0.63748926  0.12046236  0.41051662  1  0.096983  0.000537  0.947205  0.0  0.110173  0.000398  1.004854  0.0  0.112683  0.000297  1.002686  0.0  0.105035  0.108401  0.000478  1.006326  0.0
C  C18  1  0.83224600  0.91158730  0.08418323  1  0.173953  0.001914  3.762226  0.002  0.171092  -0.000846  4.002579  0.0  0.178979  0.000252  4.02384  0.001  0.116895  0.166045  -0.001652  3.988616  -0.001
C  C19  1  0.66747987  0.82727699  0.91589371  1  0.174474  0.001931  3.761602  0.002  0.171042  -0.000846  4.002484  0.0  0.178946  0.00025  4.023721  0.001  0.116509  0.166  -0.001651  3.988511  -0.001
C  C20  1  0.16775890  0.08841507  0.91582805  1  0.173797  -0.001884  3.762386  -0.002  0.171084  0.000844  4.002609  0.0  0.178971  -0.00025  4.023866  -0.001  0.116884  0.166044  0.001652  3.988635  0.001
C  C21  1  0.33251697  0.17272506  0.08410958  1  0.174489  -0.001945  3.761671  -0.002  0.170963  0.000844  4.002624  0.0  0.178869  -0.000252  4.023858  -0.001  0.116524  0.165917  0.00165  3.988657  0.001
C  C22  1  0.05440488  0.87104372  0.29601625  1  0.138307  0.005727  3.706719  0.007  0.109959  0.000884  3.954011  0.002  0.119552  0.001905  3.97352  0.003  0.046438  0.103989  6.1e-05  3.941328  0.001
C  C23  1  0.44571541  0.57451973  0.70418731  1  0.136868  0.005748  3.706097  0.007  0.108295  0.000879  3.953865  0.002  0.117888  0.001898  3.973452  0.003  0.046201  0.102322  5.8e-05  3.941122  0.001
C  C24  1  0.94561202  0.12895955  0.70399514  1  0.138424  -0.005711  3.706718  -0.007  0.110088  -0.000883  3.954072  -0.002  0.119679  -0.001903  3.973582  -0.003  0.046511  0.104125  -6.2e-05  3.941386  -0.001
C  C25  1  0.55428801  0.42547697  0.29579787  1  0.136884  -0.005752  3.706004  -0.007  0.108325  -0.000882  3.953737  -0.002  0.117921  -0.001898  3.973325  -0.003  0.046178  0.102367  -5.8e-05  3.940992  -0.001
C  C26  1  0.14527403  0.04377907  0.39382458  1  -0.110311  -0.00851  3.70686  -0.009  -0.121362  -0.005045  3.953071  -0.006  -0.128919  -0.004362  3.972586  -0.005  -0.081121  -0.116525  -0.005524  3.939884  -0.006
C  C27  1  0.35476610  0.64907844  0.60599467  1  -0.10915  -0.008518  3.706551  -0.009  -0.120369  -0.005039  3.952631  -0.006  -0.127903  -0.004361  3.972139  -0.005  -0.080855  -0.115517  -0.005545  3.939441  -0.006
C  C28  1  0.85472345  0.95621999  0.60617283  1  -0.110388  0.008491  3.7069  0.009  -0.121427  0.005046  3.953096  0.006  -0.128981  0.00436  3.972606  0.005  -0.081085  -0.116595  0.005526  3.939911  0.006
C  C29  1  0.64523479  0.35092444  0.39400432  1  -0.109157  0.008531  3.706223  0.009  -0.12036  0.00504  3.952316  0.006  -0.127893  0.004363  3.971824  0.005  -0.08084  -0.115513  0.005546  3.939125  0.006
C  C30  1  0.91595828  0.08617331  0.17595515  1  -0.137977  -0.005487  3.695211  -0.005  -0.154009  -0.003243  3.935629  -0.003  -0.161308  -0.002891  3.955532  -0.003  -0.080265  -0.14919  -0.003469  3.922154  -0.003
C  C31  1  0.58367931  0.90971183  0.82369706  1  -0.137584  -0.005506  3.695371  -0.005  -0.153713  -0.003248  3.936052  -0.003  -0.160967  -0.002892  3.955968  -0.003  -0.080001  -0.148924  -0.003483  3.922487  -0.003
C  C32  1  0.08403000  0.91382587  0.82403993  1  -0.137942  0.005453  3.695325  0.005  -0.153966  0.003246  3.935678  0.003  -0.161255  0.002889  3.955591  0.003  -0.080224  -0.149141  0.003469  3.92219  0.003
C  C33  1  0.41632407  0.09029593  0.17631757  1  -0.137524  0.005509  3.69546  0.005  -0.153656  0.003248  3.936215  0.003  -0.160901  0.002895  3.956125  0.003  -0.08004  -0.148866  0.003483  3.922648  0.003
C  C34  1  0.07309608  0.15334652  0.33421807  1  0.008861  0.005909  3.706051  0.006  -0.009046  0.002109  3.951829  0.002  -0.003563  0.002403  3.96806  0.002  -0.063676  -0.01255  0.001862  3.940779  0.002
C  C35  1  0.42678143  0.81821004  0.66525842  1  0.008725  0.005938  3.706648  0.006  -0.009304  0.002115  3.952656  0.002  -0.003823  0.002404  3.968819  0.002  -0.063321  -0.012811  0.001864  3.941597  0.002
C  C36  1  0.92690477  0.84665627  0.66577972  1  0.00883  -0.005882  3.70637  -0.006  -0.009091  -0.00211  3.952124  -0.002  -0.003609  -0.002401  3.968352  -0.002  -0.06374  -0.012595  -0.001861  3.941069  -0.002
C  C37  1  0.57321312  0.18179354  0.33474730  1  0.008735  -0.005934  3.706576  -0.006  -0.009299  -0.002116  3.95259  -0.002  -0.003824  -0.002406  3.968757  -0.002  -0.063358  -0.012806  -0.001864  3.941534  -0.002
N  N38  1  0.90018360  0.80757735  0.14725048  1  -0.322372  -0.074887  3.326377  -0.09  -0.268043  -0.060021  3.60987  -0.077  -0.299805  -0.051959  3.632413  -0.07  -0.340905  -0.249955  -0.064308  3.597066  -0.08
N  N39  1  0.59985149  0.66015740  0.85300380  1  -0.321902  -0.07479  3.327169  -0.09  -0.267092  -0.059945  3.610573  -0.077  -0.298844  -0.051909  3.633118  -0.07  -0.340584  -0.248978  -0.064285  3.597721  -0.08
N  N40  1  0.09982184  0.19242177  0.85275133  1  -0.322228  0.074867  3.326525  0.09  -0.268013  0.060022  3.610094  0.077  -0.299781  0.051954  3.632653  0.07  -0.340921  -0.249931  0.064309  3.59729  0.08
N  N41  1  0.40015294  0.33984376  0.14699068  1  -0.321925  0.074803  3.327309  0.09  -0.267077  0.059949  3.610693  0.077  -0.298838  0.051909  3.633251  0.07  -0.340525  -0.248966  0.064288  3.597846  0.08
Cl  Cl42  1  0.92677053  0.48617470  0.19461297  1  -0.512084  -0.132398  0.968972  -0.147  -0.510843  -0.083968  1.27292  -0.097  -0.544871  -0.066595  1.248838  -0.079  -0.295037  -0.490349  -0.094033  1.289776  -0.106
Cl  Cl43  1  0.57399993  0.29149405  0.80582071  1  -0.512011  -0.132595  0.96859  -0.147  -0.51086  -0.084089  1.272299  -0.097  -0.544859  -0.06668  1.248204  -0.08  -0.295048  -0.490449  -0.094114  1.289185  -0.106
Cl  Cl44  1  0.07322498  0.51381499  0.80537711  1  -0.512083  0.132395  0.968955  0.147  -0.510846  0.083969  1.272916  0.097  -0.544871  0.066597  1.248825  0.079  -0.295044  -0.490341  0.094032  1.289755  0.106
Cl  Cl45  1  0.42599930  0.70850086  0.19417286  1  -0.512005  0.132592  0.968588  0.147  -0.510837  0.084089  1.272278  0.097  -0.544844  0.06668  1.248187  0.08  -0.295045  -0.490422  0.094113  1.289161  0.106
