# generated using pymatgen
data_CuH12C8(NO4)2
_symmetry_space_group_name_H-M   'P 1'
_cell_length_a   4.65073552
_cell_length_b   10.50689332
_cell_length_c   11.94643879
_cell_angle_alpha   76.14444145
_cell_angle_beta   78.80176115
_cell_angle_gamma   77.21689597
_symmetry_Int_Tables_number   1
_chemical_formula_structural   CuH12C8(NO4)2
_chemical_formula_sum   'Cu2 H24 C16 N4 O16'
_cell_volume   546.54428589
_cell_formula_units_Z   2
loop_
 _symmetry_equiv_pos_site_id
 _symmetry_equiv_pos_as_xyz
  1  'x, y, z'
loop_
 _atom_site_type_symbol
 _atom_site_label
 _atom_site_symmetry_multiplicity
 _atom_site_fract_x
 _atom_site_fract_y
 _atom_site_fract_z
 _atom_site_occupancy
 _atom_site_hle17_ddec_charge
 _atom_site_hle17_ddec_spin_density
 _atom_site_hle17_ddec_sum_bond_order
 _atom_site_hle17_magmom
 _atom_site_hse06_10hf_ddec_charge
 _atom_site_hse06_10hf_ddec_spin_density
 _atom_site_hse06_10hf_ddec_sum_bond_order
 _atom_site_hse06_10hf_magmom
 _atom_site_hse06_ddec_charge
 _atom_site_hse06_ddec_spin_density
 _atom_site_hse06_ddec_sum_bond_order
 _atom_site_hse06_magmom
 _atom_site_pbe_cm5_charge
 _atom_site_pbe_ddec_charge
 _atom_site_pbe_ddec_spin_density
 _atom_site_pbe_ddec_sum_bond_order
 _atom_site_pbe_magmom
Cu  Cu0  1  0.00000280  0.99999939  0.49999985  1  1.037596  -0.751119  1.623958  -0.545  1.039376  -0.839472  2.00325  -0.67  1.119007  -0.903545  1.948185  -0.75  0.706879  0.97809  -0.790106  2.056827  -0.615
Cu  Cu1  1  0.49999942  0.50000060  0.00000013  1  1.035855  0.751167  1.62668  0.545  1.037624  0.839576  2.00677  0.67  1.117193  0.903647  1.951721  0.75  0.70656  0.976287  0.790497  2.060514  0.616
H  H2  1  0.44062243  0.59268305  0.31297937  1  0.13185  2.6e-05  0.89144  0.0  0.145277  5.4e-05  0.945874  0.0  0.148001  3.6e-05  0.94383  0.0  0.127357  0.14331  7.2e-05  0.947599  0.0
H  H3  1  0.34624533  0.90730701  0.18696050  1  0.131355  -4.8e-05  0.891617  0.0  0.144973  -6.4e-05  0.946034  0.0  0.147631  -4e-05  0.943988  0.0  0.127076  0.143047  -6.1e-05  0.947681  0.0
H  H4  1  0.55937702  0.40731690  0.68702017  1  0.131875  1.9e-05  0.891445  0.0  0.145261  5.4e-05  0.945926  0.0  0.147985  3.7e-05  0.943881  0.0  0.127351  0.143297  7.2e-05  0.947658  0.0
H  H5  1  0.65375412  0.09269294  0.81303904  1  0.131376  -4.8e-05  0.891584  0.0  0.144987  -6.4e-05  0.94601  0.0  0.147645  -4e-05  0.943965  0.0  0.127092  0.143066  -6.1e-05  0.947666  0.0
H  H6  1  0.77188802  0.47329754  0.32069452  1  0.116169  7.3e-05  0.939892  0.0  0.129522  0.000107  1.000161  0.0  0.131563  9.4e-05  0.999281  0.0  0.121012  0.127988  0.00013  1.001045  0.0
H  H7  1  0.56578180  0.02667077  0.17936652  1  0.116258  -0.0001  0.939389  0.0  0.12918  -0.000123  1.000533  0.0  0.131152  -0.000101  0.999635  0.0  0.12088  0.127708  -0.000133  1.001436  0.0
H  H8  1  0.22811018  0.52670341  0.67930568  1  0.116185  6.7e-05  0.939853  0.0  0.129519  0.000108  1.000147  0.0  0.131557  9.5e-05  0.999274  0.0  0.121011  0.127986  0.00013  1.001033  0.0
H  H9  1  0.43421843  0.97333017  0.82063385  1  0.116266  -0.0001  0.9394  0.0  0.129181  -0.000123  1.000553  0.0  0.131153  -0.000101  0.999654  0.0  0.120892  0.127713  -0.000133  1.001466  0.0
H  H10  1  0.36362151  0.37687679  0.28420663  1  0.130364  6.5e-05  0.925975  0.0  0.142709  -5.4e-05  0.986568  0.0  0.144647  -2.7e-05  0.985851  0.0  0.124832  0.14134  -7.7e-05  0.987291  0.0
H  H11  1  0.02434177  0.12298719  0.21569095  1  0.131309  -6e-05  0.924866  0.0  0.143189  4.5e-05  0.985931  0.0  0.145155  2.2e-05  0.985227  0.0  0.125128  0.141702  8.1e-05  0.986701  0.0
H  H12  1  0.63637913  0.62312316  0.71579391  1  0.130379  5.1e-05  0.925924  0.0  0.142735  -5.4e-05  0.986506  0.0  0.14467  -2.6e-05  0.985788  0.0  0.124848  0.141359  -7.7e-05  0.987248  0.0
H  H13  1  0.97565887  0.87701276  0.78430959  1  0.131298  -5.9e-05  0.924883  0.0  0.143175  4.5e-05  0.985952  0.0  0.145144  2.2e-05  0.985245  0.0  0.125133  0.141694  8.1e-05  0.986729  0.0
H  H14  1  0.09942510  0.31881719  0.40486215  1  0.116693  -0.000529  0.95038  -0.001  0.122633  -0.000443  1.022888  0.0  0.125294  -0.00026  1.021165  0.0  0.118473  0.12083  -0.000667  1.024184  -0.001
H  H15  1  0.82320071  0.18139933  0.09478725  1  0.116678  0.00065  0.950478  0.001  0.122125  0.000498  1.02335  0.001  0.124824  0.000289  1.02163  0.0  0.11853  0.120162  0.000662  1.024624  0.001
H  H16  1  0.90057678  0.68118176  0.59513774  1  0.116693  -0.00054  0.950372  -0.001  0.122637  -0.000443  1.022879  0.0  0.125315  -0.00026  1.021134  0.0  0.118463  0.120831  -0.000668  1.024178  -0.001
H  H17  1  0.17679790  0.81860062  0.90521313  1  0.116667  0.000647  0.950541  0.001  0.122115  0.000499  1.023417  0.001  0.124816  0.000289  1.021695  0.0  0.118528  0.120157  0.000663  1.024693  0.001
H  H18  1  0.09765963  0.16999843  0.61066073  1  0.441328  -0.000409  0.854565  0.0  0.414042  -0.000833  0.912452  -0.001  0.426481  -0.000605  0.894679  -0.001  0.29809  0.404811  -0.000998  0.925633  -0.001
H  H19  1  0.87902073  0.32974061  0.88956689  1  0.441168  0.000428  0.855104  0.0  0.41435  0.000845  0.912344  0.001  0.426866  0.000614  0.894444  0.001  0.298194  0.405383  0.001013  0.925116  0.001
H  H20  1  0.90234018  0.83000152  0.38934065  1  0.441327  -0.000409  0.854568  0.0  0.41404  -0.000833  0.91246  -0.001  0.426479  -0.000605  0.894688  -0.001  0.298087  0.404801  -0.000998  0.925649  -0.001
H  H21  1  0.12097829  0.67025834  0.11043367  1  0.441175  0.000428  0.855089  0.0  0.414354  0.000845  0.912336  0.001  0.426869  0.000614  0.894435  0.001  0.298193  0.405385  0.001013  0.925108  0.001
H  H22  1  0.28394550  0.01780102  0.63968714  1  0.406077  0.000134  0.911797  0.001  0.377044  -0.000379  0.975486  0.0  0.389048  -0.000169  0.95848  0.0  0.288233  0.368376  -0.000554  0.987689  0.0
H  H23  1  0.94175117  0.48207410  0.86039968  1  0.405777  -0.000113  0.90981  -0.001  0.377146  0.000392  0.974497  0.0  0.389119  0.000179  0.957521  0.0  0.288694  0.368697  0.000573  0.986388  0.0
H  H24  1  0.71605473  0.98219993  0.36031323  1  0.406117  0.000134  0.911701  0.001  0.377051  -0.000379  0.975472  0.0  0.389063  -0.000168  0.958459  0.0  0.288231  0.368376  -0.000554  0.987681  0.0
H  H25  1  0.05824501  0.51792685  0.13960036  1  0.405807  -0.000113  0.909736  -0.001  0.377174  0.000392  0.97445  0.0  0.389146  0.000179  0.957477  0.0  0.288696  0.368724  0.000573  0.986341  0.0
C  C26  1  0.57679054  0.52028233  0.37433213  1  -0.130148  0.00023  3.63642  0.0  -0.189015  0.000191  3.889521  0.0  -0.188704  0.000131  3.895914  0.0  -0.047276  -0.189388  0.000232  3.885489  0.0
C  C27  1  0.47136146  0.97969374  0.12566344  1  -0.128415  -0.0003  3.636632  0.0  -0.187397  -0.000246  3.889706  0.0  -0.186835  -0.000159  3.895844  0.0  -0.046692  -0.187765  -0.000285  3.885512  0.0
C  C28  1  0.42320890  0.47971762  0.62566741  1  -0.130164  0.000256  3.636445  0.0  -0.189001  0.00019  3.889556  0.0  -0.188692  0.000129  3.895951  0.0  -0.047269  -0.189372  0.000232  3.885537  0.0
C  C29  1  0.52863799  0.02030621  0.87433610  1  -0.128413  -0.000298  3.636586  0.0  -0.187414  -0.000246  3.889629  0.0  -0.186853  -0.000161  3.895764  0.0  -0.046703  -0.187779  -0.000285  3.885463  0.0
C  C30  1  0.31757670  0.40082131  0.55682289  1  0.528371  2.6e-05  3.797656  0.0  0.474242  -9.4e-05  4.101993  0.0  0.503461  -6.2e-05  4.10122  0.0  0.247333  0.454482  -0.000181  4.101981  0.0
C  C31  1  0.27518938  0.09915648  0.94310208  1  0.527381  0.0  3.794898  0.0  0.47431  0.000156  4.098156  0.0  0.503539  0.000102  4.097317  0.0  0.24783  0.454573  0.000232  4.098109  0.0
C  C32  1  0.68242275  0.59917864  0.44317665  1  0.528335  3.6e-05  3.79758  0.0  0.47419  -9.4e-05  4.101945  0.0  0.503408  -6.3e-05  4.101175  0.0  0.247307  0.45443  -0.000181  4.101922  0.0
C  C33  1  0.72480928  0.90084247  0.05689663  1  0.527476  -1e-06  3.794781  0.0  0.474258  0.000156  4.098254  0.0  0.503486  0.000102  4.097415  0.0  0.247766  0.45453  0.000232  4.098193  0.0
C  C34  1  0.33207124  0.33205396  0.37754318  1  -0.16323  -0.010275  3.627439  -0.011  -0.221376  -0.005566  3.872002  -0.006  -0.22336  -0.003691  3.879684  -0.004  -0.058759  -0.220179  -0.007104  3.8673  -0.008
C  C35  1  0.04160739  0.16792868  0.12237865  1  -0.163119  0.010194  3.627348  0.011  -0.220239  0.005567  3.871352  0.006  -0.222458  0.003691  3.879297  0.004  -0.058594  -0.218819  0.007108  3.866438  0.008
C  C36  1  0.66793024  0.66794599  0.62245652  1  -0.163247  -0.010221  3.627348  -0.011  -0.221391  -0.005566  3.871895  -0.006  -0.223373  -0.003695  3.879542  -0.004  -0.058747  -0.220185  -0.007104  3.867208  -0.008
C  C37  1  0.95839284  0.83207227  0.87762171  1  -0.163081  0.010205  3.627427  0.011  -0.220188  0.005566  3.871407  0.006  -0.22241  0.00369  3.879356  0.004  -0.058579  -0.21876  0.007107  3.86651  0.008
C  C38  1  0.52238229  0.19227879  0.39468255  1  0.685308  0.003187  3.832646  0.006  0.642886  -0.000208  4.142018  0.002  0.679696  0.000137  4.133232  0.001  0.218299  0.617526  -0.000594  4.146396  0.002
C  C39  1  0.10944092  0.30765034  0.10557176  1  0.683304  -0.003132  3.835086  -0.006  0.640855  0.000225  4.144596  -0.002  0.677682  -0.000127  4.135888  -0.001  0.217544  0.615527  0.000604  4.148789  -0.002
C  C40  1  0.47761752  0.80772115  0.60531883  1  0.685421  0.003181  3.832611  0.006  0.642985  -0.000208  4.14202  0.002  0.679792  0.000138  4.133227  0.001  0.218335  0.617631  -0.000594  4.146401  0.002
C  C41  1  0.89055895  0.69235061  0.89442677  1  0.683263  -0.003145  3.835115  -0.006  0.640826  0.000226  4.144618  -0.002  0.677656  -0.000126  4.135908  -0.001  0.217538  0.615497  0.000604  4.148824  -0.002
N  N42  1  0.40447514  0.41958538  0.44104859  1  -0.156787  -0.000495  3.452215  0.0  -0.076855  -0.000437  3.690744  0.0  -0.095758  -0.000265  3.712051  0.0  -0.272568  -0.063998  -0.000672  3.676081  0.0
N  N43  1  0.26506240  0.08044189  0.05889973  1  -0.158251  0.000442  3.454806  0.0  -0.078511  0.000371  3.693027  0.0  -0.097496  0.000223  3.714375  0.0  -0.273437  -0.065711  0.000544  3.678231  0.0
N  N44  1  0.59552633  0.58041457  0.55895112  1  -0.156798  -0.000509  3.452188  0.0  -0.076839  -0.000436  3.690696  0.0  -0.095747  -0.000264  3.712003  0.0  -0.272573  -0.063989  -0.000671  3.676031  0.0
N  N45  1  0.73493865  0.91955706  0.94110099  1  -0.158275  0.000445  3.454736  0.0  -0.078515  0.000372  3.693018  0.0  -0.097497  0.000224  3.714364  0.0  -0.273421  -0.065725  0.000544  3.678235  0.0
O  O46  1  0.15473425  0.31901429  0.61140396  1  -0.560707  -0.000562  1.970437  -0.001  -0.514183  -0.000274  2.195059  0.0  -0.535875  -0.000143  2.186723  0.0  -0.298409  -0.498929  -0.000487  2.200657  -0.001
O  O47  1  0.08516407  0.18092444  0.88842628  1  -0.559209  0.000843  1.967689  0.001  -0.513908  0.000364  2.192669  0.001  -0.53563  0.000177  2.184269  0.0  -0.298194  -0.498666  0.000566  2.198108  0.001
O  O48  1  0.84526723  0.68098566  0.38859575  1  -0.560684  -0.000562  1.970359  -0.001  -0.514166  -0.000274  2.194998  0.0  -0.535858  -0.000144  2.186662  0.0  -0.298404  -0.49891  -0.000487  2.200586  -0.001
O  O49  1  0.91483251  0.81907551  0.11157393  1  -0.559271  0.000842  1.96764  0.001  -0.513901  0.000363  2.192672  0.001  -0.535624  0.000176  2.18427  0.0  -0.298178  -0.498657  0.000567  2.1981  0.001
O  O50  1  0.44511809  0.10733208  0.35295964  1  -0.643745  0.001397  2.006693  0.0  -0.606601  0.001443  2.256693  0.001  -0.632144  0.001779  2.242963  0.001  -0.316669  -0.587162  0.00095  2.264975  0.0
O  O51  1  0.90580023  0.39241170  0.14758712  1  -0.641114  -0.001417  2.006696  0.0  -0.603799  -0.001448  2.256057  -0.001  -0.629465  -0.001781  2.242634  -0.001  -0.315778  -0.584727  -0.000953  2.264257  0.0
O  O52  1  0.55488422  0.89266787  0.64703923  1  -0.643775  0.001386  2.006802  0.0  -0.606617  0.001443  2.256754  0.001  -0.632172  0.001779  2.243058  0.001  -0.316651  -0.58718  0.00095  2.265045  0.0
O  O53  1  0.09420041  0.60758825  0.85241343  1  -0.641094  -0.001417  2.006735  0.0  -0.603779  -0.001448  2.256084  -0.001  -0.629445  -0.001781  2.242662  -0.001  -0.315761  -0.584702  -0.000953  2.26429  0.0
O  O54  1  0.74264107  0.17243255  0.45028532  1  -0.603749  -0.084603  2.070542  -0.113  -0.57627  -0.050865  2.354936  -0.074  -0.616023  -0.038177  2.345176  -0.059  -0.322079  -0.547654  -0.059515  2.361145  -0.083
O  O55  1  0.36525127  0.32753708  0.04992097  1  -0.603273  0.084573  2.070773  0.113  -0.575832  0.050892  2.355106  0.074  -0.615639  0.038175  2.345522  0.059  -0.321928  -0.547066  0.059537  2.36099  0.084
O  O56  1  0.25736077  0.82756739  0.54971623  1  -0.603817  -0.084598  2.070495  -0.113  -0.576345  -0.050865  2.354909  -0.074  -0.616099  -0.038177  2.345149  -0.059  -0.322132  -0.547726  -0.05951  2.361117  -0.083
O  O57  1  0.63474735  0.67246287  0.95007941  1  -0.603234  0.08458  2.070747  0.113  -0.575825  0.050894  2.355103  0.074  -0.615632  0.038177  2.345517  0.059  -0.321916  -0.547056  0.059531  2.360991  0.084
O  O58  1  0.08149278  0.07338651  0.62568396  1  -0.817186  -0.067407  1.954497  -0.088  -0.784265  -0.047618  2.172292  -0.067  -0.816225  -0.037413  2.13504  -0.055  -0.581615  -0.760999  -0.053953  2.199291  -0.072
O  O59  1  0.78106507  0.42635985  0.87474951  1  -0.817259  0.067142  1.953588  0.087  -0.784757  0.047449  2.172362  0.066  -0.816666  0.03732  2.135104  0.055  -0.582253  -0.761622  0.053739  2.198872  0.072
O  O60  1  0.91850989  0.92661344  0.37431675  1  -0.817211  -0.067409  1.954399  -0.088  -0.784262  -0.047619  2.172239  -0.067  -0.816232  -0.037415  2.134964  -0.055  -0.581616  -0.761001  -0.053964  2.199259  -0.072
O  O61  1  0.21893313  0.57364110  0.12525069  1  -0.817245  0.067142  1.953517  0.087  -0.784722  0.047449  2.172273  0.066  -0.816632  0.037321  2.135013  0.055  -0.582218  -0.761588  0.053742  2.198784  0.072
