# generated using pymatgen
data_Zn2H21C40N3O10
_symmetry_space_group_name_H-M   'P 1'
_cell_length_a   9.72620781
_cell_length_b   11.00526411
_cell_length_c   14.68995020
_cell_angle_alpha   86.67977682
_cell_angle_beta   77.08658554
_cell_angle_gamma   88.24043917
_symmetry_Int_Tables_number   1
_chemical_formula_structural   Zn2H21C40N3O10
_chemical_formula_sum   'Zn2 H21 C40 N3 O10'
_cell_volume   1529.80930931
_cell_formula_units_Z   1
loop_
 _symmetry_equiv_pos_site_id
 _symmetry_equiv_pos_as_xyz
  1  'x, y, z'
loop_
 _atom_site_type_symbol
 _atom_site_label
 _atom_site_symmetry_multiplicity
 _atom_site_fract_x
 _atom_site_fract_y
 _atom_site_fract_z
 _atom_site_occupancy
 _atom_site_pbe_bader_charge
 _atom_site_pbe_bader_spin_density
 _atom_site_pbe_cm5_charge
 _atom_site_pbe_ddec_charge
 _atom_site_pbe_ddec_spin_density
 _atom_site_pbe_ddec_sum_bond_order
 _atom_site_pbe_magmom
Zn  Zn0  1  0.13565724  0.49167939  0.50649332  1  1.290839  0  0.681202  0.82852  0  2.414891  0
Zn  Zn1  1  0.85277430  0.49630661  0.49238579  1  1.2863  0  0.672742  0.82862  0  2.370064  0
H  H2  1  0.73331337  0.76794972  0.06522994  1  0.047806  0  0.106942  0.109594  0  0.985042  0
H  H3  1  0.91696878  0.48411752  0.18739323  1  0.113892  0  0.113499  0.123608  0  0.979993  0
H  H4  1  0.20497576  0.48659507  0.87921126  1  0.072855  0  0.104145  0.107563  0  1.004897  0
H  H5  1  0.94673450  0.72923997  0.94315057  1  0.073188  0  0.103323  0.105431  0  0.994218  0
H  H6  1  0.05997301  0.64488089  0.78910303  1  0.066237  0  0.104392  0.109802  0  1.004131  0
H  H7  1  0.66549581  0.50278685  0.76701316  1  0.07679  0  0.101037  0.10442  0  1.039637  0
H  H8  1  0.48850294  0.72766870  0.13712579  1  0.083446  0  0.106797  0.106911  0  1.029209  0
H  H9  1  0.45685685  0.51247245  0.81029867  1  0.051644  0  0.10166  0.103321  0  1.020477  0
H  H10  1  0.00881086  0.47901187  0.01445713  1  0.079617  0  0.105992  0.108681  0  0.996955  0
H  H11  1  0.79226204  0.12034553  0.48588044  1  0.074205  0  0.101953  0.106993  0  1.012929  0
H  H12  1  0.27618504  0.19735262  0.48845064  1  0.097753  0  0.098715  0.110203  0  1.046699  0
H  H13  1  0.47674577  0.07092231  0.51755197  1  0.053742  0  0.095875  0.092011  0  1.006474  0
H  H14  1  0.44267194  0.84911193  0.56432102  1  0.058961  0  0.095599  0.091691  0  1.003244  0
H  H15  1  0.21878403  0.75345906  0.55955060  1  0.079783  0  0.098685  0.107199  0  1.049301  0
H  H16  1  0.78151861  0.89299729  0.48769999  1  0.092539  0  0.103337  0.109151  0  1.002408  0
H  H17  1  0.65110573  0.61817958  0.39906872  1  0.141941  0  0.141153  0.12094  0  0.95462  0
H  H18  1  0.71733439  0.32032846  0.62415455  1  0.124075  0  0.116436  0.140858  0  1.025296  0
H  H19  1  0.55612576  0.18857850  0.74074531  1  0.07434  0  0.115655  0.113403  0  0.969523  0
H  H20  1  0.29626273  0.20178964  0.75265488  1  0.093906  0  0.116252  0.11351  0  0.966688  0
H  H21  1  0.19720827  0.34331494  0.64558229  1  0.171549  0  0.117138  0.139499  0  1.020217  0
H  H22  1  0.38932551  0.62305924  0.40511858  1  0.17505  0  0.130307  0.108776  0  1.032911  0
C  C23  1  0.99992961  0.25840990  0.49771824  1  1.529834  0  0.220666  0.601905  0  4.138716  0
C  C24  1  0.93169998  0.52116178  0.67762064  1  1.572631  0  0.2116  0.590178  0  4.173983  0
C  C25  1  0.98056028  0.72911119  0.49982427  1  1.549709  0  0.21727  0.596902  0  4.145667  0
C  C26  1  0.06518462  0.51443999  0.31782918  1  1.619386  0  0.216603  0.601998  0  4.166327  0
C  C27  1  0.86656475  0.56836207  0.77104127  1  0.065131  0  -0.022373  -0.034228  0  3.989818  0
C  C28  1  0.11580007  0.53483627  0.21350742  1  -0.014396  0  -0.005505  -0.062124  0  3.937435  0
C  C29  1  0.88508421  0.67916997  0.90468158  1  0.02488  0  -0.089975  -0.13959  0  4.0073  0
C  C30  1  0.94829950  0.63249943  0.82008539  1  -0.099329  0  -0.086538  -0.096697  0  4.002475  0
C  C31  1  0.72336929  0.55298124  0.80759281  1  -0.052725  0  -0.079999  -0.128462  0  3.930786  0
C  C32  1  0.65587717  0.59847122  0.89442759  1  0.029017  0  -0.002344  0.032343  0  3.945301  0
C  C33  1  0.73947132  0.66282766  0.94380074  1  -0.077607  0  -0.005936  0.07954  0  4.023607  0
C  C34  1  0.50746872  0.58004998  0.93543027  1  -0.068304  0  0.000317  0.037929  0  3.944725  0
C  C35  1  0.45086913  0.61335328  0.02858477  1  0.027818  0  -0.003966  0.037456  0  3.947109  0
C  C36  1  0.53503811  0.68597086  0.07183225  1  -0.012339  0  -0.095352  -0.128566  0  4.016473  0
C  C37  1  0.67275399  0.71078692  0.03084207  1  -0.042818  0  -0.088284  -0.126426  0  4.007086  0
C  C38  1  0.41568509  0.53267411  0.88317434  1  -0.132987  0  -0.089497  -0.123148  0  4.012038  0
C  C39  1  0.27521164  0.51709426  0.92139828  1  0.028864  0  -0.090119  -0.134646  0  4.008525  0
C  C40  1  0.21849468  0.53419306  0.01813108  1  0.026636  0  -0.002937  0.086797  0  4.016997  0
C  C41  1  0.30920545  0.57544646  0.07421211  1  0.024663  0  0.004423  -0.013175  0  3.910219  0
C  C42  1  0.07654703  0.50589655  0.05949700  1  -0.027512  0  -0.083652  -0.126223  0  3.986319  0
C  C43  1  0.02527430  0.50830160  0.15478846  1  -0.035516  0  -0.079976  -0.085916  0  3.989564  0
C  C44  1  0.25342003  0.56869165  0.17223301  1  0.238906  0  0.086791  0.017543  0  3.878817  0
C  C45  1  0.26340123  0.10036974  0.50393707  1  0.012345  0  -0.098227  -0.135028  0  3.984863  0
C  C46  1  0.37508254  0.02940947  0.52100227  1  -0.160598  0  -0.099735  -0.087669  0  4.065623  0
C  C47  1  0.35713316  0.90401850  0.54501831  1  -0.024466  0  -0.101224  -0.094422  0  4.06856  0
C  C48  1  0.23189037  0.85028409  0.54286532  1  -0.020831  0  -0.096403  -0.129136  0  3.983108  0
C  C49  1  0.11756691  0.91908929  0.51877304  1  -0.023128  0  0.002226  0.065533  0  3.913071  0
C  C50  1  0.12928013  0.04978440  0.50708755  1  0.000533  0  0.001665  0.066492  0  3.916134  0
C  C51  1  0.00670202  0.12176069  0.49768689  1  -0.006878  0  -0.011559  -0.077163  0  3.905592  0
C  C52  1  0.88372266  0.06403692  0.49302698  1  -0.054565  0  -0.086254  -0.093223  0  4.005494  0
C  C53  1  0.87695848  0.93671801  0.49550386  1  0.030825  0  -0.08685  -0.098626  0  4.007782  0
C  C54  1  0.99109475  0.86385524  0.50719395  1  -0.012122  0  -0.006491  -0.061471  0  3.903882  0
C  C55  1  0.60432278  0.32447573  0.62891559  1  0.038632  0  -0.079577  -0.153574  0  3.941766  0
C  C56  1  0.51355158  0.25227875  0.69396919  1  -0.032092  0  -0.070077  -0.05825  0  3.992583  0
C  C57  1  0.36620908  0.25988310  0.70091842  1  -0.087872  0  -0.068677  -0.052683  0  3.987784  0
C  C58  1  0.30994750  0.33859061  0.64193731  1  0.022633  0  -0.075895  -0.143723  0  3.932288  0
C  C59  1  0.40030365  0.41304133  0.57387746  1  0.410634  0  0.124599  0.165781  0  3.945462  0
C  C60  1  0.54953210  0.40772172  0.56831310  1  0.426002  0  0.125141  0.170046  0  3.944909  0
C  C61  1  0.57997823  0.55876836  0.44895091  1  0.526404  0  0.082134  0.074119  0  3.866105  0
C  C62  1  0.43372583  0.56173301  0.45255845  1  0.596052  0  0.078535  0.078532  0  3.868782  0
N  N63  1  0.63649127  0.48332615  0.50458113  1  -1.210704  0  -0.288184  -0.192834  0  3.463089  0
N  N64  1  0.34667207  0.48995478  0.51308379  1  -1.221316  0  -0.291964  -0.196243  0  3.458026  0
N  N65  1  0.34730977  0.59270644  0.23539681  1  0.39433  0  0.054482  0.518304  0  4.239547  0
O  O66  1  0.09552743  0.31244103  0.52638192  1  -1.172997  0  -0.313014  -0.54909  0  2.421384  0
O  O67  1  0.89592442  0.31272818  0.47252934  1  -1.161486  0  -0.315946  -0.54869  0  2.321572  0
O  O68  1  0.06397017  0.53391289  0.64651215  1  -1.178449  0  -0.316  -0.54783  0  2.303974  0
O  O69  1  0.85008113  0.47250541  0.63362187  1  -1.188585  0  -0.323383  -0.573865  0  2.397281  0
O  O70  1  0.09621906  0.66916109  0.47645877  1  -1.171638  0  -0.313726  -0.546011  0  2.414427  0
O  O71  1  0.85840085  0.68287470  0.51410405  1  -1.15902  0  -0.320201  -0.55164  0  2.271957  0
O  O72  1  0.15681139  0.47557246  0.36245309  1  -1.163228  0  -0.314977  -0.545118  0  2.324636  0
O  O73  1  0.93448187  0.53404656  0.35168805  1  -1.163916  0  -0.314398  -0.537552  0  2.282265  0
O  O74  1  0.44506546  0.51941314  0.23877986  1  -0.445659  0  -0.120026  -0.320232  0  1.909258  0
O  O75  1  0.32415783  0.68787298  0.27832418  1  -0.453239  0  -0.120046  -0.318831  0  1.928237  0
