# generated using pymatgen
data_AgMo4H13C15N8O13
_symmetry_space_group_name_H-M   'P 1'
_cell_length_a   10.43871441
_cell_length_b   10.45248261
_cell_length_c   12.15000000
_cell_angle_alpha   98.31736316
_cell_angle_beta   94.14054389
_cell_angle_gamma   107.35080337
_symmetry_Int_Tables_number   1
_chemical_formula_structural   AgMo4H13C15N8O13
_chemical_formula_sum   'Ag2 Mo8 H26 C30 N16 O26'
_cell_volume   1242.68771450
_cell_formula_units_Z   2
loop_
 _symmetry_equiv_pos_site_id
 _symmetry_equiv_pos_as_xyz
  1  'x, y, z'
loop_
 _atom_site_type_symbol
 _atom_site_label
 _atom_site_symmetry_multiplicity
 _atom_site_fract_x
 _atom_site_fract_y
 _atom_site_fract_z
 _atom_site_occupancy
 _atom_site_hle17_bader_spin_density
 _atom_site_hle17_ddec_charge
 _atom_site_hle17_ddec_spin_density
 _atom_site_hle17_ddec_sum_bond_order
 _atom_site_hle17_magmom
 _atom_site_hse06_10hf_bader_spin_density
 _atom_site_hse06_10hf_ddec_charge
 _atom_site_hse06_10hf_ddec_spin_density
 _atom_site_hse06_10hf_ddec_sum_bond_order
 _atom_site_hse06_10hf_magmom
 _atom_site_hse06_bader_spin_density
 _atom_site_hse06_ddec_charge
 _atom_site_hse06_ddec_spin_density
 _atom_site_hse06_ddec_sum_bond_order
 _atom_site_hse06_magmom
 _atom_site_pbe_bader_charge
 _atom_site_pbe_bader_spin_density
 _atom_site_pbe_cm5_charge
 _atom_site_pbe_ddec_charge
 _atom_site_pbe_ddec_spin_density
 _atom_site_pbe_ddec_sum_bond_order
 _atom_site_pbe_magmom
Ag  Ag0  1  0.34547387  0.56440215  0.47695401  1  0  0.596516  0  1.399661  0  0  0.467038  0  1.838433  0  0  0.492302  0  1.793826  0  0.634724  0  0.482567  0.451186  0  1.868195  0
Ag  Ag1  1  0.65452648  0.43559590  0.52304609  1  0  0.596543  0  1.399675  0  0  0.467044  0  1.838443  0  0  0.492308  0  1.793837  0  0.634727  0  0.48256  0.451193  0  1.868204  0
Mo  Mo2  1  0.85870375  0.56506585  0.11273751  1  0  2.184019  0  4.044637  0  0  2.183265  0  4.592301  0  0  2.281739  0  4.555808  0  2.56752  0  1.513601  2.110881  0  4.625044  0
Mo  Mo3  1  0.14129530  0.43493423  0.88726359  1  0  2.184078  0  4.044637  0  0  2.183383  0  4.592255  0  0  2.281845  0  4.555775  0  2.567636  0  1.513646  2.110994  0  4.625007  0
Mo  Mo4  1  0.32046424  0.59683199  0.13405808  1  0  2.210604  0  4.050034  0  0  2.209629  0  4.580076  0  0  2.308175  0  4.547332  0  2.580195  0  1.505025  2.136093  0  4.611055  0
Mo  Mo5  1  0.67953769  0.40317115  0.86594440  1  0  2.210598  0  4.049944  0  0  2.209597  0  4.58001  0  0  2.308148  0  4.547257  0  2.58018  0  1.504992  2.136063  0  4.610981  0
Mo  Mo6  1  0.57223490  0.46742006  0.22491562  1  0  2.186673  0  4.100418  0  0  2.184116  0  4.634916  0  0  2.285223  0  4.598123  0  2.583995  0  1.486708  2.110956  0  4.665431  0
Mo  Mo7  1  0.42776608  0.53258003  0.77508396  1  0  2.18665  0  4.100433  0  0  2.184079  0  4.634949  0  0  2.28519  0  4.598151  0  2.5838  0  1.486668  2.110919  0  4.665463  0
Mo  Mo8  1  0.59083117  0.68026823  0.01464860  1  0  2.230347  0  4.069794  0  0  2.231588  0  4.59019  0  0  2.333742  0  4.55301  0  2.599127  0  1.48727  2.155723  0  4.623708  0
Mo  Mo9  1  0.40917492  0.31973288  0.98535389  1  0  2.230191  0  4.069808  0  0  2.23143  0  4.590203  0  0  2.333593  0  4.553012  0  2.599141  0  1.487172  2.155564  0  4.623716  0
H  H10  1  0.53739219  0.77623543  0.33919892  1  0  0.112388  0  0.947223  0  0  0.120748  0  1.008759  0  0  0.12302  0  1.006377  0  0.20892  0  0.13677  0.11893  0  1.010708  0
H  H11  1  0.46260719  0.22376263  0.66080030  1  0  0.11236  0  0.947239  0  0  0.120739  0  1.008754  0  0  0.12301  0  1.006374  0  0.208946  0  0.136774  0.118922  0  1.010703  0
H  H12  1  0.52883124  0.84322567  0.68837817  1  0  0.130949  0  0.938495  0  0  0.143414  0  0.995586  0  0  0.146131  0  0.991659  0  0.231023  0  0.148412  0.141427  0  0.99826  0
H  H13  1  0.47116718  0.15677238  0.31162100  1  0  0.130919  0  0.938558  0  0  0.143393  0  0.995643  0  0  0.146111  0  0.991716  0  0.231042  0  0.148399  0.141407  0  0.998318  0
H  H14  1  0.72730407  0.18003253  0.61019897  1  0  0.099855  0  0.929694  0  0  0.109486  0  1.001314  0  0  0.110691  0  0.999482  0  0.157886  0  0.136908  0.108466  0  1.002782  0
H  H15  1  0.27269339  0.81996552  0.38980013  1  0  0.099842  0  0.929709  0  0  0.109496  0  1.001309  0  0  0.110703  0  0.999475  0  0.157899  0  0.136922  0.108477  0  1.002774  0
H  H16  1  0.69352035  0.10014486  0.72986116  1  0  0.121831  0  0.908369  0  0  0.133326  0  0.969081  0  0  0.13495  0  0.96699  0  0.174808  0  0.143246  0.131963  0  0.970804  0
H  H17  1  0.30647742  0.89985421  0.27013809  1  0  0.121833  0  0.908348  0  0  0.13333  0  0.969055  0  0  0.134955  0  0.966961  0  0.175055  0  0.143249  0.131965  0  0.970777  0
H  H18  1  0.78527512  0.16368324  0.44365765  1  0  0.090373  0  0.997165  0  0  0.092105  0  1.077192  0  0  0.095896  0  1.07344  0  0.108914  0  0.102848  0.089766  0  1.07922  0
H  H19  1  0.21472553  0.83631583  0.55634178  1  0  0.090362  0  0.99718  0  0  0.092114  0  1.077189  0  0  0.095914  0  1.073424  0  0.108911  0  0.102851  0.089776  0  1.079213  0
H  H20  1  0.84059599  0.33363094  0.31480245  1  0  0.122627  0  0.957957  0  0  0.132766  0  1.017157  0  0  0.135896  0  1.016238  0  0.138744  0  0.109467  0.130396  0  1.018172  0
H  H21  1  0.15940403  0.66636609  0.68519669  1  0  0.122619  0  0.957956  0  0  0.132743  0  1.017171  0  0  0.135893  0  1.016217  0  0.138708  0  0.10946  0.130374  0  1.018185  0
H  H22  1  0.07851628  0.48315043  0.32442627  1  0  0.099298  0  0.944516  0  0  0.109389  0  1.005213  0  0  0.111908  0  1.002566  0  0.13706  0  0.119998  0.107318  0  1.007574  0
H  H23  1  0.92148310  0.51684762  0.67557131  1  0  0.099304  0  0.944546  0  0  0.109394  0  1.005253  0  0  0.111912  0  1.002609  0  0.13703  0  0.12  0.107323  0  1.007614  0
H  H24  1  0.20507223  0.31308363  0.58418452  1  0  0.105194  0  0.957339  0  0  0.112469  0  1.022688  0  0  0.115606  0  1.01918  0  0.157253  0  0.11973  0.109984  0  1.025585  0
H  H25  1  0.79492809  0.68692053  0.41581799  1  0  0.105184  0  0.957323  0  0  0.112465  0  1.02269  0  0  0.1156  0  1.019186  0  0.157292  0  0.119728  0.109999  0  1.025566  0
H  H26  1  0.28195244  0.03512740  0.72673360  1  0  0.127336  0  0.954111  0  0  0.133325  0  1.019237  0  0  0.137371  0  1.017553  0  0.133216  0  0.116949  0.1304  0  1.020583  0
H  H27  1  0.71804789  0.96487370  0.27326606  1  0  0.127302  0  0.954163  0  0  0.133296  0  1.01928  0  0  0.137342  0  1.017596  0  0.133224  0  0.116936  0.130369  0  1.020627  0
H  H28  1  0.41359773  0.93915215  0.86124893  1  0  0.109183  0  0.906266  0  0  0.121249  0  0.957822  0  0  0.123765  0  0.95505  0  0.151088  0  0.135486  0.119425  0  0.959919  0
H  H29  1  0.58640196  0.06084692  0.13875044  1  0  0.109162  0  0.906301  0  0  0.121253  0  0.957824  0  0  0.123769  0  0.955051  0  0.151097  0  0.135477  0.119429  0  0.959921  0
H  H30  1  0.07899976  0.79688962  0.02414995  1  0  0.114554  0  0.954506  0  0  0.121606  0  1.017311  0  0  0.124798  0  1.014159  0  0.201917  0  0.131989  0.119147  0  1.01973  0
H  H31  1  0.92099865  0.20311148  0.97584959  1  0  0.114587  0  0.954517  0  0  0.121621  0  1.017309  0  0  0.12481  0  1.014157  0  0.20217  0  0.131983  0.119163  0  1.019727  0
H  H32  1  0.93213778  0.88159423  0.89593204  1  0  0.13553  0  0.924634  0  0  0.143537  0  0.981949  0  0  0.147386  0  0.980552  0  0.113566  0  0.122472  0.140633  0  0.983375  0
H  H33  1  0.06786032  0.11840586  0.10406653  1  0  0.135505  0  0.924643  0  0  0.143504  0  0.981981  0  0  0.14736  0  0.980576  0  0.113573  0  0.122448  0.140602  0  0.983406  0
H  H34  1  0.29948978  0.82902018  0.99875630  1  0  0.322511  0  0.898612  0  0  0.30297  0  0.959323  0  0  0.312008  0  0.951875  0  0.548721  0  0.319434  0.296535  0  0.964538  0
H  H35  1  0.70050831  0.17097990  0.00124392  1  0  0.322518  0  0.898605  0  0  0.302975  0  0.959332  0  0  0.312015  0  0.951879  0  0.548736  0  0.31943  0.29654  0  0.964548  0
C  C36  1  0.55624786  0.82561616  0.42647597  1  0  0.203418  0  3.672232  0  0  0.153857  0  3.951749  0  0  0.164973  0  3.965153  0  0.944407  0  0.149361  0.146543  0  3.94288  0
C  C37  1  0.44375152  0.17438189  0.57352325  1  0  0.203584  0  3.672154  0  0  0.154008  0  3.951652  0  0  0.165123  0  3.965057  0  0.944402  0  0.149403  0.146692  0  3.942786  0
C  C38  1  0.55052824  0.85668805  0.60390315  1  0  0.178967  0  3.608399  0  0  0.110193  0  3.870761  0  0  0.125567  0  3.88234  0  0.9753  0  0.171545  0.100493  0  3.862466  0
C  C39  1  0.44947018  0.14331000  0.39609601  1  0  0.179028  0  3.608421  0  0  0.11023  0  3.870791  0  0  0.125605  0  3.882371  0  0.975272  0  0.171552  0.10053  0  3.862498  0
C  C40  1  0.72703118  0.09000100  0.64641258  1  0  0.072462  0  3.597156  0  0  -0.0128  0  3.848643  0  0  -0.003167  0  3.856171  0  0.610444  0  0.072881  -0.019208  0  3.843781  0
C  C41  1  0.27296724  0.90999706  0.35358659  1  0  0.072507  0  3.597202  0  0  -0.012765  0  3.848681  0  0  -0.003138  0  3.856218  0  0.609778  0  0.072905  -0.019171  0  3.843815  0
C  C42  1  0.97566425  0.13594106  0.60863143  1  0  0.293179  0  3.717604  0  0  0.254417  0  3.993262  0  0  0.270253  0  4.006581  0  0.992557  0  0.237805  0.243995  0  3.984496  0
C  C43  1  0.02433639  0.86406106  0.39137003  1  0  0.293203  0  3.717443  0  0  0.254442  0  3.993104  0  0  0.270275  0  4.00642  0  0.992549  0  0.237831  0.244022  0  3.984337  0
C  C44  1  0.99109997  0.22779880  0.52688693  1  0  -0.038004  0  3.762342  0  0  -0.014423  0  3.996528  0  0  -0.022448  0  4.020131  0  -0.041666  0  0.001728  -0.0098  0  3.981452  0
C  C45  1  0.00889940  0.77220231  0.47311350  1  0  -0.03802  0  3.76232  0  0  -0.014447  0  3.99653  0  0  -0.022467  0  4.020131  0  -0.041803  0  0.001688  -0.009827  0  3.981459  0
C  C46  1  0.88717753  0.23438188  0.45026935  1  0  -0.055461  0  3.720691  0  0  -0.086696  0  3.980186  0  0  -0.082936  0  3.997762  0  -0.03415  0  -0.070668  -0.08859  0  3.967855  0
C  C47  1  0.11282248  0.76561821  0.54973017  1  0  -0.055421  0  3.720699  0  0  -0.086663  0  3.980172  0  0  -0.08292  0  3.997765  0  -0.03413  0  -0.070649  -0.088562  0  3.967857  0
C  C48  1  0.91790073  0.32728301  0.37707711  1  0  -0.114458  0  3.737211  0  0  -0.124859  0  3.990172  0  0  -0.133253  0  4.013191  0  0.034039  0  -0.082654  -0.119552  0  3.975063  0
C  C49  1  0.08209961  0.67271504  0.62292218  1  0  -0.114482  0  3.737217  0  0  -0.124863  0  3.990187  0  0  -0.133266  0  4.013201  0  0.034071  0  -0.082676  -0.119558  0  3.975076  0
C  C50  1  0.05020878  0.41100224  0.38160200  1  0  0.133277  0  3.655402  0  0  0.100016  0  3.898409  0  0  0.107963  0  3.917398  0  0.42781  0  0.048223  0.094667  0  3.885807  0
C  C51  1  0.94979188  0.58899683  0.61839743  1  0  0.133246  0  3.655317  0  0  0.099966  0  3.898323  0  0  0.107914  0  3.917314  0  0.427835  0  0.048194  0.09462  0  3.885722  0
C  C52  1  0.12248135  0.31548803  0.52544345  1  0  0.119019  0  3.622381  0  0  0.078441  0  3.864273  0  0  0.08718  0  3.880823  0  0.516818  0  0.057449  0.072997  0  3.852845  0
C  C53  1  0.87751802  0.68451308  0.47455780  1  0  0.119044  0  3.622529  0  0  0.078439  0  3.864426  0  0  0.087173  0  3.880977  0  0.516765  0  0.05748  0.07298  0  3.852987  0
C  C54  1  0.02172605  0.02228292  0.72895780  1  0  0.287085  0  3.800311  0  0  0.270302  0  4.075045  0  0  0.278469  0  4.091019  0  1.022108  0  0.22038  0.264931  0  4.06405  0
C  C55  1  0.97827332  0.97771819  0.27104181  1  0  0.287072  0  3.800341  0  0  0.270295  0  4.075057  0  0  0.278464  0  4.091033  0  1.022111  0  0.22039  0.264924  0  4.064064  0
C  C56  1  0.09844519  0.96606572  0.80259876  1  0  0.096647  0  3.734965  0  0  0.108638  0  3.962261  0  0  0.11559  0  3.981516  0  -0.002507  0  0.036056  0.103915  0  3.949269  0
C  C57  1  0.90155290  0.03393437  0.19740064  1  0  0.096649  0  3.735002  0  0  0.10865  0  3.962288  0  0  0.115602  0  3.981551  0  -0.002293  0  0.036057  0.10393  0  3.949295  0
C  C58  1  0.23503735  0.98261249  0.79149997  1  0  -0.13738  0  3.657873  0  0  -0.161819  0  3.914888  0  0  -0.171061  0  3.934168  0  0.03708  0  -0.067526  -0.155919  0  3.90232  0
C  C59  1  0.76496170  0.01738760  0.20849949  1  0  -0.137319  0  3.657894  0  0  -0.161765  0  3.914907  0  0  -0.17101  0  3.934189  0  0.037078  0  -0.067504  -0.155866  0  3.90234  0
C  C60  1  0.30794456  0.93189824  0.86361026  1  0  0.189339  0  3.6033  0  0  0.148564  0  3.859333  0  0  0.158931  0  3.872576  0  0.450147  0  0.07929  0.141612  0  3.851011  0
C  C61  1  0.69205481  0.06810286  0.13638852  1  0  0.189341  0  3.603298  0  0  0.148555  0  3.859346  0  0  0.158923  0  3.872588  0  0.450131  0  0.079282  0.141603  0  3.851024  0
C  C62  1  0.11617982  0.85019761  0.95652077  1  0  0.180223  0  3.578279  0  0  0.140091  0  3.829591  0  0  0.15094  0  3.841753  0  0.437424  0  0.079049  0.132835  0  3.821735  0
C  C63  1  0.88382275  0.14980452  0.04348081  1  0  0.180086  0  3.57845  0  0  0.140069  0  3.829654  0  0  0.15092  0  3.841818  0  0.437133  0  0.079061  0.132813  0  3.821799  0
C  C64  1  0.03823732  0.89759639  0.88612667  1  0  -0.135865  0  3.646989  0  0  -0.158045  0  3.89602  0  0  -0.166858  0  3.915151  0  0.070867  0  -0.063763  -0.152281  0  3.883596  0
C  C65  1  0.96176397  0.10240471  0.11387388  1  0  -0.135786  0  3.647037  0  0  -0.158011  0  3.896055  0  0  -0.166831  0  3.915185  0  0.07065  0  -0.063743  -0.152248  0  3.883629  0
N  N66  1  0.49737711  0.76481708  0.51092696  1  0  -0.369653  0  3.2602  0  0  -0.28768  0  3.56178  0  0  -0.309311  0  3.57314  0  -1.174319  0  -0.355821  -0.27335  0  3.553669  0
N  N67  1  0.50262130  0.23518097  0.48907221  1  0  -0.369819  0  3.260148  0  0  -0.287801  0  3.561706  0  0  -0.309433  0  3.573067  0  -1.17426  0  -0.355839  -0.273474  0  3.553599  0
N  N68  1  0.64047704  0.94995565  0.46219510  1  0  -0.271238  0  2.890827  0  0  -0.259504  0  3.172409  0  0  -0.268401  0  3.18777  0  -0.685882  0  -0.217111  -0.253598  0  3.161909  0
N  N69  1  0.35952106  0.05004138  0.53780474  1  0  -0.271357  0  2.890694  0  0  -0.259633  0  3.1723  0  0  -0.268532  0  3.187666  0  -0.685896  0  -0.217141  -0.253728  0  3.161803  0
N  N70  1  0.63568240  0.96845179  0.57511384  1  0  0.011959  0  3.567341  0  0  0.097054  0  3.80325  0  0  0.083475  0  3.830333  0  -0.850109  0  -0.136006  0.105799  0  3.785062  0
N  N71  1  0.36431698  0.03154626  0.42488538  1  0  0.012042  0  3.567361  0  0  0.097125  0  3.803298  0  0  0.083544  0  3.830384  0  -0.850124  0  -0.136007  0.105872  0  3.785108  0
N  N72  1  0.86253848  0.08036508  0.65866471  1  0  0.000623  0  3.510634  0  0  0.085001  0  3.739095  0  0  0.071592  0  3.763802  0  -0.756369  0  -0.121573  0.093545  0  3.722717  0
N  N73  1  0.13745993  0.91963602  0.34133483  1  0  0.000663  0  3.510565  0  0  0.085042  0  3.739029  0  0  0.071634  0  3.763734  0  -0.75597  0  -0.121553  0.093585  0  3.722651  0
N  N74  1  0.89074924  0.00767839  0.73480375  1  0  -0.28284  0  2.810485  0  0  -0.285332  0  3.078473  0  0  -0.291872  0  3.092408  0  -0.637306  0  -0.210356  -0.280568  0  3.068917  0
N  N75  1  0.10924982  0.99232169  0.26519571  1  0  -0.282891  0  2.810469  0  0  -0.285385  0  3.078458  0  0  -0.291927  0  3.092394  0  -0.637317  0  -0.210387  -0.280621  0  3.068903  0
N  N76  1  0.07703557  0.09902206  0.65236669  1  0  -0.415249  0  2.922686  0  0  -0.396588  0  3.203277  0  0  -0.410965  0  3.215152  0  -1.163853  0  -0.315646  -0.386766  0  3.195293  0
N  N77  1  0.92296283  0.90097904  0.34763286  1  0  -0.415245  0  2.922633  0  0  -0.396591  0  3.203232  0  0  -0.410963  0  3.215102  0  -1.163718  0  -0.315657  -0.38677  0  3.195252  0
N  N78  1  0.15112709  0.40569363  0.45555232  1  0  -0.305442  0  3.33915  0  0  -0.218895  0  3.623651  0  0  -0.239073  0  3.639962  0  -1.197445  0  -0.34203  -0.205173  0  3.611602  0
N  N79  1  0.84887131  0.59430747  0.54444640  1  0  -0.305441  0  3.339165  0  0  -0.218863  0  3.623646  0  0  -0.239034  0  3.63995  0  -1.197441  0  -0.341998  -0.205142  0  3.611602  0
N  N80  1  0.24724147  0.86893908  0.94352321  1  0  -0.201104  0  3.446038  0  0  -0.128943  0  3.663189  0  0  -0.144239  0  3.676472  0  -1.280333  0  -0.33931  -0.119102  0  3.654393  0
N  N81  1  0.75275854  0.13106101  0.05647713  1  0  -0.201091  0  3.446043  0  0  -0.129  0  3.663207  0  0  -0.144293  0  3.676488  0  -1.28033  0  -0.339328  -0.119158  0  3.65441  0
O  O82  1  0.01267309  0.68642173  0.15508327  1  0  -0.675378  0  1.452385  0  0  -0.676515  0  1.705987  0  0  -0.702491  0  1.697227  0  -0.828284  0  -0.513793  -0.657547  0  1.712984  0
O  O83  1  0.98733331  0.31358344  0.84491810  1  0  -0.675318  0  1.452514  0  0  -0.676484  0  1.706106  0  0  -0.70246  0  1.697347  0  -0.828351  0  -0.513788  -0.657521  0  1.713115  0
O  O84  1  0.75195551  0.58406690  0.23329577  1  0  -0.87089  0  1.77302  0  0  -0.866296  0  2.069246  0  0  -0.908311  0  2.064231  0  -1.001527  0  -0.587085  -0.835262  0  2.072386  0
O  O85  1  0.24804612  0.41592911  0.76670499  1  0  -0.87091  0  1.772957  0  0  -0.866324  0  2.069183  0  0  -0.908341  0  2.064169  0  -1.001519  0  -0.587078  -0.835287  0  2.072321  0
O  O86  1  0.88229796  0.41559624  0.13678137  1  0  -0.678281  0  1.467393  0  0  -0.679981  0  1.726866  0  0  -0.707046  0  1.72046  0  -0.810856  0  -0.508775  -0.66103  0  1.732435  0
O  O87  1  0.11770588  0.58440690  0.86321876  1  0  -0.678303  0  1.467292  0  0  -0.680052  0  1.726797  0  0  -0.707116  0  1.720394  0  -0.810865  0  -0.508807  -0.661098  0  1.73237  0
O  O88  1  0.83767758  0.52644383  0.95055359  1  0  -0.849487  0  1.720954  0  0  -0.849585  0  2.014386  0  0  -0.890682  0  2.008235  0  -0.961194  0  -0.578578  -0.818627  0  2.0185  0
O  O89  1  0.16231987  0.47355728  0.04944919  1  0  -0.849497  0  1.72084  0  0  -0.849599  0  2.01425  0  0  -0.890689  0  2.008097  0  -0.961212  0  -0.578607  -0.818639  0  2.018367  0
O  O90  1  0.31279251  0.75476789  0.11245061  1  0  -0.723224  0  1.527907  0  0  -0.720579  0  1.785378  0  0  -0.747649  0  1.775161  0  -0.875816  0  -0.520055  -0.700453  0  1.793018  0
O  O91  1  0.68720558  0.24523220  0.88755126  1  0  -0.723214  0  1.527883  0  0  -0.72056  0  1.785347  0  0  -0.747628  0  1.775127  0  -0.875822  0  -0.520057  -0.700433  0  1.792985  0
O  O92  1  0.28379136  0.59093094  0.26939774  1  0  -0.708589  0  1.517145  0  0  -0.696658  0  1.79711  0  0  -0.722097  0  1.782445  0  -0.840215  0  -0.519856  -0.6781  0  1.80805  0
O  O93  1  0.71621058  0.40906915  0.73060190  1  0  -0.708574  0  1.517054  0  0  -0.696619  0  1.797011  0  0  -0.722059  0  1.782341  0  -0.840202  0  -0.51982  -0.678054  0  1.807931  0
O  O94  1  0.52252803  0.65721371  0.15926922  1  0  -0.966943  0  1.796971  0  0  -0.95721  0  2.082564  0  0  -0.999674  0  2.078582  0  -1.065851  0  -0.599778  -0.92486  0  2.084965  0
O  O95  1  0.47747263  0.34278536  0.84073021  1  0  -0.966895  0  1.796898  0  0  -0.957153  0  2.082484  0  0  -0.999617  0  2.078499  0  -1.065856  0  -0.599741  -0.924813  0  2.08491  0
O  O96  1  0.53375013  0.52379105  0.35581993  1  0  -0.742881  0  1.583687  0  0  -0.728711  0  1.89133  0  0  -0.755862  0  1.873301  0  -0.867979  0  -0.529874  -0.710056  0  1.904626  0
O  O97  1  0.46624860  0.47620802  0.64417938  1  0  -0.742883  0  1.583674  0  0  -0.728726  0  1.891331  0  0  -0.755874  0  1.873296  0  -0.867789  0  -0.529889  -0.710074  0  1.904639  0
O  O98  1  0.59789125  0.31443241  0.23570227  1  0  -0.70575  0  1.476381  0  0  -0.708747  0  1.740865  0  0  -0.735332  0  1.730474  0  -0.837258  0  -0.516359  -0.690024  0  1.748762  0
O  O99  1  0.40210844  0.68556666  0.76429793  1  0  -0.705776  0  1.476405  0  0  -0.708739  0  1.740862  0  0  -0.735334  0  1.730488  0  -0.837245  0  -0.516347  -0.690016  0  1.748764  0
O  O100  1  0.39035793  0.40072400  0.13784255  1  0  -0.952261  0  1.778341  0  0  -0.939315  0  2.049128  0  0  -0.982077  0  2.044045  0  -1.070763  0  -0.598555  -0.907288  0  2.052763  0
O  O101  1  0.60964304  0.59927609  0.86215867  1  0  -0.952263  0  1.778319  0  0  -0.939322  0  2.049118  0  0  -0.982089  0  2.044042  0  -1.070771  0  -0.59854  -0.907297  0  2.052756  0
O  O102  1  0.60427381  0.45513544  0.03724924  1  0  -1.221247  0  1.897614  0  0  -1.203188  0  2.175626  0  0  -1.250006  0  2.174093  0  -1.235996  0  -0.62447  -1.166927  0  2.175688  0
O  O103  1  0.39572429  0.54486464  0.96275099  1  0  -1.221186  0  1.897364  0  0  -1.203134  0  2.175366  0  0  -1.249936  0  2.17382  0  -1.235899  0  -0.624477  -1.166869  0  2.175429  0
O  O104  1  0.56338660  0.82792691  0.99095781  1  0  -0.677017  0  1.43656  0  0  -0.672179  0  1.67746  0  0  -0.695571  0  1.667486  0  -0.815002  0  -0.511072  -0.654913  0  1.684984  0
O  O105  1  0.43661310  0.17207216  0.00904238  1  0  -0.676968  0  1.436603  0  0  -0.672147  0  1.677531  0  0  -0.69554  0  1.667553  0  -0.81503  0  -0.51107  -0.654879  0  1.685052  0
O  O106  1  0.76380268  0.72423347  0.06558328  1  0  -0.767358  0  1.586114  0  0  -0.764047  0  1.853825  0  0  -0.795166  0  1.845356  0  -0.913055  0  -0.541901  -0.741563  0  1.86041  0
O  O107  1  0.23619063  0.27576356  0.93441791  1  0  -0.767344  0  1.585888  0  0  -0.764033  0  1.853588  0  0  -0.795152  0  1.845118  0  -0.913039  0  -0.541868  -0.741546  0  1.86017  0
