# generated using pymatgen
data_ZnH18C22(NO2)2
_symmetry_space_group_name_H-M   'P 1'
_cell_length_a   6.87852794
_cell_length_b   9.36663419
_cell_length_c   15.89304868
_cell_angle_alpha   96.48128770
_cell_angle_beta   100.99305579
_cell_angle_gamma   90.52860583
_symmetry_Int_Tables_number   1
_chemical_formula_structural   ZnH18C22(NO2)2
_chemical_formula_sum   'Zn2 H36 C44 N4 O8'
_cell_volume   998.25745058
_cell_formula_units_Z   2
loop_
 _symmetry_equiv_pos_site_id
 _symmetry_equiv_pos_as_xyz
  1  'x, y, z'
loop_
 _atom_site_type_symbol
 _atom_site_label
 _atom_site_symmetry_multiplicity
 _atom_site_fract_x
 _atom_site_fract_y
 _atom_site_fract_z
 _atom_site_occupancy
 _atom_site_hle17_bader_spin_density
 _atom_site_hle17_ddec_charge
 _atom_site_hle17_ddec_spin_density
 _atom_site_hle17_ddec_sum_bond_order
 _atom_site_hle17_magmom
 _atom_site_hse06_10hf_bader_spin_density
 _atom_site_hse06_10hf_ddec_charge
 _atom_site_hse06_10hf_ddec_spin_density
 _atom_site_hse06_10hf_ddec_sum_bond_order
 _atom_site_hse06_10hf_magmom
 _atom_site_hse06_bader_spin_density
 _atom_site_hse06_ddec_charge
 _atom_site_hse06_ddec_spin_density
 _atom_site_hse06_ddec_sum_bond_order
 _atom_site_hse06_magmom
 _atom_site_pbe_bader_spin_density
 _atom_site_pbe_cm5_charge
 _atom_site_pbe_ddec_charge
 _atom_site_pbe_ddec_spin_density
 _atom_site_pbe_ddec_sum_bond_order
 _atom_site_pbe_magmom
Zn  Zn0  1  0.38437594  0.30192788  0.69919218  1  0  0.976978  0  1.880515  0  0  0.780505  0  2.359356  0  0  0.828628  0  2.304518  0  0  0.688714  0.746931  0  2.397465  0
Zn  Zn1  1  0.61561822  0.69807212  0.30080675  1  0  0.976999  0  1.880502  0  0  0.780517  0  2.35933  0  0  0.828638  0  2.3045  0  0  0.68875  0.746949  0  2.397441  0
H  H2  1  0.51240261  0.82076929  0.71792893  1  0  0.097492  0  0.967539  0  0  0.108941  0  1.032459  0  0  0.11205  0  1.030837  0  0  0.097634  0.106759  0  1.033448  0
H  H3  1  0.48759730  0.17922742  0.28206713  1  0  0.097482  0  0.967551  0  0  0.10897  0  1.032432  0  0  0.1121  0  1.030779  0  0  0.097664  0.10679  0  1.033417  0
H  H4  1  0.05851875  0.67957302  0.86068658  1  0  0.093596  0  0.937248  0  0  0.109245  0  0.989019  0  0  0.112595  0  0.987499  0  0  0.100959  0.106937  0  0.99009  0
H  H5  1  0.94148321  0.32043449  0.13931978  1  0  0.093603  0  0.937315  0  0  0.109279  0  0.989044  0  0  0.112629  0  0.987523  0  0  0.100974  0.106974  0  0.990114  0
H  H6  1  0.24418505  0.79573785  0.76528448  1  0  0.075834  0  0.975215  0  0  0.086689  0  1.039031  0  0  0.089167  0  1.037509  0  0  0.094252  0.084813  0  1.040231  0
H  H7  1  0.75581219  0.20426430  0.23471737  1  0  0.075794  0  0.975221  0  0  0.086694  0  1.038987  0  0  0.089169  0  1.03747  0  0  0.094247  0.084818  0  1.040185  0
H  H8  1  0.06794830  0.92893501  0.64978100  1  0  0.111276  0  0.979332  0  0  0.121303  0  1.04314  0  0  0.124657  0  1.04115  0  0  0.099653  0.119042  0  1.044382  0
H  H9  1  0.93205184  0.07106602  0.35021788  1  0  0.111298  0  0.979328  0  0  0.121312  0  1.043154  0  0  0.124667  0  1.041153  0  0  0.099657  0.119046  0  1.044407  0
H  H10  1  0.77642826  0.00952341  0.57135569  1  0  0.111792  0  0.940407  0  0  0.12504  0  1.00347  0  0  0.127305  0  1.002668  0  0  0.101343  0.123593  0  1.003777  0
H  H11  1  0.22358556  0.99048400  0.42864725  1  0  0.111789  0  0.940393  0  0  0.125045  0  1.003444  0  0  0.1273  0  1.002654  0  0  0.101308  0.123599  0  1.003751  0
H  H12  1  0.59377263  0.86802616  0.54843903  1  0  0.105395  0  0.932785  0  0  0.122382  0  0.990983  0  0  0.123613  0  0.991154  0  0  0.099505  0.121558  0  0.990844  0
H  H13  1  0.40623825  0.13198124  0.45155988  1  0  0.10549  0  0.932728  0  0  0.122456  0  0.990913  0  0  0.12369  0  0.991083  0  0  0.099513  0.121639  0  0.990766  0
H  H14  1  0.52285266  0.72536217  0.85874961  1  0  0.097154  0  0.937409  0  0  0.11323  0  0.997067  0  0  0.115381  0  0.995677  0  0  0.094878  0.111616  0  0.998465  0
H  H15  1  0.47713677  0.27463246  0.14124544  1  0  0.097172  0  0.937455  0  0  0.113281  0  0.997073  0  0  0.115437  0  0.995679  0  0  0.094906  0.111667  0  0.99847  0
H  H16  1  0.75094964  0.66916653  0.91811708  1  0  0.106492  0  0.931038  0  0  0.121248  0  0.987893  0  0  0.123613  0  0.986745  0  0  0.097025  0.119667  0  0.988624  0
H  H17  1  0.24904140  0.33083024  0.08187824  1  0  0.106495  0  0.930954  0  0  0.121261  0  0.987801  0  0  0.123627  0  0.986653  0  0  0.09702  0.119678  0  0.988531  0
H  H18  1  0.09856363  0.15368227  0.53712685  1  0  0.086468  0  0.956131  0  0  0.095321  0  1.019488  0  0  0.097667  0  1.017346  0  0  0.117739  0.093586  0  1.021012  0
H  H19  1  0.90143201  0.84631771  0.46287221  1  0  0.086481  0  0.956112  0  0  0.095358  0  1.019445  0  0  0.0977  0  1.01731  0  0  0.117752  0.093623  0  1.020968  0
H  H20  1  0.76816357  0.20981995  0.45308191  1  0  0.117865  0  0.971435  0  0  0.124985  0  1.03613  0  0  0.128801  0  1.034517  0  0  0.107442  0.122179  0  1.037518  0
H  H21  1  0.23182894  0.79017681  0.54691354  1  0  0.117824  0  0.971571  0  0  0.124958  0  1.036233  0  0  0.128775  0  1.034613  0  0  0.107433  0.122152  0  1.037625  0
H  H22  1  0.79869184  0.60620663  0.62621424  1  0  0.101084  0  0.995647  0  0  0.109657  0  1.059394  0  0  0.111214  0  1.061891  0  0  0.105312  0.108619  0  1.057615  0
H  H23  1  0.20129146  0.39378487  0.37378703  1  0  0.10109  0  0.995704  0  0  0.109647  0  1.059434  0  0  0.111193  0  1.061965  0  0  0.105326  0.10861  0  1.057657  0
H  H24  1  0.12809384  0.53560784  0.69793899  1  0  0.079204  0  0.981646  0  0  0.085798  0  1.050083  0  0  0.088127  0  1.048418  0  0  0.112719  0.084143  0  1.051164  0
H  H25  1  0.87188988  0.46439118  0.30206405  1  0  0.079237  0  0.981683  0  0  0.085831  0  1.050109  0  0  0.088178  0  1.048419  0  0  0.112718  0.084156  0  1.051214  0
H  H26  1  0.50858474  0.38644085  0.42245879  1  0  0.100114  0  0.951622  0  0  0.112122  0  1.01264  0  0  0.114843  0  1.011572  0  0  0.106963  0.110255  0  1.013271  0
H  H27  1  0.49140005  0.61355063  0.57754197  1  0  0.09999  0  0.951724  0  0  0.112047  0  1.012682  0  0  0.114766  0  1.011617  0  0  0.106961  0.110179  0  1.013311  0
H  H28  1  0.54127231  0.09595213  0.81910106  1  0  0.080676  0  0.935658  0  0  0.088959  0  1.001272  0  0  0.091084  0  0.999825  0  0  0.119892  0.087297  0  1.002579  0
H  H29  1  0.45873223  0.90404778  0.18089622  1  0  0.080614  0  0.935574  0  0  0.088899  0  1.001179  0  0  0.091021  0  0.999736  0  0  0.119864  0.087233  0  1.002489  0
H  H30  1  0.42995497  0.96277855  0.92991518  1  0  0.09909  0  0.962921  0  0  0.109867  0  1.024841  0  0  0.112557  0  1.024837  0  0  0.105229  0.107619  0  1.025598  0
H  H31  1  0.57006306  0.03722451  0.07008531  1  0  0.099161  0  0.962848  0  0  0.109953  0  1.024756  0  0  0.112644  0  1.024751  0  0  0.105247  0.107694  0  1.025529  0
H  H32  1  0.88807967  0.20190078  0.88961592  1  0  0.120616  0  0.953162  0  0  0.130559  0  1.012764  0  0  0.134265  0  1.010569  0  0  0.112463  0.127725  0  1.014758  0
H  H33  1  0.11192608  0.79809487  0.11038811  1  0  0.120616  0  0.953197  0  0  0.130561  0  1.012803  0  0  0.134267  0  1.010606  0  0  0.112462  0.12772  0  1.014801  0
H  H34  1  0.01285063  0.31247903  0.77879204  1  0  0.088112  0  0.938815  0  0  0.095982  0  1.002516  0  0  0.098411  0  1.000743  0  0  0.120805  0.09415  0  1.003819  0
H  H35  1  0.98715074  0.68751771  0.22120917  1  0  0.088103  0  0.938823  0  0  0.096015  0  1.002475  0  0  0.098446  0  1.000698  0  0  0.120807  0.09418  0  1.00377  0
H  H36  1  0.18664855  0.90913670  0.00970652  1  0  0.090998  0  0.943959  0  0  0.105503  0  1.000215  0  0  0.108073  0  0.999226  0  0  0.107604  0.103698  0  1.000984  0
H  H37  1  0.81338426  0.09086632  0.99030338  1  0  0.090998  0  0.944031  0  0  0.105504  0  1.000307  0  0  0.108076  0  0.999311  0  0  0.107586  0.103697  0  1.001076  0
C  C38  1  0.77705125  0.88182673  0.67500848  1  0  0.125096  0  3.762843  0  0  0.148047  0  3.998934  0  0  0.149543  0  4.022443  0  0  -0.009877  0.147076  0  3.982715  0
C  C39  1  0.22294737  0.11817322  0.32498894  1  0  0.12519  0  3.762784  0  0  0.14823  0  3.998734  0  0  0.149727  0  4.022245  0  0  -0.009803  0.147255  0  3.982519  0
C  C40  1  0.67377235  0.81710773  0.72949424  1  0  -0.200378  0  3.708278  0  0  -0.229014  0  3.956434  0  0  -0.233141  0  3.97658  0  0  -0.104476  -0.225557  0  3.942177  0
C  C41  1  0.32623385  0.18289539  0.27050275  1  0  -0.200442  0  3.708234  0  0  -0.229112  0  3.956423  0  0  -0.233252  0  3.976562  0  0  -0.104548  -0.225657  0  3.942169  0
C  C42  1  0.77320657  0.74567742  0.79728823  1  0  0.12524  0  3.769631  0  0  0.147283  0  4.007909  0  0  0.148512  0  4.033133  0  0  -0.011318  0.146352  0  3.990745  0
C  C43  1  0.22678919  0.25432473  0.20271160  1  0  0.125463  0  3.769531  0  0  0.147345  0  4.008037  0  0  0.148575  0  4.033265  0  0  -0.011307  0.146412  0  3.990873  0
C  C44  1  0.97991185  0.73790337  0.80942665  1  0  -0.145068  0  3.759345  0  0  -0.168065  0  4.009591  0  0  -0.171997  0  4.031037  0  0  -0.102459  -0.165727  0  3.995264  0
C  C45  1  0.02008834  0.26209877  0.19057733  1  0  -0.145133  0  3.759458  0  0  -0.168104  0  4.009756  0  0  -0.172035  0  4.031202  0  0  -0.102457  -0.165768  0  3.995433  0
C  C46  1  0.08367114  0.80308927  0.75601542  1  0  -0.059807  0  3.822979  0  0  -0.070264  0  4.076835  0  0  -0.070437  0  4.097768  0  0  -0.097095  -0.069911  0  4.06265  0
C  C47  1  0.91632928  0.19691718  0.24399075  1  0  -0.059814  0  3.823142  0  0  -0.070311  0  4.077009  0  0  -0.070486  0  4.097946  0  0  -0.097142  -0.069958  0  4.06282  0
C  C48  1  0.98399298  0.87632868  0.68982628  1  0  -0.142444  0  3.728165  0  0  -0.167342  0  3.976499  0  0  -0.170858  0  3.997717  0  0  -0.101881  -0.165136  0  3.961975  0
C  C49  1  0.01601154  0.12367125  0.31017415  1  0  -0.142397  0  3.728358  0  0  -0.167328  0  3.976692  0  0  -0.17084  0  3.997909  0  0  -0.101816  -0.165123  0  3.962165  0
C  C50  1  0.66912866  0.95127732  0.59874914  1  0  -0.309668  0  3.697612  0  0  -0.351529  0  3.934254  0  0  -0.357083  0  3.941902  0  0  -0.164062  -0.347691  0  3.928784  0
C  C51  1  0.33088073  0.04873011  0.40125280  1  0  -0.309921  0  3.697722  0  0  -0.351719  0  3.934291  0  0  -0.357276  0  3.941952  0  0  -0.164117  -0.34788  0  3.928819  0
C  C52  1  0.51552178  0.05520256  0.62359971  1  0  0.693959  0  3.866939  0  0  0.649468  0  4.165268  0  0  0.681973  0  4.158991  0  0  0.203842  0.627378  0  4.168916  0
C  C53  1  0.48448015  0.94480382  0.37639840  1  0  0.693943  0  3.866735  0  0  0.649347  0  4.165209  0  0  0.681856  0  4.158937  0  0  0.203811  0.627256  0  4.168857  0
C  C54  1  0.66134082  0.67036099  0.85326053  1  0  -0.302021  0  3.698696  0  0  -0.345057  0  3.938255  0  0  -0.350373  0  3.945208  0  0  -0.164262  -0.341143  0  3.933303  0
C  C55  1  0.33864890  0.32963903  0.14673616  1  0  -0.302305  0  3.698801  0  0  -0.345277  0  3.938365  0  0  -0.350601  0  3.945328  0  0  -0.164333  -0.341356  0  3.933407  0
C  C56  1  0.60710879  0.51422956  0.81345177  1  0  0.693774  0  3.868589  0  0  0.655468  0  4.158657  0  0  0.68765  0  4.153042  0  0  0.197794  0.633597  0  4.161249  0
C  C57  1  0.39289700  0.48576601  0.18654031  1  0  0.694087  0  3.868345  0  0  0.655685  0  4.158524  0  0  0.687869  0  4.152907  0  0  0.197949  0.63381  0  4.161123  0
C  C58  1  0.02592991  0.25348768  0.55264784  1  0  0.135677  0  3.685724  0  0  0.103568  0  3.936425  0  0  0.111237  0  3.954222  0  0  0.048699  0.098557  0  3.924228  0
C  C59  1  0.97406561  0.74651017  0.44735297  1  0  0.135668  0  3.68572  0  0  0.103492  0  3.936446  0  0  0.11116  0  3.954241  0  0  0.048691  0.098483  0  3.92425  0
C  C60  1  0.84255152  0.28643970  0.50671542  1  0  -0.154336  0  3.666261  0  0  -0.172548  0  3.914489  0  0  -0.181072  0  3.935075  0  0  -0.078065  -0.16704  0  3.900847  0
C  C61  1  0.15743967  0.71356034  0.49328642  1  0  -0.154308  0  3.666424  0  0  -0.172485  0  3.914692  0  0  -0.181001  0  3.935267  0  0  -0.078082  -0.166978  0  3.901049  0
C  C62  1  0.75232634  0.41428682  0.53208509  1  0  0.147045  0  3.77965  0  0  0.160507  0  4.009912  0  0  0.166765  0  4.030879  0  0  0.013812  0.156211  0  3.996021  0
C  C63  1  0.24765892  0.58571328  0.46791877  1  0  0.147084  0  3.779771  0  0  0.160436  0  4.010173  0  0  0.166694  0  4.031139  0  0  0.01385  0.156144  0  3.99628  0
C  C64  1  0.85715602  0.50488267  0.60305492  1  0  -0.144294  0  3.682184  0  0  -0.159774  0  3.920835  0  0  -0.16784  0  3.943842  0  0  -0.076072  -0.15449  0  3.905616  0
C  C65  1  0.14282893  0.49511207  0.39695046  1  0  -0.144267  0  3.682482  0  0  -0.159725  0  3.921227  0  0  -0.167799  0  3.944243  0  0  -0.076121  -0.154433  0  3.905985  0
C  C66  1  0.04119928  0.46621196  0.64415936  1  0  0.119616  0  3.717749  0  0  0.08904  0  3.964104  0  0  0.095702  0  3.982778  0  0  0.041043  0.084548  0  3.951731  0
C  C67  1  0.95878560  0.53378170  0.35584658  1  0  0.119599  0  3.717804  0  0  0.089043  0  3.964093  0  0  0.095694  0  3.982762  0  0  0.041145  0.08457  0  3.951732  0
C  C68  1  0.55837268  0.44890554  0.48544882  1  0  -0.089101  0  3.679691  0  0  -0.109632  0  3.930073  0  0  -0.112098  0  3.948751  0  0  -0.07314  -0.108172  0  3.918279  0
C  C69  1  0.44160605  0.55108385  0.51455382  1  0  -0.088698  0  3.679574  0  0  -0.109204  0  3.929903  0  0  -0.11167  0  3.948588  0  0  -0.072893  -0.107746  0  3.918105  0
C  C70  1  0.39779517  0.11465446  0.83728719  1  0  0.145691  0  3.709757  0  0  0.112436  0  3.961724  0  0  0.120158  0  3.980026  0  0  0.053767  0.107252  0  3.950041  0
C  C71  1  0.60221817  0.88534435  0.16271641  1  0  0.145693  0  3.709816  0  0  0.112458  0  3.961764  0  0  0.120179  0  3.980069  0  0  0.053715  0.107273  0  3.950075  0
C  C72  1  0.33563641  0.04281742  0.89945418  1  0  -0.181192  0  3.724468  0  0  -0.198897  0  3.974045  0  0  -0.20815  0  3.996363  0  0  -0.086352  -0.193115  0  3.959691  0
C  C73  1  0.66438150  0.95718351  0.10054868  1  0  -0.181334  0  3.724552  0  0  -0.199097  0  3.974166  0  0  -0.208353  0  3.996488  0  0  -0.086398  -0.193307  0  3.959809  0
C  C74  1  0.14926560  0.07005020  0.92128575  1  0  0.139243  0  3.808209  0  0  0.153098  0  4.040173  0  0  0.158587  0  4.063599  0  0  0.01357  0.149603  0  4.02431  0
C  C75  1  0.85075953  0.92994743  0.07871561  1  0  0.13918  0  3.808525  0  0  0.153074  0  4.040448  0  0  0.158563  0  4.063886  0  0  0.013512  0.149571  0  4.024579  0
C  C76  1  0.03364261  0.17173574  0.87749661  1  0  -0.1406  0  3.648152  0  0  -0.157499  0  3.888383  0  0  -0.165567  0  3.908819  0  0  -0.06865  -0.15236  0  3.875009  0
C  C77  1  0.96636741  0.82825664  0.12250568  1  0  -0.14046  0  3.648151  0  0  -0.157368  0  3.888313  0  0  -0.165437  0  3.908756  0  0  -0.06859  -0.152222  0  3.874928  0
C  C78  1  0.10433840  0.23672735  0.81468065  1  0  0.151341  0  3.672582  0  0  0.118417  0  3.921087  0  0  0.126546  0  3.938314  0  0  0.058775  0.113173  0  3.909314  0
C  C79  1  0.89566742  0.76326936  0.18532094  1  0  0.151243  0  3.672478  0  0  0.118298  0  3.920931  0  0  0.126425  0  3.938159  0  0  0.058763  0.113063  0  3.909149  0
C  C80  1  0.08520186  0.99057502  0.98515084  1  0  -0.087542  0  3.709147  0  0  -0.109329  0  3.962696  0  0  -0.112309  0  3.983431  0  0  -0.073424  -0.107528  0  3.948937  0
C  C81  1  0.91481936  0.00943235  0.01485459  1  0  -0.087555  0  3.709326  0  0  -0.109363  0  3.962843  0  0  -0.112343  0  3.983579  0  0  -0.073309  -0.107555  0  3.949088  0
N  N82  1  0.12531850  0.34234951  0.62009807  1  0  -0.343197  0  3.321853  0  0  -0.256523  0  3.60017  0  0  -0.276151  0  3.6145  0  0  -0.336422  -0.243147  0  3.590648  0
N  N83  1  0.87466961  0.65764841  0.37990401  1  0  -0.343301  0  3.321806  0  0  -0.256579  0  3.600105  0  0  -0.276212  0  3.614446  0  0  -0.336523  -0.243206  0  3.590582  0
N  N84  1  0.28340598  0.20956658  0.79476068  1  0  -0.327161  0  3.310101  0  0  -0.241341  0  3.58379  0  0  -0.260685  0  3.598213  0  0  -0.325742  -0.228593  0  3.574363  0
N  N85  1  0.71659583  0.79043766  0.20523854  1  0  -0.327048  0  3.310116  0  0  -0.241229  0  3.583771  0  0  -0.260572  0  3.598195  0  0  -0.325712  -0.228483  0  3.574343  0
O  O86  1  0.33720766  0.01560548  0.61331924  1  0  -0.641127  0  1.932926  0  0  -0.591936  0  2.162712  0  0  -0.615222  0  2.154507  0  0  -0.324008  -0.575796  0  2.167845  0
O  O87  1  0.66279597  0.98440407  0.38667166  1  0  -0.641113  0  1.932605  0  0  -0.591893  0  2.162477  0  0  -0.615154  0  2.154217  0  0  -0.323996  -0.575756  0  2.167613  0
O  O88  1  0.58517165  0.18266695  0.65693278  1  0  -0.645429  0  2.005992  0  0  -0.570446  0  2.276929  0  0  -0.598646  0  2.262388  0  0  -0.33993  -0.550573  0  2.286284  0
O  O89  1  0.41482885  0.81734053  0.34306716  1  0  -0.645338  0  2.006008  0  0  -0.570337  0  2.277004  0  0  -0.598535  0  2.262451  0  0  -0.339898  -0.550467  0  2.286359  0
O  O90  1  0.46877604  0.50316723  0.74428513  1  0  -0.674009  0  2.0184  0  0  -0.597445  0  2.288424  0  0  -0.62728  0  2.274835  0  0  -0.346531  -0.576292  0  2.296615  0
O  O91  1  0.53121540  0.49683709  0.25571323  1  0  -0.674068  0  2.01842  0  0  -0.597484  0  2.288506  0  0  -0.627322  0  2.274922  0  0  -0.346546  -0.576329  0  2.2967  0
O  O92  1  0.69354730  0.41163296  0.84592068  1  0  -0.629648  0  1.873274  0  0  -0.588149  0  2.083347  0  0  -0.609939  0  2.074716  0  0  -0.337793  -0.571784  0  2.088539  0
O  O93  1  0.30647335  0.58836241  0.15405877  1  0  -0.629781  0  1.873049  0  0  -0.588263  0  2.083188  0  0  -0.610053  0  2.074553  0  0  -0.337916  -0.571897  0  2.088387  0
