# generated using pymatgen
data_Gd2H15(C10O9)2
_symmetry_space_group_name_H-M   'P 1'
_cell_length_a   7.41474081
_cell_length_b   11.44036407
_cell_length_c   15.92685899
_cell_angle_alpha   78.80298303
_cell_angle_beta   81.60033825
_cell_angle_gamma   80.84520685
_symmetry_Int_Tables_number   1
_chemical_formula_structural   Gd2H15(C10O9)2
_chemical_formula_sum   'Gd4 H30 C40 O36'
_cell_volume   1299.14793348
_cell_formula_units_Z   2
loop_
 _symmetry_equiv_pos_site_id
 _symmetry_equiv_pos_as_xyz
  1  'x, y, z'
loop_
 _atom_site_type_symbol
 _atom_site_label
 _atom_site_symmetry_multiplicity
 _atom_site_fract_x
 _atom_site_fract_y
 _atom_site_fract_z
 _atom_site_occupancy
 _atom_site_pbe_bader_charge
 _atom_site_pbe_bader_spin_density
 _atom_site_pbe_cm5_charge
 _atom_site_pbe_ddec_charge
 _atom_site_pbe_ddec_spin_density
 _atom_site_pbe_ddec_sum_bond_order
 _atom_site_pbe_magmom
Gd  Gd0  1  0.94562609  0.05789012  0.77404732  1  2.184938  0  1.436749  2.063484  0  2.08374  0
Gd  Gd1  1  0.05437668  0.94210980  0.22595207  1  2.185003  0  1.436739  2.063409  0  2.083851  0
Gd  Gd2  1  0.45231776  0.26296360  0.76130124  1  2.181541  0  1.50046  2.069988  0  2.259132  0
Gd  Gd3  1  0.54768262  0.73704081  0.23869894  1  2.181432  0  1.500463  2.069986  0  2.259083  0
H  H4  1  0.99191882  0.21198300  0.94779445  1  0.642959  0  0.317011  0.363563  0  0.949438  0
H  H5  1  0.00807268  0.78801866  0.05220416  1  0.642888  0  0.317061  0.36361  0  0.949395  0
H  H6  1  0.58478056  0.73829047  0.98741186  1  0.652882  0  0.305228  0.35952  0  0.96155  0
H  H7  1  0.41522572  0.26171125  0.01259522  1  0.652917  0  0.30526  0.35966  0  0.961399  0
H  H8  1  0.85359391  0.24758060  0.57222940  1  0.643451  0  0.306749  0.353428  0  0.970606  0
H  H9  1  0.14641628  0.75241668  0.42776925  1  0.643527  0  0.306712  0.353313  0  0.970779  0
H  H10  1  0.80890981  0.86676838  0.61942989  1  0.64055  0  0.306569  0.355668  0  0.963556  0
H  H11  1  0.19109691  0.13323248  0.38056598  1  0.640484  0  0.30658  0.355738  0  0.963454  0
H  H12  1  0.28885646  0.97617423  0.65430565  1  0.635777  0  0.318675  0.399984  0  0.913907  0
H  H13  1  0.71114616  0.02382661  0.34569111  1  0.635834  0  0.318639  0.399906  0  0.91399  0
H  H14  1  0.16765956  0.87277850  0.66501396  1  0.629321  0  0.350376  0.439332  0  0.831384  0
H  H15  1  0.83234981  0.12721606  0.33498763  1  0.629333  0  0.350443  0.439485  0  0.831214  0
H  H16  1  0.77362803  0.81811568  0.85242779  1  0.644397  0  0.315469  0.414287  0  0.890016  0
H  H17  1  0.22636500  0.18188508  0.14757273  1  0.644438  0  0.315447  0.414275  0  0.890057  0
H  H18  1  0.94867965  0.82461222  0.89393903  1  0.638739  0  0.30862  0.409652  0  0.916657  0
H  H19  1  0.05131948  0.17538589  0.10605833  1  0.638432  0  0.308616  0.40966  0  0.916627  0
H  H20  1  0.63434437  0.45600993  0.66024207  1  0.629469  0  0.328708  0.417125  0  0.870944  0
H  H21  1  0.36565510  0.54398637  0.33975865  1  0.629429  0  0.32871  0.417151  0  0.870916  0
H  H22  1  0.61046791  0.38177822  0.59117268  1  0.626483  0  0.308761  0.393185  0  0.936613  0
H  H23  1  0.38953351  0.61821539  0.40882891  1  0.626684  0  0.308732  0.3931  0  0.936756  0
H  H24  1  0.86990535  0.38834071  0.11484319  1  0.08579  0  0.115372  0.13916  0  0.982607  0
H  H25  1  0.13008928  0.61165285  0.88515759  1  0.085779  0  0.115401  0.139184  0  0.982575  0
H  H26  1  0.65925837  0.55068281  0.82730155  1  0.111602  0  0.115214  0.137309  0  0.977718  0
H  H27  1  0.34073185  0.44932423  0.17270080  1  0.111514  0  0.11515  0.137287  0  0.977699  0
H  H28  1  0.24410679  0.49934663  0.59204900  1  0.141166  0  0.118182  0.150171  0  0.998866  0
H  H29  1  0.75588778  0.50065324  0.40795217  1  0.141361  0  0.118166  0.150171  0  0.998838  0
H  H30  1  0.41009299  0.19696543  0.54889883  1  0.100908  0  0.120208  0.144818  0  0.994917  0
H  H31  1  0.58991939  0.80303457  0.45109617  1  0.100707  0  0.120195  0.144901  0  0.994943  0
H  H32  1  0.18574532  0.94497303  0.03043618  1  0.119573  0  0.112912  0.117367  0  1.053073  0
H  H33  1  0.81425781  0.05503140  0.96956320  1  0.119388  0  0.11289  0.117303  0  1.053158  0
C  C34  1  0.80341790  0.39920872  0.90535440  1  0.04589  0  -0.024606  -0.149068  0  3.968377  0
C  C35  1  0.19657571  0.60078934  0.09464708  1  0.045966  0  -0.024559  -0.148995  0  3.968294  0
C  C36  1  0.87153410  0.35502173  0.98591296  1  0.433719  0  0.084723  0.288094  0  4.044437  0
C  C37  1  0.12845507  0.64497811  0.01408668  1  0.433761  0  0.084606  0.287915  0  4.044556  0
C  C38  1  0.82773083  0.42362244  0.05101850  1  0.0723  0  -0.088654  -0.184598  0  3.946464  0
C  C39  1  0.17226707  0.57637475  0.94898283  1  0.073023  0  -0.08869  -0.184623  0  3.94626  0
C  C40  1  0.73412019  0.54002725  0.03496969  1  0.018684  0  -0.024732  -0.136684  0  3.998611  0
C  C41  1  0.26587530  0.45996811  0.96503581  1  0.017908  0  -0.024738  -0.136832  0  3.998531  0
C  C42  1  0.68257570  0.58992108  0.95160365  1  0.462523  0  0.081517  0.282534  0  4.047393  0
C  C43  1  0.31742015  0.41007878  0.04840121  1  0.462707  0  0.081557  0.282722  0  4.047432  0
C  C44  1  0.71087918  0.51669969  0.88925031  1  -0.001674  0  -0.093111  -0.190716  0  3.946619  0
C  C45  1  0.28911811  0.48330020  0.11075131  1  -0.001676  0  -0.093102  -0.190779  0  3.946693  0
C  C46  1  0.81942979  0.31967751  0.84073964  1  1.536101  0  0.235568  0.657828  0  4.120633  0
C  C47  1  0.18056301  0.68033045  0.15925990  1  1.536106  0  0.235502  0.657761  0  4.120865  0
C  C48  1  0.68888006  0.60952840  0.10599166  1  1.509916  0  0.190378  0.574934  0  4.220865  0
C  C49  1  0.31111812  0.39046697  0.89401492  1  1.509794  0  0.190579  0.575416  0  4.22045  0
C  C50  1  0.90433025  0.40095261  0.51153345  1  0.449161  0  0.07418  0.266542  0  4.089364  0
C  C51  1  0.09566702  0.59904727  0.48846881  1  0.449143  0  0.07415  0.266484  0  4.08941  0
C  C52  1  0.04169902  0.40047959  0.56462626  1  -0.026399  0  -0.027156  -0.154011  0  3.989111  0
C  C53  1  0.95829457  0.59951847  0.43537585  1  -0.026417  0  -0.027181  -0.154012  0  3.989335  0
C  C54  1  0.13645741  0.50014670  0.55204463  1  0.047514  0  -0.0919  -0.184864  0  3.931592  0
C  C55  1  0.86353537  0.49985495  0.44795829  1  0.047311  0  -0.091812  -0.184774  0  3.931701  0
C  C56  1  0.08931196  0.29730959  0.63414162  1  1.556112  0  0.241669  0.665814  0  4.129179  0
C  C57  1  0.91068574  0.70268849  0.36585959  1  1.556289  0  0.241677  0.665743  0  4.129246  0
C  C58  1  0.63732695  0.91330536  0.53893591  1  0.544735  0  0.078988  0.280776  0  4.102813  0
C  C59  1  0.36268047  0.08669820  0.46106268  1  0.544781  0  0.078955  0.280778  0  4.102642  0
C  C60  1  0.44710254  0.11064327  0.52751108  1  -0.001346  0  -0.094628  -0.201388  0  3.953233  0
C  C61  1  0.55291936  0.88935048  0.47248606  1  -0.000784  0  -0.094595  -0.201541  0  3.953144  0
C  C62  1  0.58254202  0.02603450  0.56656691  1  -0.0653  0  -0.033546  -0.178858  0  4.011275  0
C  C63  1  0.41747149  0.97396640  0.43342915  1  -0.065589  0  -0.033597  -0.178944  0  4.010849  0
C  C64  1  0.67076555  0.05814777  0.63526964  1  1.551868  0  0.231826  0.64584  0  4.147318  0
C  C65  1  0.32922860  0.94185482  0.36472302  1  1.552319  0  0.231793  0.645886  0  4.147197  0
C  C66  1  0.32446522  0.96895870  0.01831981  1  0.013012  0  -0.092814  -0.201908  0  3.93409  0
C  C67  1  0.67553656  0.03104572  0.98167902  1  0.013821  0  -0.092761  -0.201803  0  3.933869  0
C  C68  1  0.57125327  0.04617038  0.91313568  1  0.525548  0  0.07489  0.327825  0  4.131303  0
C  C69  1  0.42875168  0.95383227  0.08686068  1  0.526181  0  0.074964  0.327934  0  4.131321  0
C  C70  1  0.39064192  0.01369029  0.93316893  1  -0.008367  0  -0.021657  -0.126161  0  3.937949  0
C  C71  1  0.60936450  0.98631145  0.06683186  1  -0.008395  0  -0.021668  -0.126201  0  3.937937  0
C  C72  1  0.26060590  0.02889673  0.86885985  1  1.5001  0  0.217082  0.633851  0  4.136045  0
C  C73  1  0.73939379  0.97110498  0.13113761  1  1.499908  0  0.217136  0.634017  0  4.135755  0
O  O74  1  0.93549321  0.22255880  0.84935437  1  -1.191491  0  -0.363132  -0.658832  0  2.33763  0
O  O75  1  0.06449402  0.77744372  0.15064439  1  -1.191689  0  -0.363183  -0.658838  0  2.337645  0
O  O76  1  0.71601145  0.34577648  0.78066846  1  -1.203394  0  -0.387063  -0.695648  0  2.309272  0
O  O77  1  0.28397634  0.65422965  0.21932977  1  -1.203257  0  -0.386947  -0.695547  0  2.309434  0
O  O78  1  0.72075944  0.56436394  0.18268651  1  -1.171797  0  -0.37486  -0.605948  0  2.130496  0
O  O79  1  0.27923547  0.43562781  0.81732015  1  -1.171593  0  -0.375057  -0.60625  0  2.130292  0
O  O80  1  0.60954195  0.71999662  0.08888350  1  -1.187494  0  -0.38128  -0.651087  0  2.310855  0
O  O81  1  0.39045689  0.28000238  0.91111815  1  -1.187574  0  -0.381297  -0.651247  0  2.310892  0
O  O82  1  0.97724131  0.24636302  0.00214650  1  -1.167245  0  -0.336182  -0.443997  0  2.37666  0
O  O83  1  0.02275473  0.75363687  0.99784955  1  -1.167277  0  -0.33613  -0.44389  0  2.376783  0
O  O84  1  0.60315919  0.70635565  0.93137730  1  -1.174294  0  -0.354781  -0.465122  0  2.283681  0
O  O85  1  0.39684130  0.29364784  0.06862739  1  -1.174438  0  -0.354804  -0.465291  0  2.283677  0
O  O86  1  0.99731161  0.20676453  0.64797146  1  -1.196602  0  -0.380806  -0.685545  0  2.303842  0
O  O87  1  0.00269362  0.79323092  0.35202336  1  -1.196652  0  -0.380802  -0.685461  0  2.303733  0
O  O88  1  0.21759656  0.30268128  0.67634270  1  -1.201235  0  -0.395159  -0.648975  0  2.363374  0
O  O89  1  0.78239620  0.69732037  0.32366086  1  -1.201402  0  -0.395183  -0.648974  0  2.363473  0
O  O90  1  0.80256020  0.30789660  0.52360093  1  -1.165505  0  -0.355518  -0.458958  0  2.321343  0
O  O91  1  0.19744565  0.69210154  0.47640039  1  -1.165571  0  -0.355469  -0.458823  0  2.321508  0
O  O92  1  0.61777753  0.15976527  0.65764737  1  -1.208404  0  -0.399282  -0.688244  0  2.428026  0
O  O93  1  0.38220935  0.84023276  0.34235078  1  -1.208714  0  -0.399239  -0.688283  0  2.427903  0
O  O94  1  0.80134863  0.98358546  0.66861073  1  -1.173327  0  -0.35676  -0.629694  0  2.23087  0
O  O95  1  0.19866363  0.01642714  0.33138507  1  -1.173494  0  -0.356726  -0.629655  0  2.230925  0
O  O96  1  0.76700718  0.82934441  0.57487046  1  -1.153888  0  -0.357815  -0.43888  0  2.258113  0
O  O97  1  0.23300065  0.17065735  0.42512773  1  -1.153775  0  -0.357787  -0.438949  0  2.258007  0
O  O98  1  0.28452615  0.09631402  0.79419423  1  -1.197405  0  -0.411058  -0.710488  0  2.335436  0
O  O99  1  0.71547290  0.90368407  0.20580690  1  -1.197408  0  -0.411098  -0.710592  0  2.335197  0
O  O100  1  0.11519635  0.97804390  0.88864083  1  -1.170205  0  -0.394622  -0.614311  0  2.271447  0
O  O101  1  0.88481224  0.02195426  0.11135969  1  -1.170135  0  -0.394722  -0.614445  0  2.27141  0
O  O102  1  0.64050646  0.09227229  0.83252203  1  -1.205541  0  -0.519029  -0.806501  0  2.474213  0
O  O103  1  0.35949659  0.90772675  0.16747370  1  -1.205272  0  -0.519015  -0.806502  0  2.47427  0
O  O104  1  0.19286406  0.93622924  0.69260199  1  -1.228026  0  -0.597433  -0.804571  0  2.017399  0
O  O105  1  0.80714588  0.06376893  0.30739844  1  -1.228071  0  -0.597469  -0.804631  0  2.017414  0
O  O106  1  0.88930660  0.85318677  0.84035883  1  -1.253962  0  -0.630187  -0.839881  0  2.030327  0
O  O107  1  0.11069344  0.14681313  0.15964073  1  -1.253752  0  -0.630167  -0.839847  0  2.030379  0
O  O108  1  0.54210769  0.42102021  0.63875724  1  -1.224454  0  -0.608343  -0.797128  0  2.038985  0
O  O109  1  0.45789219  0.57897429  0.36124308  1  -1.224602  0  -0.608299  -0.797079  0  2.039066  0
