# generated using pymatgen
data_CuH8C6(SN2)2
_symmetry_space_group_name_H-M   'P 1'
_cell_length_a   7.78999605
_cell_length_b   9.06082954
_cell_length_c   14.02499633
_cell_angle_alpha   90.00717192
_cell_angle_beta   89.99227802
_cell_angle_gamma   108.98749783
_symmetry_Int_Tables_number   1
_chemical_formula_structural   CuH8C6(SN2)2
_chemical_formula_sum   'Cu4 H32 C24 S8 N16'
_cell_volume   936.07496808
_cell_formula_units_Z   4
loop_
 _symmetry_equiv_pos_site_id
 _symmetry_equiv_pos_as_xyz
  1  'x, y, z'
loop_
 _atom_site_type_symbol
 _atom_site_label
 _atom_site_symmetry_multiplicity
 _atom_site_fract_x
 _atom_site_fract_y
 _atom_site_fract_z
 _atom_site_occupancy
 _atom_site_hle17_ddec_charge
 _atom_site_hle17_ddec_spin_density
 _atom_site_hle17_ddec_sum_bond_order
 _atom_site_hle17_magmom
 _atom_site_hse06_10hf_ddec_charge
 _atom_site_hse06_10hf_ddec_spin_density
 _atom_site_hse06_10hf_ddec_sum_bond_order
 _atom_site_hse06_10hf_magmom
 _atom_site_hse06_ddec_charge
 _atom_site_hse06_ddec_spin_density
 _atom_site_hse06_ddec_sum_bond_order
 _atom_site_hse06_magmom
 _atom_site_pbe_cm5_charge
 _atom_site_pbe_ddec_charge
 _atom_site_pbe_ddec_spin_density
 _atom_site_pbe_ddec_sum_bond_order
 _atom_site_pbe_magmom
Cu  Cu0  1  0.00000044  0.00000117  0.00000143  1  0.33634  0.434447  2.455831  0.275  0.318854  0.524573  2.891329  0.359  0.367599  0.59568  2.841041  0.422  0.422571  0.296159  0.484177  2.922515  0.327
Cu  Cu1  1  0.00000156  0.49999873  0.49999863  1  0.3371  0.419478  2.455222  0.266  0.318548  0.517721  2.89228  0.356  0.367386  0.592091  2.841987  0.42  0.422369  0.295691  0.471176  2.923505  0.319
Cu  Cu2  1  0.49999964  0.99999867  0.49999951  1  0.778344  -0.698037  1.808085  -0.467  0.757902  -0.793455  2.1875  -0.58  0.829182  -0.888574  2.136062  -0.655  0.736072  0.717818  -0.728351  2.221337  -0.533
Cu  Cu3  1  0.49999894  0.49999878  0.99999946  1  0.779612  0.721563  1.805913  0.471  0.757419  0.828151  2.185911  0.582  0.828711  0.895988  2.134356  0.655  0.735828  0.717847  0.782802  2.219599  0.539
H  H4  1  0.17218796  0.11119598  0.33008725  1  0.068824  -0.002863  0.932416  -0.004  0.083308  -0.002161  0.996645  -0.003  0.083299  -0.001636  0.997018  -0.002  0.097997  0.083045  -0.002505  0.997045  -0.003
H  H5  1  0.82786128  0.38900301  0.82994486  1  0.069197  0.003242  0.932413  0.004  0.083329  0.002527  0.996839  0.003  0.083321  0.001831  0.997233  0.002  0.097941  0.083082  0.003027  0.997198  0.003
H  H6  1  0.82780938  0.88880317  0.66991265  1  0.068811  -0.002868  0.93242  -0.004  0.083307  -0.002161  0.996649  -0.003  0.083299  -0.001636  0.997021  -0.002  0.097985  0.083044  -0.002505  0.997059  -0.003
H  H7  1  0.17213477  0.61099613  0.17005433  1  0.069183  0.003237  0.932436  0.004  0.083306  0.002526  0.996878  0.003  0.083305  0.001831  0.997275  0.002  0.097938  0.083058  0.003027  0.997243  0.003
H  H8  1  0.12889629  0.05605349  0.45201108  1  0.068324  3e-06  0.93719  0.0  0.08471  4.6e-05  1.000021  0.0  0.084616  1.4e-05  1.000662  0.0  0.100339  0.08451  6.6e-05  1.00001  0.0
H  H9  1  0.87100087  0.44394740  0.95191914  1  0.068796  -0.000135  0.936645  0.0  0.084976  -0.000149  0.999542  0.0  0.084939  -0.000135  1.000137  0.0  0.100475  0.084727  -0.000112  0.999583  0.0
H  H10  1  0.87110403  0.94394334  0.54798882  1  0.068384  -1e-06  0.937147  0.0  0.084779  4.6e-05  0.99997  0.0  0.084686  1.4e-05  1.000611  0.0  0.100364  0.084583  6.6e-05  0.999957  0.0
H  H11  1  0.12900161  0.55605176  0.04808005  1  0.068805  -0.000137  0.93665  0.0  0.084966  -0.000149  0.999569  0.0  0.084936  -0.000135  1.000169  0.0  0.100471  0.084716  -0.000112  0.999611  0.0
H  H12  1  0.06534922  0.81626362  0.35270717  1  0.061677  -0.002247  0.945705  -0.004  0.073098  -0.00136  1.016269  -0.003  0.072037  -0.000917  1.018665  -0.002  0.093134  0.073743  -0.001648  1.01432  -0.003
H  H13  1  0.93479344  0.68384605  0.85267096  1  0.062184  0.004035  0.945047  0.004  0.07291  0.003281  1.016166  0.003  0.071822  0.002521  1.018511  0.002  0.092987  0.073578  0.003806  1.014218  0.004
H  H14  1  0.93464940  0.18373554  0.64729059  1  0.061657  -0.00225  0.945711  -0.004  0.073094  -0.001361  1.016265  -0.003  0.072032  -0.000917  1.018662  -0.002  0.093146  0.073735  -0.001648  1.014325  -0.003
H  H15  1  0.06520819  0.31615428  0.14732895  1  0.062183  0.004029  0.945066  0.004  0.072914  0.003281  1.016175  0.003  0.071827  0.002521  1.01852  0.002  0.092981  0.073577  0.003805  1.014229  0.004
H  H16  1  0.28298213  0.89051939  0.29935649  1  0.073125  0.000217  0.925256  0.0  0.088644  0.000255  0.986924  0.0  0.088692  0.000195  0.987485  0.0  0.102852  0.088353  0.000258  0.986667  0.0
H  H17  1  0.71709607  0.60976806  0.79939916  1  0.073164  -6e-06  0.925851  0.0  0.088485  -4.7e-05  0.987467  0.0  0.088511  -4.5e-05  0.988023  0.0  0.10282  0.088217  -6.7e-05  0.98722  0.0
H  H18  1  0.71701520  0.10947976  0.70064127  1  0.073165  0.000209  0.925245  0.0  0.088675  0.000254  0.986926  0.0  0.088724  0.000196  0.987483  0.0  0.102888  0.088386  0.000258  0.986669  0.0
H  H19  1  0.28290340  0.39022993  0.20060075  1  0.073169  -1.4e-05  0.925848  0.0  0.088489  -4.7e-05  0.987473  0.0  0.088515  -4.5e-05  0.988027  0.0  0.102827  0.088222  -6.7e-05  0.98722  0.0
H  H20  1  0.32929329  0.73587812  0.41622112  1  0.286776  0.000732  0.93436  0.002  0.272915  -0.000388  1.005167  0.0  0.279025  -0.000262  1.002217  0.0  0.282319  0.2682  -0.000524  1.008426  0.0
H  H21  1  0.67109490  0.76440317  0.91645615  1  0.287237  -0.000798  0.933531  -0.002  0.272981  0.000497  1.004964  0.0  0.279073  0.000226  1.002046  0.0  0.282469  0.268284  0.00077  1.008242  0.0
H  H22  1  0.67070706  0.26412220  0.58377593  1  0.286885  0.000734  0.93422  0.002  0.273025  -0.000387  1.005024  0.0  0.279135  -0.000262  1.002075  0.0  0.282348  0.268307  -0.000523  1.008286  0.0
H  H23  1  0.32890372  0.23559598  0.08354304  1  0.287244  -0.000797  0.933519  -0.002  0.272989  0.000497  1.004952  0.0  0.279081  0.000226  1.002034  0.0  0.28248  0.268293  0.00077  1.008225  0.0
H  H24  1  0.20393107  0.78561507  0.49772671  1  0.270682  0.000699  0.934237  0.002  0.254975  -0.000359  1.012034  0.0  0.261848  -0.000264  1.006581  0.001  0.273811  0.249717  -0.000435  1.01687  0.0
H  H25  1  0.79630724  0.71432146  0.99785042  1  0.270747  -0.001902  0.934271  -0.002  0.255151  -0.000474  1.012035  0.0  0.262051  -0.000742  1.006535  -0.001  0.273906  0.249904  -0.000192  1.016889  0.0
H  H26  1  0.79606668  0.21438175  0.50227106  1  0.270733  0.000699  0.934256  0.002  0.255046  -0.000359  1.012016  0.0  0.261927  -0.000264  1.006553  0.001  0.273842  0.249768  -0.000436  1.016871  0.0
H  H27  1  0.20369138  0.28567769  0.00214806  1  0.270773  -0.001901  0.934264  -0.002  0.255151  -0.000474  1.012045  0.0  0.262052  -0.000743  1.006543  -0.001  0.273908  0.249906  -0.000192  1.016912  0.0
H  H28  1  0.40742514  0.24320670  0.45432265  1  0.277907  0.003251  0.934833  0.002  0.268282  0.001976  0.999904  0.001  0.274937  0.001817  0.996803  0.001  0.273078  0.263542  0.001924  1.002593  0.001
H  H29  1  0.59240926  0.25681994  0.95397193  1  0.279003  0.001489  0.933125  -0.002  0.268692  0.002766  0.998944  0.0  0.275265  0.002182  0.995941  0.0  0.273397  0.264088  0.00322  1.001446  0.0
H  H30  1  0.59257476  0.75679246  0.54567512  1  0.277923  0.003253  0.934814  0.002  0.268298  0.001976  0.999894  0.001  0.274954  0.001817  0.996793  0.001  0.27309  0.263557  0.001924  1.002581  0.001
H  H31  1  0.40759109  0.74318038  0.04602798  1  0.27897  0.00149  0.933142  -0.002  0.268663  0.002766  0.998987  0.0  0.275236  0.002182  0.995983  0.0  0.273382  0.264058  0.00322  1.001488  0.0
H  H32  1  0.48234386  0.17700067  0.35810029  1  0.289523  0.000425  0.912965  0.001  0.28116  -0.000547  0.972488  0.0  0.286056  -0.0003  0.971475  0.0  0.289865  0.277659  -0.000744  0.97352  0.0
H  H33  1  0.51760869  0.32340007  0.85789905  1  0.29005  -0.000409  0.91251  -0.001  0.281198  0.000651  0.972491  0.0  0.286082  0.000322  0.971475  0.0  0.289682  0.277767  0.000952  0.973496  0.001
H  H34  1  0.51765347  0.82299847  0.64189747  1  0.289517  0.000428  0.912994  0.001  0.281159  -0.000547  0.972512  0.0  0.286054  -0.0003  0.971499  0.0  0.289877  0.277658  -0.000744  0.973544  0.0
H  H35  1  0.48239165  0.67660026  0.14210227  1  0.289984  -0.000406  0.912513  -0.001  0.281202  0.000652  0.972424  0.0  0.286087  0.000322  0.971407  0.0  0.289698  0.27777  0.000953  0.97342  0.001
C  C36  1  0.19362735  0.00752581  0.80440458  1  -0.027902  0.00094  3.925798  -0.002  -0.017447  0.0031  4.186125  0.0  -0.013111  0.001977  4.201626  -0.001  -0.019073  -0.020095  0.00397  4.175829  0.0
C  C37  1  0.80616486  0.49243684  0.30448243  1  -0.028547  -0.002744  3.925236  -0.006  -0.018103  0.001762  4.185868  -0.002  -0.013848  0.000961  4.20136  -0.002  -0.019159  -0.020842  0.003094  4.175479  0.0
C  C38  1  0.80637600  0.99247569  0.19559889  1  -0.027954  0.000934  3.925596  -0.002  -0.01759  0.003092  4.186056  0.0  -0.013259  0.001986  4.201559  -0.001  -0.019168  -0.020234  0.003968  4.17573  0.0
C  C39  1  0.19383805  0.50756349  0.69551747  1  -0.028451  -0.002772  3.925325  -0.006  -0.017987  0.001759  4.185928  -0.002  -0.01373  0.000967  4.201416  -0.002  -0.019123  -0.020732  0.003095  4.17557  0.0
C  C40  1  0.22453946  0.01014409  0.70513147  1  0.291223  0.000501  3.79603  -0.001  0.278648  0.002373  4.072901  0.001  0.29313  0.001454  4.085909  0.0  0.179162  0.268612  0.003266  4.065026  0.001
C  C41  1  0.77524460  0.48984327  0.20520861  1  0.291569  -0.000835  3.795346  -0.002  0.278542  0.000751  4.072546  -0.001  0.293034  -1.1e-05  4.085544  -0.001  0.17905  0.26854  0.001448  4.064696  -0.001
C  C42  1  0.77546214  0.98985275  0.29487271  1  0.291324  0.000459  3.795847  -0.001  0.278795  0.002375  4.07271  0.001  0.29328  0.00145  4.085712  0.0  0.179239  0.268764  0.003265  4.064821  0.001
C  C43  1  0.22475361  0.51015821  0.79478845  1  0.29149  -0.000889  3.795321  -0.002  0.278451  0.000751  4.072523  -0.001  0.292944  -1.8e-05  4.08552  -0.001  0.178998  0.268457  0.001448  4.06469  -0.001
C  C44  1  0.29094290  0.94243516  0.86495777  1  -0.030173  -9.1e-05  3.928781  -0.003  -0.018801  0.003323  4.190426  0.0  -0.014182  0.002341  4.205291  -0.001  -0.023733  -0.021486  0.004584  4.178911  0.001
C  C45  1  0.70899169  0.55765808  0.36507278  1  -0.029818  -0.000604  3.927462  -0.003  -0.018448  0.003053  4.189796  0.0  -0.013725  0.002478  4.204625  0.0  -0.02362  -0.021089  0.003096  4.178344  0.0
C  C46  1  0.70906518  0.05756869  0.13504855  1  -0.030124  -7.4e-05  3.928449  -0.003  -0.018716  0.003328  4.190112  0.0  -0.014091  0.002327  4.204972  -0.001  -0.023698  -0.021393  0.004581  4.178568  0.001
C  C47  1  0.29100349  0.44233873  0.63492641  1  -0.029778  -0.000568  3.927495  -0.003  -0.018435  0.003057  4.189864  0.0  -0.013716  0.002473  4.204692  0.0  -0.023603  -0.021093  0.003098  4.178457  0.0
C  C48  1  0.42628205  0.88673333  0.82794426  1  0.284464  -0.000207  3.78919  -0.001  0.267471  0.001674  4.06462  0.0  0.279585  0.000701  4.077492  -0.001  0.179338  0.259093  0.002575  4.055039  0.0
C  C49  1  0.57355334  0.61326005  0.32810837  1  0.28395  7.7e-05  3.789504  -0.001  0.266905  0.001813  4.065286  0.0  0.279074  0.000746  4.078063  -0.001  0.178914  0.258555  0.002802  4.05569  0.001
C  C50  1  0.57371575  0.11327049  0.17206206  1  0.284408  -0.000201  3.789383  -0.001  0.267418  0.001675  4.064795  0.0  0.279528  0.000706  4.077665  -0.001  0.179297  0.259032  0.002574  4.055206  0.0
C  C51  1  0.42643541  0.38673674  0.67188868  1  0.284045  3.8e-05  3.788856  -0.001  0.267027  0.001811  4.064636  0.0  0.279203  0.000742  4.077414  -0.001  0.178972  0.258674  0.002802  4.055073  0.001
C  C52  1  0.21609691  0.05551608  0.39072431  1  0.038033  0.00054  3.639521  0.002  -0.016601  -0.001292  3.90488  0.0  -0.011894  -0.000625  3.917496  0.001  -0.0821  -0.019844  -0.001763  3.897028  0.0
C  C53  1  0.78389672  0.44461419  0.89061907  1  0.037821  -9.5e-05  3.640037  -0.002  -0.01688  0.002066  3.905798  0.0  -0.012298  0.001057  3.918457  -0.001  -0.082278  -0.020002  0.002883  3.897921  0.0
C  C54  1  0.78390256  0.94448191  0.60927488  1  0.037979  0.000556  3.639457  0.002  -0.016689  -0.001292  3.904866  0.0  -0.011988  -0.000625  3.917485  0.001  -0.082122  -0.019936  -0.001764  3.897027  0.0
C  C55  1  0.21610018  0.55538379  0.10938226  1  0.037854  -8.2e-05  3.639892  -0.002  -0.016834  0.002066  3.905696  0.0  -0.012291  0.001057  3.918412  -0.001  -0.082234  -0.019953  0.002883  3.89781  0.0
C  C56  1  0.20639767  0.89028704  0.36502572  1  0.048134  0.001811  3.627763  0.003  -0.003245  -0.000252  3.891806  0.001  0.001414  0.000248  3.905299  0.002  -0.080395  -0.005873  -0.000717  3.88261  0.001
C  C57  1  0.79371936  0.60991286  0.86503263  1  0.047861  2.1e-05  3.627909  -0.003  -0.002964  0.002693  3.892387  0.0  0.001823  0.001715  3.905707  -0.001  -0.080061  -0.005658  0.003483  3.883303  0.001
C  C58  1  0.79360223  0.10971212  0.63497275  1  0.048105  0.001819  3.627693  0.003  -0.003271  -0.00025  3.891746  0.001  0.001391  0.000247  3.905236  0.002  -0.080441  -0.005893  -0.000717  3.882547  0.001
C  C59  1  0.20627970  0.39008746  0.13496727  1  0.047837  4.6e-05  3.627969  -0.003  -0.002991  0.002692  3.892447  0.0  0.001808  0.001716  3.905771  -0.001  -0.080078  -0.005683  0.003483  3.883355  0.001
S  S60  1  0.02909309  0.08103969  0.84568873  1  -0.254128  0.136182  2.206986  0.129  -0.244293  0.100421  2.566362  0.098  -0.270794  0.090173  2.563294  0.093  -0.166349  -0.228201  0.105191  2.569139  0.099
S  S61  1  0.97051975  0.41872061  0.34575159  1  -0.25374  0.126726  2.207076  0.12  -0.244316  0.097271  2.567013  0.095  -0.27048  0.088266  2.563686  0.091  -0.166325  -0.227861  0.100382  2.569588  0.094
S  S62  1  0.97091154  0.91896181  0.15431260  1  -0.254171  0.136179  2.206891  0.129  -0.244311  0.100424  2.566331  0.098  -0.27081  0.090182  2.563261  0.093  -0.166351  -0.228219  0.105205  2.569092  0.099
S  S63  1  0.02948833  0.58128324  0.65424617  1  -0.253708  0.12671  2.207042  0.12  -0.244279  0.097268  2.566937  0.095  -0.270457  0.088265  2.563631  0.091  -0.166276  -0.227816  0.100376  2.569518  0.094
S  S64  1  0.25179743  0.92663683  0.98645240  1  -0.282854  0.135251  2.273528  0.128  -0.270179  0.10258  2.636984  0.1  -0.294044  0.091594  2.630535  0.094  -0.172717  -0.256142  0.107709  2.642205  0.101
S  S65  1  0.74850273  0.57371802  0.48653935  1  -0.279547  0.122943  2.27243  0.116  -0.269346  0.099986  2.637134  0.097  -0.293523  0.090282  2.630735  0.092  -0.172294  -0.255559  0.103065  2.642597  0.096
S  S66  1  0.74820638  0.07336934  0.01355107  1  -0.282891  0.13525  2.273366  0.128  -0.270227  0.102586  2.636822  0.1  -0.294093  0.091593  2.63037  0.094  -0.172729  -0.256195  0.107717  2.642031  0.101
S  S67  1  0.25149758  0.42627881  0.51345984  1  -0.279536  0.122949  2.272396  0.116  -0.269325  0.099986  2.637109  0.097  -0.2935  0.090277  2.630708  0.092  -0.172293  -0.255526  0.103059  2.642581  0.096
N  N68  1  0.24822407  0.01008761  0.62256441  1  -0.430339  0.008072  2.651712  0.008  -0.407182  0.007474  2.906623  0.007  -0.418466  0.006481  2.913532  0.006  -0.31513  -0.400157  0.008219  2.902647  0.008
N  N69  1  0.75154654  0.48992091  0.12265120  1  -0.430404  0.004621  2.651383  0.007  -0.40694  0.004859  2.906375  0.007  -0.418275  0.004003  2.913361  0.006  -0.315037  -0.400008  0.005807  2.902394  0.007
N  N70  1  0.75177237  0.98990570  0.37743906  1  -0.430363  0.008111  2.651726  0.008  -0.407227  0.007469  2.906636  0.007  -0.418511  0.006486  2.913541  0.006  -0.315142  -0.400212  0.008217  2.902655  0.008
N  N71  1  0.24844226  0.51008287  0.87735156  1  -0.430423  0.004673  2.651234  0.007  -0.406949  0.004861  2.906206  0.007  -0.418283  0.004013  2.91319  0.006  -0.315028  -0.400021  0.005812  2.902241  0.007
N  N72  1  0.53892535  0.84004832  0.79706318  1  -0.420904  0.005806  2.635052  0.007  -0.38763  0.005936  2.870963  0.007  -0.395495  0.005089  2.88018  0.006  -0.309116  -0.381549  0.006906  2.865228  0.008
N  N73  1  0.46084299  0.65982867  0.29723827  1  -0.420423  0.006025  2.635809  0.007  -0.387461  0.006448  2.871872  0.007  -0.39531  0.005615  2.881014  0.007  -0.308953  -0.381405  0.006834  2.866096  0.007
N  N74  1  0.46108139  0.15994853  0.20293814  1  -0.420839  0.005797  2.635392  0.007  -0.387573  0.005932  2.871328  0.007  -0.395437  0.005078  2.880544  0.006  -0.309086  -0.381496  0.006899  2.865591  0.008
N  N75  1  0.53915859  0.34016467  0.70276591  1  -0.420593  0.006076  2.635083  0.007  -0.38768  0.006454  2.871219  0.007  -0.395519  0.005622  2.880335  0.007  -0.309049  -0.381613  0.006842  2.865455  0.007
N  N76  1  0.29218365  0.82703325  0.44206230  1  -0.592661  -0.093019  3.179726  -0.108  -0.57103  -0.066712  3.458283  -0.081  -0.600233  -0.057477  3.45963  -0.071  -0.645661  -0.553342  -0.070438  3.459878  -0.084
N  N77  1  0.70808785  0.67313117  0.94216079  1  -0.591392  0.096421  3.178741  0.111  -0.571043  0.068896  3.457167  0.081  -0.600219  0.056837  3.458434  0.071  -0.645712  -0.553484  0.075277  3.458883  0.085
N  N78  1  0.70781711  0.17296474  0.55793404  1  -0.592809  -0.09302  3.179625  -0.108  -0.571136  -0.066716  3.458036  -0.081  -0.600348  -0.057478  3.459371  -0.071  -0.645688  -0.553419  -0.070438  3.459668  -0.084
N  N79  1  0.29191249  0.32686916  0.05783911  1  -0.591442  0.096416  3.178738  0.111  -0.571071  0.068896  3.457202  0.081  -0.600246  0.056836  3.458463  0.071  -0.645715  -0.553515  0.075277  3.458925  0.085
N  N80  1  0.40544557  0.14342673  0.41871789  1  -0.58163  -0.091614  3.137188  -0.107  -0.555395  -0.065608  3.399645  -0.08  -0.585144  -0.056412  3.402904  -0.07  -0.637186  -0.537003  -0.069304  3.398813  -0.083
N  N81  1  0.59450449  0.35673525  0.91852569  1  -0.581519  0.098806  3.136108  0.113  -0.555446  0.072377  3.39965  0.085  -0.585045  0.06011  3.402946  0.075  -0.637082  -0.537388  0.078927  3.398819  0.089
N  N82  1  0.59455434  0.85657243  0.58128130  1  -0.581609  -0.091625  3.137165  -0.107  -0.555409  -0.065609  3.399691  -0.08  -0.585157  -0.056414  3.402949  -0.07  -0.637216  -0.537014  -0.069306  3.398855  -0.083
N  N83  1  0.40549456  0.64326507  0.08147493  1  -0.581428  0.098794  3.135871  0.113  -0.555404  0.072377  3.399329  0.085  -0.584992  0.06011  3.402634  0.075  -0.63709  -0.537342  0.078932  3.398486  0.089
