# generated using pymatgen
data_PrH11C14Br2N2O9
_symmetry_space_group_name_H-M   'P 1'
_cell_length_a   8.53002001
_cell_length_b   10.14793962
_cell_length_c   11.89687163
_cell_angle_alpha   109.13566730
_cell_angle_beta   104.50500872
_cell_angle_gamma   99.91678074
_symmetry_Int_Tables_number   1
_chemical_formula_structural   PrH11C14Br2N2O9
_chemical_formula_sum   'Pr2 H22 C28 Br4 N4 O18'
_cell_volume   904.76006578
_cell_formula_units_Z   2
loop_
 _symmetry_equiv_pos_site_id
 _symmetry_equiv_pos_as_xyz
  1  'x, y, z'
loop_
 _atom_site_type_symbol
 _atom_site_label
 _atom_site_symmetry_multiplicity
 _atom_site_fract_x
 _atom_site_fract_y
 _atom_site_fract_z
 _atom_site_occupancy
 _atom_site_hle17_bader_spin_density
 _atom_site_hle17_ddec_charge
 _atom_site_hle17_ddec_spin_density
 _atom_site_hle17_ddec_sum_bond_order
 _atom_site_hle17_magmom
 _atom_site_hse06_10hf_bader_spin_density
 _atom_site_hse06_10hf_ddec_charge
 _atom_site_hse06_10hf_ddec_spin_density
 _atom_site_hse06_10hf_ddec_sum_bond_order
 _atom_site_hse06_10hf_magmom
 _atom_site_hse06_bader_spin_density
 _atom_site_hse06_ddec_charge
 _atom_site_hse06_ddec_spin_density
 _atom_site_hse06_ddec_sum_bond_order
 _atom_site_hse06_magmom
 _atom_site_pbe_bader_spin_density
 _atom_site_pbe_cm5_charge
 _atom_site_pbe_ddec_charge
 _atom_site_pbe_ddec_spin_density
 _atom_site_pbe_ddec_sum_bond_order
 _atom_site_pbe_magmom
Pr  Pr0  1  0.51429611  0.20836638  0.01112560  1  0  2.313406  0  1.630317  0  0  2.152733  0  2.090516  0  0  2.239022  0  1.960775  0  0  1.478165  2.120693  0  2.125697  0
Pr  Pr1  1  0.48570263  0.79163206  0.98887326  1  0  2.313402  0  1.630316  0  0  2.15271  0  2.090544  0  0  2.239015  0  1.960777  0  0  1.478184  2.120693  0  2.125704  0
H  H2  1  0.58942766  0.49654729  0.25290459  1  0  0.426644  0  0.881551  0  0  0.395562  0  0.946093  0  0  0.406924  0  0.929595  0  0  0.293956  0.387669  0  0.957619  0
H  H3  1  0.41057265  0.50345226  0.74709654  1  0  0.426563  0  0.881665  0  0  0.395536  0  0.946127  0  0  0.406901  0  0.929625  0  0  0.293952  0.387646  0  0.957647  0
H  H4  1  0.60299518  0.54575681  0.14142621  1  0  0.438657  0  0.860974  0  0  0.409081  0  0.923375  0  0  0.419292  0  0.908544  0  0  0.303006  0.401884  0  0.933947  0
H  H5  1  0.39700303  0.45424380  0.85857484  1  0  0.438643  0  0.860993  0  0  0.409067  0  0.923393  0  0  0.419278  0  0.908562  0  0  0.302998  0.401868  0  0.933969  0
H  H6  1  0.46099671  0.34755981  0.40091766  1  0  0.137546  0  0.950935  0  0  0.135206  0  1.029616  0  0  0.141484  0  1.022034  0  0  0.128931  0.130539  0  1.035269  0
H  H7  1  0.53900495  0.65244408  0.59908492  1  0  0.137577  0  0.950896  0  0  0.135255  0  1.029537  0  0  0.141534  0  1.021956  0  0  0.128952  0.130589  0  1.035196  0
H  H8  1  0.28652680  0.23286828  0.66335517  1  0  0.141629  0  0.963504  0  0  0.146722  0  1.029854  0  0  0.151876  0  1.02414  0  0  0.130655  0.14305  0  1.033812  0
H  H9  1  0.71347836  0.76713131  0.33664683  1  0  0.141617  0  0.96349  0  0  0.146724  0  1.029813  0  0  0.151879  0  1.024101  0  0  0.130657  0.143041  0  1.033804  0
H  H10  1  0.29749146  0.89082148  0.33189119  1  0  0.121992  0  0.953286  0  0  0.127153  0  1.023307  0  0  0.13056  0  1.021051  0  0  0.107653  0.124728  0  1.024769  0
H  H11  1  0.70250982  0.10918131  0.66810680  1  0  0.121951  0  0.953303  0  0  0.127095  0  1.023378  0  0  0.130496  0  1.021125  0  0  0.107639  0.124668  0  1.02483  0
H  H12  1  0.93016681  0.29917504  0.00165305  1  0  0.140061  0  0.95911  0  0  0.14491  0  1.024757  0  0  0.149325  0  1.020744  0  0  0.139517  0.141586  0  1.027986  0
H  H13  1  0.06982951  0.70082338  0.99834707  1  0  0.140038  0  0.959166  0  0  0.144899  0  1.024815  0  0  0.149313  0  1.020802  0  0  0.139521  0.141596  0  1.028015  0
H  H14  1  0.65275856  0.46004987  0.76452720  1  0  0.138596  0  0.945494  0  0  0.143215  0  1.011035  0  0  0.148219  0  1.006081  0  0  0.13638  0.139689  0  1.014275  0
H  H15  1  0.34724052  0.53994966  0.23547287  1  0  0.138618  0  0.945477  0  0  0.143232  0  1.011014  0  0  0.148234  0  1.006062  0  0  0.136393  0.139707  0  1.014256  0
H  H16  1  0.12165930  0.38209344  0.71823066  1  0  0.123168  0  0.949449  0  0  0.130827  0  1.016145  0  0  0.135431  0  1.010703  0  0  0.11434  0.127531  0  1.019845  0
H  H17  1  0.87833857  0.61790608  0.28177003  1  0  0.123218  0  0.949348  0  0  0.130836  0  1.016099  0  0  0.135456  0  1.010635  0  0  0.114336  0.127523  0  1.01982  0
H  H18  1  0.96070807  0.83486485  0.71860860  1  0  0.121063  0  0.969335  0  0  0.135267  0  1.040804  0  0  0.137112  0  1.041123  0  0  0.084949  0.13388  0  1.04068  0
H  H19  1  0.03929154  0.16513251  0.28138928  1  0  0.121124  0  0.969356  0  0  0.13533  0  1.040819  0  0  0.137175  0  1.041136  0  0  0.084972  0.133945  0  1.040693  0
H  H20  1  0.02318773  0.01161021  0.84234169  1  0  0.139173  0  0.956833  0  0  0.156513  0  1.016959  0  0  0.158497  0  1.016921  0  0  0.095245  0.154947  0  1.017117  0
H  H21  1  0.97681065  0.98838714  0.15765513  1  0  0.139235  0  0.956768  0  0  0.156555  0  1.016906  0  0  0.158537  0  1.016871  0  0  0.095256  0.154989  0  1.017073  0
H  H22  1  0.91859773  0.85353547  0.86008898  1  0  0.16244  0  0.925728  0  0  0.18466  0  0.976499  0  0  0.187635  0  0.975079  0  0  0.108459  0.182545  0  0.977381  0
H  H23  1  0.08140065  0.14646188  0.13990784  1  0  0.16249  0  0.92574  0  0  0.184733  0  0.976468  0  0  0.18771  0  0.975043  0  0  0.108484  0.182619  0  0.977346  0
C  C24  1  0.42660173  0.07297919  0.23054074  1  0  0.705093  0  3.890539  0  0  0.65756  0  4.1847  0  0  0.691765  0  4.178233  0  0  0.232728  0.634518  0  4.190292  0
C  C25  1  0.57339834  0.92702359  0.76945872  1  0  0.704894  0  3.890506  0  0  0.657315  0  4.184756  0  0  0.691527  0  4.178277  0  0  0.232581  0.634275  0  4.190342  0
C  C26  1  0.38472670  0.11242565  0.35197708  1  0  -0.060362  0  3.735877  0  0  -0.031868  0  3.969906  0  0  -0.040554  0  3.98896  0  0  -0.002878  -0.026625  0  3.956715  0
C  C27  1  0.61527460  0.88757714  0.64802344  1  0  -0.060294  0  3.735888  0  0  -0.031792  0  3.969927  0  0  -0.040481  0  3.988979  0  0  -0.002856  -0.026546  0  3.956726  0
C  C28  1  0.41066350  0.25796828  0.42452070  1  0  -0.011488  0  3.554917  0  0  -0.071259  0  3.828641  0  0  -0.061469  0  3.836456  0  0  0.038694  -0.07725  0  3.823501  0
C  C29  1  0.58933781  0.74203452  0.57548067  1  0  -0.011474  0  3.554877  0  0  -0.071259  0  3.828646  0  0  -0.061469  0  3.836457  0  0  0.038713  -0.077259  0  3.823515  0
C  C30  1  0.30930396  0.19400961  0.57356794  1  0  -0.063081  0  3.568948  0  0  -0.114837  0  3.830812  0  0  -0.107465  0  3.840783  0  0  0.02361  -0.119243  0  3.823903  0
C  C31  1  0.69070187  0.80599215  0.42643393  1  0  -0.063035  0  3.568759  0  0  -0.114803  0  3.830668  0  0  -0.107421  0  3.840604  0  0  0.023627  -0.119208  0  3.823771  0
C  C32  1  0.28019201  0.04834164  0.50093943  1  0  0.064501  0  3.773052  0  0  0.084605  0  4.048027  0  0  0.083836  0  4.068702  0  0  -0.010936  0.084479  0  4.034017  0
C  C33  1  0.71981225  0.95165901  0.49906018  1  0  0.064533  0  3.772996  0  0  0.084628  0  4.047965  0  0  0.08386  0  4.068645  0  0  -0.010915  0.084493  0  4.033958  0
C  C34  1  0.31810159  0.00445407  0.38943246  1  0  -0.097316  0  3.704829  0  0  -0.139826  0  3.960729  0  0  -0.135414  0  3.977077  0  0  -0.083771  -0.141795  0  3.949028  0
C  C35  1  0.68190091  0.99554873  0.61056660  1  0  -0.097316  0  3.704796  0  0  -0.13981  0  3.960677  0  0  -0.135394  0  3.977022  0  0  -0.083794  -0.141767  0  3.94895  0
C  C36  1  0.19751566  0.28633583  0.91397406  1  0  0.643141  0  3.940211  0  0  0.592707  0  4.236731  0  0  0.625648  0  4.23345  0  0  0.203705  0.570194  0  4.240969  0
C  C37  1  0.80248186  0.71366260  0.08602543  1  0  0.643117  0  3.940277  0  0  0.592672  0  4.23678  0  0  0.625613  0  4.233501  0  0  0.203707  0.570162  0  4.241023  0
C  C38  1  0.04412447  0.33093169  0.86289869  1  0  -0.058544  0  3.737335  0  0  -0.030753  0  3.975392  0  0  -0.039986  0  3.995088  0  0  -0.003125  -0.02515  0  3.961858  0
C  C39  1  0.95587218  0.66906782  0.13710178  1  0  -0.058529  0  3.737309  0  0  -0.03067  0  3.975284  0  0  -0.039903  0  3.994985  0  0  -0.00305  -0.025071  0  3.961759  0
C  C40  1  0.92223029  0.33029231  0.92159838  1  0  -0.015053  0  3.540626  0  0  -0.070576  0  3.803444  0  0  -0.061764  0  3.81387  0  0  0.046852  -0.07586  0  3.79663  0
C  C41  1  0.07776879  0.66970722  0.07840169  1  0  -0.015046  0  3.540666  0  0  -0.070638  0  3.803533  0  0  -0.061824  0  3.813957  0  0  0.046835  -0.075927  0  3.796705  0
C  C42  1  0.76378088  0.42214420  0.78620708  1  0  -0.033304  0  3.534626  0  0  -0.082433  0  3.792711  0  0  -0.074585  0  3.802051  0  0  0.038279  -0.086755  0  3.785907  0
C  C43  1  0.23621854  0.57785642  0.21379335  1  0  -0.033314  0  3.534611  0  0  -0.08242  0  3.79267  0  0  -0.074574  0  3.802014  0  0  0.038294  -0.086737  0  3.785867  0
C  C44  1  0.88337292  0.42263418  0.72592068  1  0  0.064366  0  3.759577  0  0  0.083583  0  4.036786  0  0  0.082669  0  4.056199  0  0  -0.008395  0.083426  0  4.023613  0
C  C45  1  0.11662528  0.57736642  0.27407953  1  0  0.0643  0  3.759648  0  0  0.083507  0  4.036849  0  0  0.082592  0  4.056265  0  0  -0.008419  0.083351  0  4.023672  0
C  C46  1  0.02564825  0.37702658  0.76292239  1  0  -0.076558  0  3.689424  0  0  -0.124361  0  3.951085  0  0  -0.117762  0  3.964033  0  0  -0.072417  -0.128066  0  3.94175  0
C  C47  1  0.97435083  0.62297295  0.23707767  1  0  -0.076556  0  3.689419  0  0  -0.124341  0  3.951051  0  0  -0.117754  0  3.963989  0  0  -0.072417  -0.128026  0  3.941731  0
C  C48  1  0.17531062  0.86880724  0.87286215  1  0  0.795941  0  3.802545  0  0  0.762167  0  4.085843  0  0  0.796327  0  4.078652  0  0  0.217908  0.738699  0  4.092994  0
C  C49  1  0.82468813  0.13119121  0.12713755  1  0  0.795899  0  3.802669  0  0  0.762208  0  4.085843  0  0  0.796366  0  4.078654  0  0  0.217899  0.738742  0  4.092994  0
C  C50  1  0.00996385  0.89629207  0.82109107  1  0  -0.45473  0  3.626872  0  0  -0.527442  0  3.850975  0  0  -0.534623  0  3.852958  0  0  -0.246729  -0.522052  0  3.849169  0
C  C51  1  0.99003454  0.10370528  0.17890659  1  0  -0.454891  0  3.626978  0  0  -0.527636  0  3.851066  0  0  -0.534815  0  3.853049  0  0  -0.246762  -0.522246  0  3.849264  0
Br  Br52  1  0.18602235  0.91034430  0.55833570  1  0  -0.007847  0  1.325896  0  0  -0.002077  0  1.584472  0  0  -0.007018  0  1.58097  0  0  0.089837  0.00138  0  1.586997  0
Br  Br53  1  0.81398035  0.08965525  0.44166249  1  0  -0.007841  0  1.325905  0  0  -0.002065  0  1.584478  0  0  -0.007006  0  1.580973  0  0  0.08985  0.001396  0  1.587008  0
Br  Br54  1  0.84409186  0.48419108  0.59032895  1  0  -0.006081  0  1.378857  0  0  -0.005457  0  1.649316  0  0  -0.008483  0  1.64152  0  0  0.079724  -0.003037  0  1.654684  0
Br  Br55  1  0.15590791  0.51581063  0.40967268  1  0  -0.006061  0  1.378859  0  0  -0.005437  0  1.649317  0  0  -0.008464  0  1.641522  0  0  0.079727  -0.003015  0  1.654685  0
N  N56  1  0.37273765  0.29709298  0.53356695  1  0  0.285221  0  3.733464  0  0  0.33911  0  3.999115  0  0  0.338693  0  4.021872  0  0  -0.109982  0.338657  0  3.983727  0
N  N57  1  0.62726542  0.70290768  0.46643498  1  0  0.285161  0  3.733315  0  0  0.339042  0  3.998982  0  0  0.338624  0  4.021746  0  0  -0.110032  0.338591  0  3.983595  0
N  N58  1  0.78473770  0.37568751  0.88309540  1  0  0.308199  0  3.728273  0  0  0.363163  0  3.992596  0  0  0.363329  0  4.014792  0  0  -0.103612  0.362334  0  3.978455  0
N  N59  1  0.21526017  0.62431201  0.11690529  1  0  0.308211  0  3.728262  0  0  0.363172  0  3.992595  0  0  0.363338  0  4.014791  0  0  -0.103649  0.36234  0  3.97846  0
O  O60  1  0.47160165  0.17737969  0.19896591  1  0  -0.6933  0  1.996773  0  0  -0.640479  0  2.239474  0  0  -0.669866  0  2.227624  0  0  -0.377391  -0.623739  0  2.246022  0
O  O61  1  0.52839930  0.82262201  0.80103341  1  0  -0.693259  0  1.996752  0  0  -0.640408  0  2.239471  0  0  -0.669801  0  2.227619  0  0  -0.377368  -0.623675  0  2.24602  0
O  O62  1  0.41136323  0.93949312  0.17186765  1  0  -0.725257  0  2.013951  0  0  -0.680149  0  2.268623  0  0  -0.709919  0  2.258427  0  0  -0.379488  -0.663359  0  2.274464  0
O  O63  1  0.58863530  0.06050856  0.82813124  1  0  -0.725148  0  2.01393  0  0  -0.680026  0  2.268627  0  0  -0.709793  0  2.258425  0  0  -0.379385  -0.663233  0  2.274459  0
O  O64  1  0.39567091  0.43514625  0.59879642  1  0  -0.520164  0  1.780227  0  0  -0.473188  0  1.997003  0  0  -0.497691  0  1.996715  0  0  -0.221649  -0.45592  0  1.996742  0
O  O65  1  0.60433128  0.56485548  0.40120565  1  0  -0.520208  0  1.780256  0  0  -0.47321  0  1.997041  0  0  -0.497702  0  1.996737  0  0  -0.221658  -0.455942  0  1.996781  0
O  O66  1  0.67340807  0.38108058  0.94140653  1  0  -0.598772  0  1.82605  0  0  -0.557722  0  2.073419  0  0  -0.587002  0  2.073293  0  0  -0.28663  -0.540641  0  2.072416  0
O  O67  1  0.32658945  0.61891785  0.05859212  1  0  -0.598781  0  1.826095  0  0  -0.557704  0  2.073413  0  0  -0.586986  0  2.073288  0  0  -0.286619  -0.540625  0  2.072416  0
O  O68  1  0.21323071  0.25421211  0.00916042  1  0  -0.641627  0  1.95303  0  0  -0.596947  0  2.186274  0  0  -0.624152  0  2.179067  0  0  -0.332619  -0.580438  0  2.190399  0
O  O69  1  0.78676768  0.74578525  0.99083808  1  0  -0.641605  0  1.953022  0  0  -0.596921  0  2.186263  0  0  -0.624127  0  2.179056  0  0  -0.332616  -0.580411  0  2.190396  0
O  O70  1  0.30846474  0.28238596  0.85743336  1  0  -0.723946  0  2.019095  0  0  -0.666318  0  2.257868  0  0  -0.694528  0  2.24625  0  0  -0.367791  -0.649679  0  2.265379  0
O  O71  1  0.69153312  0.71761355  0.14256565  1  0  -0.723949  0  2.019144  0  0  -0.666328  0  2.257922  0  0  -0.694543  0  2.246307  0  0  -0.367798  -0.649688  0  2.265441  0
O  O72  1  0.57303137  0.45868953  0.16051008  1  0  -0.925331  0  1.874521  0  0  -0.877754  0  2.077552  0  0  -0.901344  0  2.040787  0  0  -0.662638  -0.86512  0  2.100874  0
O  O73  1  0.42696893  0.54131001  0.83949104  1  0  -0.925226  0  1.874627  0  0  -0.877717  0  2.077625  0  0  -0.901306  0  2.040857  0  0  -0.66263  -0.865087  0  2.100947  0
O  O74  1  0.31335176  0.97199733  0.92250337  1  0  -0.852017  0  2.12577  0  0  -0.791391  0  2.382295  0  0  -0.826091  0  2.368373  0  0  -0.44533  -0.774036  0  2.390409  0
O  O75  1  0.68664698  0.02800112  0.07749549  1  0  -0.851977  0  2.125801  0  0  -0.791369  0  2.382261  0  0  -0.82607  0  2.36834  0  0  -0.445332  -0.77402  0  2.390386  0
O  O76  1  0.17762264  0.74225861  0.86779806  1  0  -0.706053  0  1.955176  0  0  -0.659906  0  2.191121  0  0  -0.687945  0  2.180337  0  0  -0.377238  -0.643687  0  2.197716  0
O  O77  1  0.82237610  0.25773984  0.13220164  1  0  -0.706086  0  1.955248  0  0  -0.659963  0  2.191148  0  0  -0.687998  0  2.180364  0  0  -0.377251  -0.64373  0  2.197729  0
