# generated using pymatgen
data_CuH10C7NO4
_symmetry_space_group_name_H-M   'P 1'
_cell_length_a   7.96402836
_cell_length_b   8.48647854
_cell_length_c   12.99981171
_cell_angle_alpha   97.41152896
_cell_angle_beta   98.62604151
_cell_angle_gamma   90.52486840
_symmetry_Int_Tables_number   1
_chemical_formula_structural   CuH10C7NO4
_chemical_formula_sum   'Cu4 H40 C28 N4 O16'
_cell_volume   861.05210841
_cell_formula_units_Z   4
loop_
 _symmetry_equiv_pos_site_id
 _symmetry_equiv_pos_as_xyz
  1  'x, y, z'
loop_
 _atom_site_type_symbol
 _atom_site_label
 _atom_site_symmetry_multiplicity
 _atom_site_fract_x
 _atom_site_fract_y
 _atom_site_fract_z
 _atom_site_occupancy
 _atom_site_pbe_cm5_charge
 _atom_site_pbe_ddec_charge
 _atom_site_pbe_ddec_spin_density
 _atom_site_pbe_ddec_sum_bond_order
 _atom_site_pbe_magmom
Cu  Cu0  1  0.09436401  0.54541429  0.08960875  1  0.652593  0.79552  0.000206  2.293563  0.0
Cu  Cu1  1  0.90563179  0.45458554  0.91039236  1  0.652614  0.795399  -0.000212  2.293756  0.0
Cu  Cu2  1  0.47896980  0.93361919  0.37187806  1  0.730085  0.777684  0.739062  2.263726  0.551
Cu  Cu3  1  0.52102994  0.06638537  0.62812767  1  0.73011  0.777706  -0.73906  2.263728  -0.551
H  H4  1  0.46274969  0.20194370  0.95887514  1  0.096782  0.147535  3.4e-05  1.004743  0.0
H  H5  1  0.53724687  0.79807754  0.04112402  1  0.09682  0.147613  -3.4e-05  1.00484  0.0
H  H6  1  0.35449390  0.17593317  0.82534426  1  0.094687  0.138723  0.000443  1.033371  0.0
H  H7  1  0.64550982  0.82407497  0.17465523  1  0.094708  0.138762  -0.000443  1.033413  0.0
H  H8  1  0.49000316  0.34571361  0.87660480  1  0.109444  0.180103  8e-06  0.995996  0.0
H  H9  1  0.50999315  0.65430167  0.12339999  1  0.109444  0.180105  -8e-06  0.995937  0.0
H  H10  1  0.04811764  0.00292568  0.91673195  1  0.103644  0.166108  -0.00024  0.993529  0.0
H  H11  1  0.95188933  0.99706464  0.08326095  1  0.10369  0.166145  0.00024  0.993417  0.0
H  H12  1  0.26352866  0.94765234  0.92522892  1  0.093685  0.141357  -2.6e-05  1.022491  0.0
H  H13  1  0.73647293  0.05232967  0.07476429  1  0.093668  0.141368  2.6e-05  1.022572  0.0
H  H14  1  0.11714510  0.89147608  0.80628219  1  0.102572  0.165558  -0.00011  0.99703  0.0
H  H15  1  0.88286067  0.10851545  0.19370608  1  0.102585  0.165592  0.00011  0.997077  0.0
H  H16  1  0.37205992  0.41099456  0.40174158  1  0.101134  0.167718  -0.000193  0.983636  0.0
H  H17  1  0.62794453  0.58899811  0.59825897  1  0.101152  0.167721  0.000193  0.983595  0.0
H  H18  1  0.17931916  0.39114372  0.30847585  1  0.094234  0.156482  0.001191  1.026799  0.001
H  H19  1  0.82068810  0.60885610  0.69152173  1  0.094236  0.156462  -0.001191  1.026833  -0.001
H  H20  1  0.18997228  0.50703749  0.43485147  1  0.092381  0.139453  -0.000146  1.024782  0.0
H  H21  1  0.81003363  0.49295995  0.56514578  1  0.092388  0.139451  0.000146  1.024696  0.0
H  H22  1  0.78475659  0.15820430  0.44868472  1  0.121184  0.095264  0.001266  1.025895  0.002
H  H23  1  0.21525337  0.84180026  0.55131429  1  0.121191  0.09526  -0.001266  1.02586  -0.002
H  H24  1  0.89806998  0.40034631  0.38928465  1  0.110203  0.110792  0.000559  1.020305  0.001
H  H25  1  0.10193360  0.59965709  0.61071212  1  0.110205  0.110751  -0.000559  1.020369  -0.001
H  H26  1  0.73803544  0.50350689  0.23205181  1  0.108866  0.108418  -3e-06  1.024861  0.0
H  H27  1  0.26196544  0.49649176  0.76794353  1  0.108874  0.108475  3e-06  1.024774  0.0
H  H28  1  0.46947620  0.35755401  0.13899042  1  0.107718  0.129644  0.000691  1.048393  0.001
H  H29  1  0.53052833  0.64243987  0.86100639  1  0.107683  0.129619  -0.000691  1.04835  -0.001
H  H30  1  0.23699595  0.15976050  0.16483762  1  0.112278  0.107055  0.003416  0.991656  0.004
H  H31  1  0.76300482  0.84023693  0.83516836  1  0.11226  0.107038  -0.003416  0.991706  -0.004
H  H32  1  0.36734274  0.00698472  0.11850535  1  0.110417  0.09406  -0.000156  0.988342  0.0
H  H33  1  0.63265425  0.99301273  0.88149644  1  0.110382  0.09404  0.000156  0.988351  0.0
H  H34  1  0.20029581  0.02550137  0.30648402  1  0.286388  0.288654  0.000713  0.997823  0.0
H  H35  1  0.79970497  0.97449607  0.69351889  1  0.286399  0.288711  -0.000712  0.997768  0.0
H  H36  1  0.24206724  0.86368142  0.22172558  1  0.294149  0.296615  0.000613  0.979884  -0.001
H  H37  1  0.75794246  0.13631717  0.77828136  1  0.294165  0.296631  -0.000613  0.979815  0.001
H  H38  1  0.25065302  0.29123611  0.64106057  1  0.0928  0.137639  0.000344  1.049893  0.0
H  H39  1  0.74932880  0.70876610  0.35895249  1  0.092794  0.137698  -0.000344  1.049995  0.0
H  H40  1  0.11094275  0.12786521  0.64431166  1  0.101639  0.164182  7e-05  0.999771  0.0
H  H41  1  0.88903900  0.87213346  0.35569263  1  0.101695  0.164251  -7e-05  0.999753  0.0
H  H42  1  0.03294959  0.29025417  0.57949398  1  0.094694  0.153003  -3.5e-05  1.002162  0.0
H  H43  1  0.96703579  0.70973972  0.42051332  1  0.094714  0.153055  3.5e-05  1.002171  0.0
C  C44  1  0.24814026  0.35057822  0.93161359  1  0.21375  0.668186  2.4e-05  4.119658  0.0
C  C45  1  0.75184825  0.64942998  0.06838062  1  0.213824  0.668337  -2.5e-05  4.119748  0.0
C  C46  1  0.39675528  0.26155367  0.89506771  1  -0.23943  -0.512426  0.000275  3.850381  0.0
C  C47  1  0.60323968  0.73845807  0.10493126  1  -0.239531  -0.512588  -0.000274  3.850659  0.0
C  C48  1  0.08776564  0.75684760  0.93301252  1  0.212225  0.661247  2.5e-05  4.139844  0.0
C  C49  1  0.91221986  0.24314517  0.06697394  1  0.212255  0.661423  -2.6e-05  4.139246  0.0
C  C50  1  0.13305884  0.90866086  0.89210208  1  -0.241062  -0.509196  -0.000283  3.851163  0.0
C  C51  1  0.86694312  0.09133067  0.10788736  1  -0.241119  -0.509293  0.000284  3.851091  0.0
C  C52  1  0.31281986  0.61914313  0.32652521  1  0.209588  0.689074  0.000995  4.123188  -0.001
C  C53  1  0.68719112  0.38085430  0.67347329  1  0.209506  0.688979  -0.000995  4.123223  0.001
C  C54  1  0.25924223  0.47185137  0.36894084  1  -0.2499  -0.527833  0.006809  3.878253  0.007
C  C55  1  0.74076739  0.52814367  0.63105886  1  -0.249926  -0.527813  -0.006808  3.878174  -0.007
C  C56  1  0.72105176  0.20575918  0.38011300  1  0.054005  0.110678  -0.000502  3.945301  -0.002
C  C57  1  0.27895309  0.79424421  0.61988466  1  0.053933  0.110614  0.000503  3.945206  0.002
C  C58  1  0.78109144  0.34191269  0.34731146  1  -0.081108  -0.125462  0.004125  3.966153  0.005
C  C59  1  0.21891341  0.65809071  0.65268543  1  -0.081051  -0.125345  -0.004125  3.96612  -0.005
C  C60  1  0.69178711  0.39778592  0.25941433  1  -0.0649  -0.010572  -0.002461  3.939505  -0.002
C  C61  1  0.30821628  0.60221153  0.74058114  1  -0.064947  -0.010714  0.002461  3.939402  0.002
C  C62  1  0.54547487  0.31541285  0.20649742  1  -0.085873  -0.177536  0.002475  3.91765  0.002
C  C63  1  0.45452973  0.68458341  0.79350037  1  -0.085847  -0.177414  -0.002475  3.917449  -0.002
C  C64  1  0.49366201  0.17785035  0.24251633  1  0.119322  0.227227  0.002371  3.944234  0.002
C  C65  1  0.50634392  0.82214827  0.75748409  1  0.119251  0.227004  -0.002371  3.944422  -0.002
C  C66  1  0.33866929  0.07964790  0.18986863  1  -0.063498  -0.057295  0.003043  3.911301  0.0
C  C67  1  0.66133409  0.92035072  0.81013386  1  -0.063449  -0.057219  -0.003043  3.911318  0.0
C  C68  1  0.19517643  0.13376953  0.49627293  1  0.214279  0.692295  3.9e-05  4.10438  0.002
C  C69  1  0.80482447  0.86623264  0.50373732  1  0.214348  0.692438  -3.9e-05  4.104125  -0.002
C  C70  1  0.14404856  0.21743734  0.59613351  1  -0.250734  -0.543802  0.000115  3.901948  0.0
C  C71  1  0.85594338  0.78256248  0.40387416  1  -0.250857  -0.544049  -0.000115  3.902208  0.0
N  N72  1  0.58117520  0.12487140  0.32804540  1  -0.35316  -0.293472  0.057994  3.606656  0.072
N  N73  1  0.41882957  0.87513078  0.67195676  1  -0.353045  -0.293251  -0.057995  3.606481  -0.072
N  N74  1  0.28621762  0.97299633  0.26014770  1  -0.642554  -0.561182  0.085878  3.438285  0.102
N  N75  1  0.71378586  0.02700585  0.73985741  1  -0.642556  -0.561268  -0.085881  3.438181  -0.102
O  O76  1  0.27539319  0.42715546  0.02384202  1  -0.308962  -0.528585  -0.000417  2.365259  -0.001
O  O77  1  0.72459896  0.57284914  0.97615992  1  -0.309047  -0.528677  0.000417  2.365423  0.001
O  O78  1  0.89013631  0.65686644  0.13258715  1  -0.311021  -0.52296  -0.000414  2.305716  -0.001
O  O79  1  0.10985716  0.34313935  0.86741348  1  -0.311084  -0.522912  0.000413  2.305797  0.001
O  O80  1  0.15253394  0.74126681  0.02671976  1  -0.309896  -0.527124  0.000961  2.315995  0.001
O  O81  1  0.84745825  0.25873663  0.97327055  1  -0.309929  -0.527169  -0.00096  2.316093  -0.001
O  O82  1  0.01406706  0.34093219  0.12969517  1  -0.307182  -0.53533  0.00088  2.36232  0.001
O  O83  1  0.98592457  0.65905579  0.87029761  1  -0.307234  -0.535223  -0.00088  2.362845  -0.001
O  O84  1  0.26859130  0.63745002  0.23137395  1  -0.329605  -0.583221  0.000881  2.30394  0.002
O  O85  1  0.73141845  0.36254860  0.76862530  1  -0.329538  -0.583154  -0.000882  2.30397  -0.002
O  O86  1  0.40495802  0.72079968  0.39443692  1  -0.339637  -0.559686  0.058864  2.323738  0.08
O  O87  1  0.59505032  0.27919536  0.60556343  1  -0.339657  -0.559654  -0.058865  2.323735  -0.08
O  O88  1  0.34263149  0.06839150  0.50418667  1  -0.342943  -0.590498  -0.057783  2.456348  -0.078
O  O89  1  0.65736577  0.93161544  0.49582288  1  -0.34284  -0.590375  0.057788  2.455992  0.078
O  O90  1  0.09747261  0.12517022  0.41041742  1  -0.313236  -0.544256  -0.010658  2.112649  -0.014
O  O91  1  0.90252582  0.87483433  0.58959434  1  -0.31328  -0.544367  0.010657  2.112688  0.014
