# generated using pymatgen
data_ZnH20C22(N3O4)2
_symmetry_space_group_name_H-M   'P 1'
_cell_length_a   9.97012297
_cell_length_b   11.30627545
_cell_length_c   13.97800000
_cell_angle_alpha   73.63489478
_cell_angle_beta   69.70086461
_cell_angle_gamma   67.97289761
_symmetry_Int_Tables_number   1
_chemical_formula_structural   ZnH20C22(N3O4)2
_chemical_formula_sum   'Zn2 H40 C44 N12 O16'
_cell_volume   1348.94151563
_cell_formula_units_Z   2
loop_
 _symmetry_equiv_pos_site_id
 _symmetry_equiv_pos_as_xyz
  1  'x, y, z'
loop_
 _atom_site_type_symbol
 _atom_site_label
 _atom_site_symmetry_multiplicity
 _atom_site_fract_x
 _atom_site_fract_y
 _atom_site_fract_z
 _atom_site_occupancy
 _atom_site_hle17_bader_spin_density
 _atom_site_hle17_ddec_charge
 _atom_site_hle17_ddec_spin_density
 _atom_site_hle17_ddec_sum_bond_order
 _atom_site_hle17_magmom
 _atom_site_hse06_10hf_bader_spin_density
 _atom_site_hse06_10hf_ddec_charge
 _atom_site_hse06_10hf_ddec_spin_density
 _atom_site_hse06_10hf_ddec_sum_bond_order
 _atom_site_hse06_10hf_magmom
 _atom_site_hse06_bader_spin_density
 _atom_site_hse06_ddec_charge
 _atom_site_hse06_ddec_spin_density
 _atom_site_hse06_ddec_sum_bond_order
 _atom_site_hse06_magmom
 _atom_site_pbe_bader_charge
 _atom_site_pbe_bader_spin_density
 _atom_site_pbe_cm5_charge
 _atom_site_pbe_ddec_charge
 _atom_site_pbe_ddec_spin_density
 _atom_site_pbe_ddec_sum_bond_order
 _atom_site_pbe_magmom
Zn  Zn0  1  0.34840090  0.79706920  0.43653604  1  0  0.982385  0  1.818308  0  0  0.793142  0  2.266645  0  0  0.844061  0  2.214176  0  1.304929  0  0.6837  0.757507  0  2.302714  0
Zn  Zn1  1  0.65159598  0.20293046  0.56346595  1  0  0.982367  0  1.818366  0  0  0.793141  0  2.266689  0  0  0.844065  0  2.214218  0  1.304961  0  0.683695  0.757504  0  2.302757  0
H  H2  1  0.43895608  0.06536320  0.78098113  1  0  0.298  0  0.931619  0  0  0.275919  0  1.004533  0  0  0.284441  0  0.997547  0  0.509898  0  0.304767  0.26995  0  1.009334  0
H  H3  1  0.56104080  0.93463646  0.21901872  1  0  0.298124  0  0.931624  0  0  0.275966  0  1.004622  0  0  0.284489  0  0.997634  0  0.509888  0  0.304765  0.269997  0  1.009424  0
H  H4  1  0.12186290  0.03162301  0.51735910  1  0  0.095796  0  0.944093  0  0  0.100193  0  1.013958  0  0  0.103197  0  1.011045  0  0.149583  0  0.120437  0.098099  0  1.015681  0
H  H5  1  0.87813649  0.96837858  0.48264040  1  0  0.095803  0  0.944117  0  0  0.10019  0  1.014005  0  0  0.103199  0  1.011076  0  0.149589  0  0.120424  0.098094  0  1.01573  0
H  H6  1  0.49856760  0.77339845  0.60776311  1  0  0.079415  0  0.954885  0  0  0.08774  0  1.017621  0  0  0.089755  0  1.016474  0  0.096363  0  0.117443  0.086163  0  1.018598  0
H  H7  1  0.50143177  0.22660023  0.39223849  1  0  0.079424  0  0.954912  0  0  0.087752  0  1.017638  0  0  0.089769  0  1.016491  0  0.096436  0  0.117446  0.086174  0  1.018616  0
H  H8  1  0.06702368  0.16618261  0.64966160  1  0  0.112707  0  0.955689  0  0  0.122149  0  1.016732  0  0  0.125583  0  1.014968  0  0.092765  0  0.114776  0.119559  0  1.0184  0
H  H9  1  0.93297537  0.83381995  0.35033634  1  0  0.112765  0  0.955628  0  0  0.12215  0  1.016729  0  0  0.125587  0  1.014965  0  0.092787  0  0.114771  0.11956  0  1.018395  0
H  H10  1  0.45494525  0.89108360  0.74493671  1  0  0.114026  0  0.956721  0  0  0.119766  0  1.023207  0  0  0.12417  0  1.020214  0  0.108704  0  0.111174  0.116692  0  1.025216  0
H  H11  1  0.54505484  0.10891605  0.25506449  1  0  0.114031  0  0.95674  0  0  0.119765  0  1.023225  0  0  0.124169  0  1.020235  0  0.108735  0  0.111183  0.116691  0  1.025234  0
H  H12  1  0.10312536  0.31113432  0.90728057  1  0  0.118042  0  0.978357  0  0  0.128182  0  1.034699  0  0  0.131951  0  1.032613  0  0.118878  0  0.106926  0.125567  0  1.036116  0
H  H13  1  0.89687875  0.68887502  0.09271814  1  0  0.118031  0  0.978367  0  0  0.128187  0  1.034682  0  0  0.131958  0  1.03259  0  0.118817  0  0.106887  0.125571  0  1.036102  0
H  H14  1  0.56094695  0.07177191  0.88980043  1  0  0.111006  0  0.943007  0  0  0.121756  0  1.001693  0  0  0.124467  0  1.001409  0  0.101009  0  0.107336  0.119849  0  1.00183  0
H  H15  1  0.43905305  0.92821903  0.11020279  1  0  0.110922  0  0.943126  0  0  0.121699  0  1.001773  0  0  0.12441  0  1.001489  0  0.101309  0  0.107342  0.119791  0  1.001911  0
H  H16  1  0.12265505  0.43799747  0.01842390  1  0  0.088144  0  0.954047  0  0  0.102247  0  1.009629  0  0  0.104563  0  1.008728  0  0.050006  0  0.102006  0.100651  0  1.010108  0
H  H17  1  0.87736327  0.56200800  0.98157218  1  0  0.088162  0  0.954047  0  0  0.102239  0  1.009633  0  0  0.104587  0  1.008696  0  0.049813  0  0.10203  0.100643  0  1.01011  0
H  H18  1  0.57945574  0.19586382  0.00235019  1  0  0.100176  0  0.927012  0  0  0.114383  0  0.978014  0  0  0.117061  0  0.977039  0  0.070196  0  0.108378  0.112569  0  0.978564  0
H  H19  1  0.42055564  0.80412517  0.99764921  1  0  0.100192  0  0.927088  0  0  0.11443  0  0.978043  0  0  0.11711  0  0.977067  0  0.070514  0  0.108403  0.112616  0  0.978593  0
H  H20  1  0.14575161  0.68483349  0.19620010  1  0  0.127991  0  0.974089  0  0  0.136325  0  1.034575  0  0  0.140533  0  1.032147  0  0.153975  0  0.110374  0.133268  0  1.036554  0
H  H21  1  0.85425018  0.31515842  0.80380173  1  0  0.127969  0  0.974045  0  0  0.136304  0  1.034535  0  0  0.140512  0  1.032107  0  0.153626  0  0.110325  0.133249  0  1.036509  0
H  H22  1  0.59580202  0.43812925  0.20789849  1  0  0.108114  0  0.934916  0  0  0.121461  0  0.987328  0  0  0.124713  0  0.986685  0  0.088469  0  0.109955  0.119095  0  0.98801  0
H  H23  1  0.40420443  0.56186459  0.79210604  1  0  0.10812  0  0.934948  0  0  0.121469  0  0.987349  0  0  0.124722  0  0.986704  0  0.088601  0  0.109932  0.119099  0  0.988029  0
H  H24  1  0.15948189  0.81111623  0.30984939  1  0  0.078502  0  0.964417  0  0  0.086067  0  1.031766  0  0  0.088342  0  1.029239  0  0.120426  0  0.115822  0.084205  0  1.033929  0
H  H25  1  0.84051461  0.18888149  0.69015100  1  0  0.0785  0  0.964394  0  0  0.086072  0  1.031749  0  0  0.08835  0  1.029217  0  0.120406  0  0.115823  0.084209  0  1.033913  0
H  H26  1  0.58877170  0.57749102  0.32023521  1  0  0.072703  0  0.956593  0  0  0.080213  0  1.025776  0  0  0.08191  0  1.023681  0  0.119206  0  0.114415  0.079001  0  1.027265  0
H  H27  1  0.41121880  0.42251154  0.67976770  1  0  0.072709  0  0.956552  0  0  0.080206  0  1.025774  0  0  0.081905  0  1.023678  0  0.119083  0  0.114399  0.078994  0  1.027263  0
H  H28  1  0.21904059  0.64988403  0.63356956  1  0  0.039057  0  0.929273  0  0  0.051066  0  0.996153  0  0  0.052561  0  0.991311  0  0.063514  0  0.122737  0.049367  0  1.000432  0
H  H29  1  0.78096091  0.35011465  0.36643008  1  0  0.038994  0  0.929404  0  0  0.051003  0  0.99628  0  0  0.052498  0  0.991438  0  0.063494  0  0.122707  0.049308  0  1.000551  0
H  H30  1  0.12565054  0.51655695  0.75602571  1  0  0.095044  0  0.944932  0  0  0.114642  0  1.011012  0  0  0.115003  0  1.011286  0  0.032197  0  0.105725  0.114378  0  1.010805  0
H  H31  1  0.87434631  0.48343980  0.24397409  1  0  0.094983  0  0.944939  0  0  0.114577  0  1.011019  0  0  0.114935  0  1.011296  0  0.032126  0  0.105717  0.114314  0  1.010813  0
H  H32  1  0.05079513  0.43402667  0.70585860  1  0  0.108517  0  0.936767  0  0  0.123633  0  1.006357  0  0  0.124796  0  1.00577  0  0.081036  0  0.104824  0.122701  0  1.006903  0
H  H33  1  0.94919926  0.56597396  0.29413807  1  0  0.108461  0  0.936769  0  0  0.123601  0  1.00632  0  0  0.124764  0  1.005733  0  0.080713  0  0.104813  0.122671  0  1.006865  0
H  H34  1  0.92677370  0.54713639  0.79042552  1  0  0.099678  0  0.953404  0  0  0.117844  0  1.020098  0  0  0.118454  0  1.020867  0  0.066126  0  0.101629  0.117394  0  1.019541  0
H  H35  1  0.07321748  0.45286424  0.20957265  1  0  0.099681  0  0.953399  0  0  0.11784  0  1.020093  0  0  0.11845  0  1.02086  0  0.066167  0  0.101646  0.117391  0  1.019537  0
H  H36  1  0.90226036  0.73981330  0.53057660  1  0  0.105503  0  0.967703  0  0  0.123101  0  1.035598  0  0  0.123862  0  1.035651  0  0.095405  0  0.107506  0.122412  0  1.035772  0
H  H37  1  0.09773976  0.26018926  0.46942035  1  0  0.10552  0  0.967606  0  0  0.123111  0  1.035507  0  0  0.123873  0  1.035558  0  0.095171  0  0.107513  0.122422  0  1.035682  0
H  H38  1  0.78948497  0.69154063  0.65679078  1  0  0.101052  0  0.936045  0  0  0.120528  0  1.000396  0  0  0.120565  0  1.001418  0  0.064991  0  0.102772  0.120371  0  0.999779  0
H  H39  1  0.21051159  0.30846290  0.34320684  1  0  0.101039  0  0.936039  0  0  0.120513  0  1.000398  0  0  0.120552  0  1.001417  0  0.064994  0  0.102766  0.120355  0  0.999783  0
H  H40  1  0.89833915  0.57643486  0.57190763  1  0  0.108838  0  0.938769  0  0  0.129495  0  1.000101  0  0  0.130172  0  0.999756  0  0.08855  0  0.105489  0.128738  0  1.000818  0
H  H41  1  0.10166134  0.42356964  0.42808807  1  0  0.108824  0  0.938757  0  0  0.12947  0  1.000105  0  0  0.130139  0  0.999769  0  0.08859  0  0.105478  0.128714  0  1.000817  0
C  C42  1  0.19442846  0.00560156  0.56798373  1  0  0.136644  0  3.662721  0  0  0.105163  0  3.915619  0  0  0.112164  0  3.932479  0  0.435469  0  0.05063  0.100837  0  3.903606  0
C  C43  1  0.80557235  0.99439906  0.43201564  1  0  0.13668  0  3.662723  0  0  0.105198  0  3.915597  0  0  0.112198  0  3.932462  0  0.435431  0  0.050705  0.100872  0  3.903584  0
C  C44  1  0.40370806  0.86102353  0.61882867  1  0  0.128789  0  3.696381  0  0  0.098612  0  3.944975  0  0  0.10491  0  3.963715  0  0.507289  0  0.044129  0.09436  0  3.932505  0
C  C45  1  0.59629455  0.13897807  0.38117003  1  0  0.128779  0  3.696397  0  0  0.098604  0  3.944987  0  0  0.104903  0  3.963727  0  0.507235  0  0.044149  0.094352  0  3.932519  0
C  C46  1  0.16303350  0.07892962  0.64218568  1  0  -0.107207  0  3.683308  0  0  -0.131144  0  3.930737  0  0  -0.135872  0  3.94925  0  0.074995  0  -0.070468  -0.128314  0  3.918663  0
C  C47  1  0.83696589  0.92107197  0.35781382  1  0  -0.107301  0  3.68343  0  0  -0.131182  0  3.930809  0  0  -0.135916  0  3.949326  0  0.074981  0  -0.070475  -0.12835  0  3.918732  0
C  C48  1  0.37825903  0.92808144  0.69613037  1  0  -0.126649  0  3.700655  0  0  -0.147724  0  3.946885  0  0  -0.1528  0  3.965866  0  -0.0456  0  -0.078508  -0.144381  0  3.934128  0
C  C49  1  0.62174355  0.07191725  0.30386973  1  0  -0.126698  0  3.700678  0  0  -0.147782  0  3.946894  0  0  -0.152859  0  3.965869  0  -0.045614  0  -0.078536  -0.144439  0  3.934136  0
C  C50  1  0.25604068  0.04123898  0.70761853  1  0  0.015696  0  3.721769  0  0  0.032128  0  3.951732  0  0  0.03166  0  3.971438  0  -0.04598  0  0.013308  0.032415  0  3.938662  0
C  C51  1  0.74396334  0.95876165  0.29238076  1  0  0.015752  0  3.72195  0  0  0.03223  0  3.951811  0  0  0.031766  0  3.971504  0  -0.045994  0  0.013283  0.032518  0  3.938739  0
C  C52  1  0.21591692  0.12403281  0.78680096  1  0  0.546941  0  3.80627  0  0  0.503532  0  4.088764  0  0  0.532532  0  4.086462  0  1.432471  0  0.247175  0.483803  0  4.089988  0
C  C53  1  0.78408285  0.87597072  0.21320015  1  0  0.546808  0  3.806406  0  0  0.503384  0  4.088888  0  0  0.53239  0  4.086581  0  1.432439  0  0.247091  0.483655  0  4.090112  0
C  C54  1  0.33172468  0.18544846  0.88900880  1  0  0.27454  0  3.756166  0  0  0.270222  0  4.001507  0  0  0.27956  0  4.023187  0  0.340344  0  0.107312  0.263791  0  3.986729  0
C  C55  1  0.66827865  0.81455410  0.11098951  1  0  0.27453  0  3.75632  0  0  0.270126  0  4.001748  0  0  0.279466  0  4.023426  0  0.340547  0  0.107274  0.263695  0  3.98697  0
C  C56  1  0.20697675  0.28790058  0.92742563  1  0  -0.171715  0  3.740477  0  0  -0.191809  0  3.988173  0  0  -0.198679  0  4.010195  0  -0.040869  0  -0.098936  -0.186974  0  3.973051  0
C  C57  1  0.79302730  0.71210295  0.07257514  1  0  -0.171727  0  3.74061  0  0  -0.191801  0  3.988286  0  0  -0.198674  0  4.01032  0  -0.040814  0  -0.098901  -0.186967  0  3.973165  0
C  C58  1  0.46532895  0.15286425  0.91764337  1  0  -0.160304  0  3.724365  0  0  -0.182401  0  3.982822  0  0  -0.188819  0  4.005214  0  -0.01764  0  -0.0908  -0.177849  0  3.967241  0
C  C59  1  0.53467646  0.84713250  0.08235790  1  0  -0.160185  0  3.724481  0  0  -0.182267  0  3.982945  0  0  -0.188682  0  4.005336  0  -0.018075  0  -0.090841  -0.177711  0  3.967356  0
C  C60  1  0.21867907  0.35762410  0.98985949  1  0  -0.086011  0  3.74359  0  0  -0.105285  0  3.987149  0  0  -0.105628  0  4.00814  0  0.003299  0  -0.080715  -0.104984  0  3.972694  0
C  C61  1  0.78133530  0.64237749  0.01013773  1  0  -0.085973  0  3.743514  0  0  -0.105217  0  3.987028  0  0  -0.105592  0  4.008014  0  0.003299  0  -0.080631  -0.104914  0  3.972572  0
C  C62  1  0.47553130  0.22204515  0.98088898  1  0  -0.070643  0  3.717943  0  0  -0.093303  0  3.968895  0  0  -0.093066  0  3.988677  0  -0.007948  0  -0.076397  -0.093124  0  3.955043  0
C  C63  1  0.52447338  0.77795063  0.01911268  1  0  -0.070761  0  3.718006  0  0  -0.093467  0  3.968966  0  0  -0.093239  0  3.98875  0  -0.008041  0  -0.076381  -0.093283  0  3.955113  0
C  C64  1  0.35263560  0.32734213  0.01732633  1  0  0.098138  0  3.917035  0  0  0.112078  0  4.147623  0  0  0.110843  0  4.171053  0  0.114395  0  -0.007595  0.112922  0  4.131675  0
C  C65  1  0.64737376  0.67265849  0.98267093  1  0  0.098247  0  3.917185  0  0  0.112208  0  4.147718  0  0  0.110983  0  4.171152  0  0.114401  0  -0.007622  0.113042  0  4.131783  0
C  C66  1  0.36210459  0.40130873  0.07944740  1  0  -0.062289  0  3.854899  0  0  -0.063894  0  4.108517  0  0  -0.06321  0  4.137649  0  -0.432609  0  -0.025448  -0.064378  0  4.088587  0
C  C67  1  0.63790062  0.59870352  0.92055037  1  0  -0.062229  0  3.854221  0  0  -0.063831  0  4.107854  0  0  -0.063154  0  4.136996  0  -0.432773  0  -0.025429  -0.064312  0  4.087921  0
C  C68  1  0.36649862  0.46840250  0.13255129  1  0  -0.13169  0  3.856138  0  0  -0.131752  0  4.110682  0  0  -0.139014  0  4.139887  0  0.069329  0  -0.044501  -0.126707  0  4.090513  0
C  C69  1  0.63350316  0.53158941  0.86744982  1  0  -0.131888  0  3.855351  0  0  -0.13195  0  4.109984  0  0  -0.13921  0  4.139197  0  0.069508  0  -0.044568  -0.126904  0  4.089809  0
C  C70  1  0.36955413  0.54635734  0.19422082  1  0  0.181384  0  3.885345  0  0  0.192136  0  4.112549  0  0  0.201403  0  4.131111  0  0.117225  0  0.020341  0.186156  0  4.099735  0
C  C71  1  0.63044775  0.45364328  0.80577971  1  0  0.181423  0  3.885117  0  0  0.192121  0  4.112427  0  0  0.20139  0  4.130989  0  0.117191  0  0.020295  0.186143  0  4.099608  0
C  C72  1  0.24587713  0.65529374  0.22286940  1  0  -0.169953  0  3.665405  0  0  -0.18583  0  3.905762  0  0  -0.194126  0  3.924079  0  -0.002179  0  -0.080373  -0.180506  0  3.893557  0
C  C73  1  0.75412434  0.34470204  0.77712948  1  0  -0.169952  0  3.66514  0  0  -0.185808  0  3.905532  0  0  -0.194104  0  3.923848  0  -0.00195  0  -0.080306  -0.180486  0  3.893327  0
C  C74  1  0.49614072  0.51937372  0.22934070  1  0  -0.162456  0  3.687627  0  0  -0.181538  0  3.938606  0  0  -0.189829  0  3.957481  0  -0.028147  0  -0.080236  -0.176223  0  3.926173  0
C  C75  1  0.50385613  0.48062303  0.77066197  1  0  -0.162431  0  3.687571  0  0  -0.181482  0  3.938546  0  0  -0.189772  0  3.957419  0  -0.028408  0  -0.080217  -0.176158  0  3.926102  0
C  C76  1  0.25242538  0.72640094  0.28627974  1  0  0.1409  0  3.705501  0  0  0.106788  0  3.958651  0  0  0.115224  0  3.975833  0  0.443051  0  0.045115  0.101232  0  3.94704  0
C  C77  1  0.74757147  0.27359581  0.71372078  1  0  0.140949  0  3.705354  0  0  0.10681  0  3.958507  0  0  0.11525  0  3.975688  0  0.443172  0  0.045107  0.10125  0  3.946896  0
C  C78  1  0.49255673  0.59651948  0.29214290  1  0  0.149356  0  3.726881  0  0  0.109743  0  3.994087  0  0  0.119207  0  4.010781  0  0.460088  0  0.045209  0.103204  0  3.98313  0
C  C79  1  0.50743767  0.40348115  0.70785878  1  0  0.149255  0  3.72701  0  0  0.109617  0  3.99424  0  0  0.119085  0  4.010933  0  0.460603  0  0.045176  0.103074  0  3.983278  0
C  C80  1  0.12983568  0.68477922  0.59363562  1  0  0.411437  0  3.78792  0  0  0.330353  0  4.078668  0  0  0.360024  0  4.077991  0  1.426163  0  0.177055  0.310532  0  4.078928  0
C  C81  1  0.87016262  0.31521946  0.40636338  1  0  0.411417  0  3.788135  0  0  0.330349  0  4.078871  0  0  0.360021  0  4.07819  0  1.426252  0  0.177046  0.310528  0  4.079132  0
C  C82  1  0.03144588  0.52624946  0.72796970  1  0  -0.173982  0  3.663372  0  0  -0.277243  0  3.918408  0  0  -0.273855  0  3.928825  0  0.301721  0  -0.132277  -0.279327  0  3.911128  0
C  C83  1  0.96855027  0.47374922  0.27202912  1  0  -0.173894  0  3.663316  0  0  -0.277156  0  3.918368  0  0  -0.273768  0  3.928791  0  0.302249  0  -0.132258  -0.27924  0  3.911079  0
C  C84  1  0.89535736  0.66133425  0.59698390  1  0  -0.164971  0  3.637865  0  0  -0.265972  0  3.881186  0  0  -0.262268  0  3.891497  0  0.247503  0  -0.134448  -0.26817  0  3.874455  0
C  C85  1  0.10463993  0.33867026  0.40301403  1  0  -0.164976  0  3.637665  0  0  -0.265942  0  3.880989  0  0  -0.262232  0  3.891299  0  0.247194  0  -0.134407  -0.268141  0  3.874258  0
N  N86  1  0.31464822  0.89855526  0.55515738  1  0  -0.322518  0  3.281285  0  0  -0.241648  0  3.543284  0  0  -0.260696  0  3.561256  0  -1.243588  0  -0.319812  -0.22881  0  3.531004  0
N  N87  1  0.68535118  0.10144633  0.44484355  1  0  -0.322506  0  3.281229  0  0  -0.241644  0  3.543236  0  0  -0.260694  0  3.56121  0  -1.243588  0  -0.319835  -0.228808  0  3.530958  0
N  N88  1  0.33286628  0.11431220  0.82140004  1  0  -0.435395  0  3.333004  0  0  -0.37931  0  3.565973  0  0  -0.402674  0  3.574735  0  -1.262484  0  -0.389485  -0.363209  0  3.559605  0
N  N89  1  0.66713314  0.88569230  0.17859807  1  0  -0.435409  0  3.333116  0  0  -0.379239  0  3.566127  0  0  -0.402609  0  3.574892  0  -1.262441  0  -0.389366  -0.363134  0  3.55975  0
N  N90  1  0.37231734  0.69738637  0.32231788  1  0  -0.336975  0  3.298422  0  0  -0.255884  0  3.570666  0  0  -0.276184  0  3.587386  0  -1.247236  0  -0.331511  -0.242149  0  3.559024  0
N  N91  1  0.62767488  0.30261134  0.67768427  1  0  -0.336976  0  3.298451  0  0  -0.255835  0  3.570637  0  0  -0.27616  0  3.587403  0  -1.24752  0  -0.331476  -0.242089  0  3.558984  0
N  N92  1  0.02073439  0.63057555  0.63941739  1  0  -0.073318  0  3.523154  0  0  0.030253  0  3.756701  0  0  0.010585  0  3.781232  0  -1.22201  0  -0.27641  0.043524  0  3.739567  0
N  N93  1  0.97926390  0.36942314  0.36058019  1  0  -0.07324  0  3.523045  0  0  0.030303  0  3.756604  0  0  0.010637  0  3.781131  0  -1.221713  0  -0.276427  0.043574  0  3.739474  0
N  N94  1  0.25877908  0.04469817  0.29416014  1  0  0.682869  0  4.132159  0  0  0.729985  0  4.408026  0  0  0.758884  0  4.411956  0  0.825934  0  0.101295  0.710461  0  4.405227  0
N  N95  1  0.74121745  0.95530246  0.70583886  1  0  0.682962  0  4.132149  0  0  0.729926  0  4.408231  0  0  0.758826  0  4.412163  0  0.825158  0  0.101207  0.710399  0  4.405437  0
N  N96  1  0.60716298  0.63136622  0.47899549  1  0  0.679688  0  4.13455  0  0  0.721955  0  4.41737  0  0  0.750767  0  4.421543  0  0.803613  0  0.090956  0.702547  0  4.413914  0
N  N97  1  0.39283424  0.36863247  0.52100664  1  0  0.679588  0  4.134479  0  0  0.721926  0  4.417236  0  0  0.750739  0  4.421407  0  0.803762  0  0.090976  0.70252  0  4.413778  0
O  O98  1  0.08495516  0.19433384  0.81610805  1  0  -0.532894  0  1.923757  0  0  -0.4921  0  2.133285  0  0  -0.511532  0  2.126418  0  -1.14407  0  -0.285976  -0.47877  0  2.137859  0
O  O99  1  0.91504352  0.80566679  0.18389471  1  0  -0.532846  0  1.92373  0  0  -0.492057  0  2.133266  0  0  -0.511493  0  2.126398  0  -1.144028  0  -0.285965  -0.478728  0  2.13784  0
O  O100  1  0.13572002  0.76837536  0.51185505  1  0  -0.533574  0  2.113124  0  0  -0.468929  0  2.387883  0  0  -0.495819  0  2.379294  0  -1.160523  0  -0.299432  -0.450354  0  2.393073  0
O  O101  1  0.86427617  0.23162623  0.48814596  1  0  -0.533523  0  2.113188  0  0  -0.468913  0  2.387984  0  0  -0.495804  0  2.379393  0  -1.160581  0  -0.299421  -0.45034  0  2.393175  0
O  O102  1  0.37822812  0.95899226  0.32142201  1  0  -0.542372  0  1.907152  0  0  -0.511554  0  2.159776  0  0  -0.534477  0  2.150804  0  -0.640399  0  -0.216262  -0.495729  0  2.165414  0
O  O103  1  0.62176876  0.04100740  0.67857855  1  0  -0.542383  0  1.907279  0  0  -0.511526  0  2.159955  0  0  -0.534442  0  2.15097  0  -0.640351  0  -0.216216  -0.495699  0  2.165591  0
O  O104  1  0.13337042  0.02836052  0.34088251  1  0  -0.42952  0  1.748315  0  0  -0.42941  0  1.95127  0  0  -0.443182  0  1.945158  0  -0.505248  0  -0.172853  -0.419582  0  1.955064  0
O  O105  1  0.86662718  0.97164011  0.65911479  1  0  -0.429551  0  1.748248  0  0  -0.42941  0  1.951284  0  0  -0.443183  0  1.945171  0  -0.50519  0  -0.172829  -0.419571  0  1.955066  0
O  O106  1  0.27907879  0.13703336  0.22314291  1  0  -0.418688  0  1.737683  0  0  -0.428565  0  1.939509  0  0  -0.439864  0  1.933911  0  -0.506472  0  -0.176906  -0.420794  0  1.943286  0
O  O107  1  0.72091916  0.86296629  0.77685668  1  0  -0.418702  0  1.737653  0  0  -0.428517  0  1.939541  0  0  -0.43982  0  1.933944  0  -0.50581  0  -0.176868  -0.42075  0  1.943321  0
O  O108  1  0.47293444  0.62440811  0.52627709  1  0  -0.498661  0  1.861628  0  0  -0.481641  0  2.11378  0  0  -0.502498  0  2.107272  0  -0.57545  0  -0.197554  -0.466985  0  2.118006  0
O  O109  1  0.52706489  0.37558767  0.47372589  1  0  -0.498574  0  1.861635  0  0  -0.481612  0  2.113799  0  0  -0.502471  0  2.107293  0  -0.575465  0  -0.197527  -0.46695  0  2.118006  0
O  O110  1  0.61892119  0.72629532  0.40421739  1  0  -0.479298  0  1.76198  0  0  -0.468085  0  1.985464  0  0  -0.484664  0  1.978925  0  -0.562541  0  -0.195055  -0.456346  0  1.989543  0
O  O111  1  0.38107711  0.27370336  0.59578519  1  0  -0.479292  0  1.761926  0  0  -0.468075  0  1.985375  0  0  -0.484656  0  1.978837  0  -0.562614  0  -0.195072  -0.456336  0  1.989447  0
O  O112  1  0.71770902  0.54959755  0.50594871  1  0  -0.400012  0  1.763203  0  0  -0.397771  0  1.962345  0  0  -0.40916  0  1.958047  0  -0.488184  0  -0.158764  -0.389666  0  1.965293  0
O  O113  1  0.28228821  0.45040114  0.49405128  1  0  -0.399979  0  1.763143  0  0  -0.397779  0  1.962277  0  0  -0.409169  0  1.957977  0  -0.48821  0  -0.15879  -0.389675  0  1.965223  0
