# generated using pymatgen
data_CuH14C20(NO)4
_symmetry_space_group_name_H-M   'P 1'
_cell_length_a   13.22613188
_cell_length_b   13.41999288
_cell_length_c   21.01564993
_cell_angle_alpha   89.99990155
_cell_angle_beta   107.74823636
_cell_angle_gamma   89.99935818
_symmetry_Int_Tables_number   1
_chemical_formula_structural   CuH14C20(NO)4
_chemical_formula_sum   'Cu6 H84 C120 N24 O24'
_cell_volume   3552.62780058
_cell_formula_units_Z   6
loop_
 _symmetry_equiv_pos_site_id
 _symmetry_equiv_pos_as_xyz
  1  'x, y, z'
loop_
 _atom_site_type_symbol
 _atom_site_label
 _atom_site_symmetry_multiplicity
 _atom_site_fract_x
 _atom_site_fract_y
 _atom_site_fract_z
 _atom_site_occupancy
 _atom_site_pbe_bader_charge
 _atom_site_pbe_bader_spin_density
 _atom_site_pbe_cm5_charge
 _atom_site_pbe_ddec_charge
 _atom_site_pbe_ddec_spin_density
 _atom_site_pbe_ddec_sum_bond_order
 _atom_site_pbe_magmom
Cu  Cu0  1  0.71115935  0.51608661  0.49460396  1  1.049571  0.565592  0.721539  0.73603  0.72371  2.323046  0.565
Cu  Cu1  1  0.28883566  0.01609078  0.00540029  1  1.049634  0.565595  0.721578  0.73601  0.723718  2.322952  0.565
Cu  Cu2  1  0.28883256  0.48391085  0.50539469  1  1.049692  0.565598  0.721602  0.736044  0.723709  2.322997  0.565
Cu  Cu3  1  0.71116811  0.98390891  0.99460309  1  1.049813  0.565614  0.72154  0.736005  0.723729  2.322999  0.565
Cu  Cu4  1  0.49999966  0.49999821  0.00000073  1  1.059082  0.563758  0.755296  0.772595  0.729  2.220431  0.564
Cu  Cu5  1  0.50000599  0.00000629  0.49999946  1  1.059101  0.563755  0.755347  0.772707  0.728999  2.220426  0.564
H  H6  1  0.73746611  0.38931538  0.30511622  1  0.097652  0.000624  0.092595  0.091762  0.000587  1.068423  0.0
H  H7  1  0.66888232  0.30767725  0.19505585  1  0.053757  3.2e-05  0.09782  0.094869  8e-06  1.076753  0.0
H  H8  1  0.45745160  0.13103295  0.26972606  1  0.022316  0.000185  0.096169  0.089503  8.5e-05  1.041396  0.0
H  H9  1  0.52891425  0.21252650  0.38068783  1  0.104812  -4.9e-05  0.107368  0.114385  -9.9e-05  0.996406  0.0
H  H10  1  0.37491212  0.07175408  0.15927999  1  0.125094  0.000462  0.114656  0.117908  9.5e-05  1.029142  0.001
H  H11  1  0.49012313  0.15144770  0.99962019  1  0.228145  0.000275  0.142965  0.125428  8e-06  1.00749  0.0
H  H12  1  0.82066266  0.73170059  0.71957269  1  0.088226  6e-05  0.101081  0.103712  -4e-06  1.011899  0.0
H  H13  1  0.80446867  0.71382423  0.83411197  1  0.03382  0.000398  0.089642  0.080093  0.000221  1.031734  0.0
H  H14  1  0.52639540  0.53103220  0.75401905  1  0.050052  3.7e-05  0.098956  0.094579  7e-06  1.030207  0.0
H  H15  1  0.55366962  0.53798002  0.64265602  1  0.108508  0.000394  0.10269  0.11199  0.000352  1.026779  0.0
H  H16  1  0.67771251  0.67510235  0.02287247  1  0.245308  0.000405  0.137917  0.125197  0.000125  1.02666  0.0
H  H17  1  0.53958640  0.48137027  0.86088788  1  0.128828  0.000632  0.119373  0.116312  0.0002  1.036443  0.001
H  H18  1  0.67881835  0.61065649  0.19991855  1  0.10055  0.000508  0.104391  0.107801  0.00043  1.026367  0.0
H  H19  1  0.80891917  0.63216011  0.31159887  1  0.017865  0.000113  0.091557  0.077799  6.6e-05  1.061785  0.0
H  H20  1  0.98259001  0.37641612  0.27604690  1  0.043305  0.000263  0.106289  0.108919  0.000137  0.998181  0.0
H  H21  1  0.84578150  0.35209659  0.16593825  1  0.092755  2.1e-05  0.108647  0.113202  -1.3e-05  0.986413  0.0
H  H22  1  0.12899440  0.43634259  0.36084906  1  0.140301  0.000714  0.123163  0.122065  0.000255  1.040511  0.0
H  H23  1  0.08624976  0.61130026  0.51705087  1  0.138946  0.000135  0.14431  0.117572  -7.5e-05  0.976866  0.0
H  H24  1  0.59597818  0.25023661  0.09983586  1  0.542909  0.00051  0.322849  0.30954  0.000366  0.942898  0.001
H  H25  1  0.73106239  0.73519861  0.92421901  1  0.479662  0.00102  0.334569  0.282668  0.000519  0.920698  0.001
H  H26  1  0.90993540  0.60817803  0.42221672  1  0.48377  0.000794  0.341193  0.292208  0.000371  0.90531  0.001
H  H27  1  0.26252888  0.88931397  0.19488380  1  0.097619  0.000623  0.092549  0.091744  0.000587  1.068375  0.0
H  H28  1  0.33111133  0.80767555  0.30494494  1  0.053839  3.2e-05  0.097843  0.094832  8e-06  1.076715  0.0
H  H29  1  0.54255472  0.63103949  0.23027506  1  0.022302  0.000185  0.096177  0.089526  8.5e-05  1.041389  0.0
H  H30  1  0.47108861  0.71253187  0.11931347  1  0.104728  -4.9e-05  0.10735  0.114369  -9.9e-05  0.996416  0.0
H  H31  1  0.62508852  0.57174975  0.34072531  1  0.125109  0.000462  0.114677  0.11794  9.5e-05  1.029169  0.001
H  H32  1  0.50986433  0.65144994  0.50037916  1  0.227928  0.000275  0.142955  0.125367  8e-06  1.007514  0.0
H  H33  1  0.17932620  0.23169192  0.78042352  1  0.088385  6e-05  0.101086  0.103708  -4e-06  1.011916  0.0
H  H34  1  0.19552597  0.21381640  0.66588588  1  0.033576  0.000398  0.089678  0.080185  0.000221  1.031657  0.0
H  H35  1  0.47360068  0.03101808  0.74598690  1  0.050104  3.7e-05  0.098989  0.094603  7e-06  1.030298  0.0
H  H36  1  0.44631687  0.03796743  0.85734707  1  0.108373  0.000394  0.102696  0.11198  0.000352  1.027176  0.0
H  H37  1  0.32228762  0.17510502  0.47713070  1  0.245401  0.000405  0.137842  0.125196  0.000125  1.02671  0.0
H  H38  1  0.46041587  0.98136379  0.63911118  1  0.128744  0.000632  0.119394  0.116294  0.0002  1.036446  0.001
H  H39  1  0.32119146  0.11066258  0.30007996  1  0.101142  0.000509  0.104472  0.107893  0.00043  1.026533  0.0
H  H40  1  0.19108718  0.13217090  0.18839893  1  0.017491  0.000113  0.09155  0.077775  6.6e-05  1.061894  0.0
H  H41  1  0.01741705  0.87643303  0.22395599  1  0.043713  0.000263  0.106321  0.108996  0.000137  0.99834  0.0
H  H42  1  0.15422746  0.85210947  0.33406505  1  0.092916  2.1e-05  0.108589  0.113116  -1.3e-05  0.986331  0.0
H  H43  1  0.87101666  0.93635014  0.13915408  1  0.140517  0.000714  0.123176  0.122072  0.000255  1.040335  0.0
H  H44  1  0.91375260  0.11130002  0.98294672  1  0.138847  0.000135  0.144314  0.117498  -7.5e-05  0.977054  0.0
H  H45  1  0.40401707  0.75023909  0.40016245  1  0.542841  0.000511  0.322858  0.309535  0.000366  0.942874  0.001
H  H46  1  0.26893425  0.23519241  0.57578492  1  0.47973  0.00102  0.33452  0.28259  0.000519  0.920726  0.001
H  H47  1  0.09006174  0.10818575  0.07777975  1  0.483973  0.000793  0.341217  0.292253  0.000371  0.905432  0.001
H  H48  1  0.26252581  0.61069102  0.69488149  1  0.097597  0.000625  0.092545  0.091711  0.000587  1.068358  0.0
H  H49  1  0.33111042  0.69232542  0.80494106  1  0.053929  3.2e-05  0.097787  0.094801  8e-06  1.076744  0.0
H  H50  1  0.54255305  0.86895854  0.73027321  1  0.02235  0.000185  0.096157  0.089484  8.5e-05  1.041301  0.0
H  H51  1  0.47107849  0.78747617  0.61930908  1  0.104789  -4.9e-05  0.107383  0.114375  -9.9e-05  0.996428  0.0
H  H52  1  0.62509323  0.92824486  0.84072418  1  0.12501  0.000462  0.114669  0.117931  9.5e-05  1.029136  0.001
H  H53  1  0.50987034  0.84855422  0.00038019  1  0.228046  0.000275  0.142956  0.125353  8e-06  1.007474  0.0
H  H54  1  0.17930633  0.26831177  0.28041571  1  0.088957  6e-05  0.101073  0.103682  -4e-06  1.012119  0.0
H  H55  1  0.19550902  0.28619334  0.16587958  1  0.033325  0.000398  0.089738  0.080225  0.000221  1.031632  0.0
H  H56  1  0.47359952  0.46896228  0.24598924  1  0.05045  3.7e-05  0.098895  0.09457  7e-06  1.030034  0.0
H  H57  1  0.44631818  0.46200104  0.35734943  1  0.108696  0.000394  0.102725  0.112151  0.000352  1.026815  0.0
H  H58  1  0.32228810  0.32489660  0.97712980  1  0.245384  0.000405  0.137895  0.125223  0.000125  1.026691  0.0
H  H59  1  0.46040632  0.51863836  0.13910998  1  0.128821  0.000632  0.119409  0.116343  0.0002  1.036387  0.001
H  H60  1  0.32117917  0.38933277  0.80007788  1  0.10159  0.000509  0.104486  0.107878  0.00043  1.026532  0.0
H  H61  1  0.19107759  0.36782915  0.68839551  1  0.017515  0.000113  0.091549  0.07775  6.6e-05  1.061924  0.0
H  H62  1  0.01740107  0.62356792  0.72395349  1  0.04354  0.000263  0.106325  0.108944  0.000137  0.99825  0.0
H  H63  1  0.15421439  0.64789043  0.83406024  1  0.093137  2.1e-05  0.108599  0.113141  -1.3e-05  0.986376  0.0
H  H64  1  0.87099748  0.56364592  0.63915149  1  0.140821  0.000714  0.123165  0.122082  0.000255  1.040339  0.0
H  H65  1  0.91374302  0.38869868  0.48294415  1  0.138834  0.000135  0.144254  0.117515  -7.5e-05  0.976801  0.0
H  H66  1  0.40401772  0.74976531  0.90016263  1  0.542884  0.000511  0.322846  0.309527  0.000366  0.942761  0.001
H  H67  1  0.26893663  0.26480555  0.07578295  1  0.479707  0.00102  0.334549  0.282608  0.000519  0.920794  0.001
H  H68  1  0.09005424  0.39182017  0.57777529  1  0.483836  0.000793  0.341234  0.292236  0.000371  0.905388  0.001
H  H69  1  0.73747019  0.11069168  0.80511532  1  0.097696  0.000623  0.092523  0.091668  0.000587  1.06844  0.0
H  H70  1  0.66888770  0.19233531  0.69505608  1  0.053748  3.2e-05  0.09783  0.094891  8e-06  1.076701  0.0
H  H71  1  0.45743799  0.36896318  0.76972375  1  0.022259  0.000185  0.096222  0.089569  8.5e-05  1.04144  0.0
H  H72  1  0.52890093  0.28747080  0.88068424  1  0.104787  -4.9e-05  0.107354  0.114436  -9.9e-05  0.996289  0.0
H  H73  1  0.37490337  0.42825143  0.65927476  1  0.124989  0.000462  0.114627  0.117884  9.5e-05  1.029188  0.001
H  H74  1  0.49012913  0.34855869  0.49962171  1  0.228114  0.000276  0.142931  0.125364  8e-06  1.007441  0.0
H  H75  1  0.82069660  0.76830702  0.21958506  1  0.088952  6e-05  0.101022  0.103637  -4e-06  1.012157  0.0
H  H76  1  0.80449603  0.78618701  0.33412302  1  0.033216  0.000398  0.089731  0.080185  0.000221  1.03152  0.0
H  H77  1  0.52639912  0.96895404  0.25401569  1  0.050339  3.7e-05  0.098913  0.094553  7e-06  1.030049  0.0
H  H78  1  0.55368453  0.96200618  0.14265584  1  0.108725  0.000394  0.1027  0.112076  0.000352  1.026995  0.0
H  H79  1  0.67771692  0.82490138  0.52287473  1  0.245268  0.000405  0.137901  0.125181  0.000125  1.026701  0.0
H  H80  1  0.53959672  0.01863888  0.36088919  1  0.129125  0.000632  0.119433  0.116369  0.0002  1.036414  0.001
H  H81  1  0.67882362  0.88935127  0.69991520  1  0.100432  0.000509  0.104412  0.107855  0.00043  1.026427  0.0
H  H82  1  0.80893023  0.86784145  0.81159907  1  0.017901  0.000113  0.091514  0.077749  6.6e-05  1.06192  0.0
H  H83  1  0.98259465  0.12358528  0.77604991  1  0.043226  0.000263  0.106303  0.108868  0.000137  0.998104  0.0
H  H84  1  0.84578981  0.14791183  0.66594101  1  0.093023  2.1e-05  0.10864  0.113246  -1.3e-05  0.986293  0.0
H  H85  1  0.12899582  0.06366519  0.86085293  1  0.140492  0.000714  0.123196  0.122113  0.000255  1.040545  0.0
H  H86  1  0.08625684  0.88869594  0.01705159  1  0.138888  0.000135  0.144307  0.117564  -7.5e-05  0.976819  0.0
H  H87  1  0.59598117  0.24977029  0.59983888  1  0.54293  0.00051  0.322822  0.309553  0.000366  0.942813  0.001
H  H88  1  0.73106549  0.76480281  0.42422147  1  0.479688  0.00102  0.334562  0.282607  0.000519  0.920727  0.001
H  H89  1  0.90994694  0.89181916  0.92221699  1  0.483871  0.000793  0.341238  0.292225  0.000371  0.90542  0.001
C  C90  1  0.67695558  0.33177024  0.29730881  1  -0.119594  0.000504  -0.089964  -0.088036  0.000346  3.9868  0.0
C  C91  1  0.63783417  0.28594264  0.23535348  1  0.033889  0.000402  -0.098037  -0.137524  0.000198  3.972843  0.0
C  C92  1  0.55623284  0.21496767  0.22376402  1  0.012198  0.000391  -0.00549  0.058036  0.000175  4.048863  0.0
C  C93  1  0.51992047  0.18683366  0.27761045  1  -0.012808  0.000625  -0.092447  -0.133371  0.0004  3.985016  0.001
C  C94  1  0.55957588  0.23199062  0.33968449  1  -0.076146  0.000862  -0.080739  -0.082658  0.000417  3.973252  0.001
C  C95  1  0.63666854  0.30723239  0.34965212  1  0.030908  0.006315  -0.023147  -0.03763  0.00453  3.973509  0.005
C  C96  1  0.66592261  0.36709582  0.41251613  1  1.512735  -0.001151  0.188001  0.551332  -0.001701  4.212807  -0.003
C  C97  1  0.50787426  0.17422508  0.15735749  1  0.386817  0.003249  0.086952  0.113267  0.002148  4.002166  0.003
C  C98  1  0.42293801  0.10968307  0.13322370  1  0.317141  0.001661  -0.010351  -0.111624  0.00129  3.9813  0.002
C  C99  1  0.47846942  0.14837439  0.04847048  1  0.973994  -0.001854  0.158412  0.184206  -0.002332  3.869014  -0.001
C  C100  1  0.75759824  0.68644905  0.72815358  1  -0.005843  0.001367  -0.087751  -0.096829  0.000713  3.997805  0.001
C  C101  1  0.74625760  0.67824486  0.79182347  1  -0.088781  0.001841  -0.10194  -0.145374  0.001208  4.010116  0.001
C  C102  1  0.66328562  0.62184811  0.80241636  1  -0.009743  0.000282  -0.007697  0.050673  8.9e-05  4.062855  0.0
C  C103  1  0.59318672  0.57247373  0.74738897  1  0.028051  0.000456  -0.086144  -0.113427  0.000202  3.964938  0.0
C  C104  1  0.60705622  0.57737388  0.68481616  1  -0.030127  -6e-06  -0.081286  -0.077214  -0.000163  3.961138  0.0
C  C105  1  0.68880397  0.63500536  0.67425706  1  -0.05113  0.011014  -0.017796  -0.026189  0.007675  3.952989  0.008
C  C106  1  0.70577607  0.63574305  0.60669504  1  1.536494  -0.001135  0.194144  0.549015  -0.00158  4.247654  -0.003
C  C107  1  0.64682999  0.61128329  0.86733123  1  0.367415  0.003186  0.08396  0.107332  0.00213  4.017077  0.002
C  C108  1  0.65562949  0.63953276  0.97402139  1  0.963159  -0.000608  0.151905  0.166981  -0.001069  3.87463  0.0
C  C109  1  0.58570001  0.54280593  0.88815077  1  0.386583  0.000526  0.006338  -0.064348  0.000169  3.929164  0.001
C  C110  1  0.74407291  0.55814192  0.21767879  1  -0.04759  -1.1e-05  -0.080222  -0.084644  -0.000158  3.964317  0.0
C  C111  1  0.81853240  0.57048048  0.28023364  1  -0.008246  0.000574  -0.095482  -0.133211  0.000341  3.995401  0.0
C  C112  1  0.90588810  0.50603358  0.30221893  1  0.045384  0.000261  -0.006853  0.048874  0.000101  4.061103  0.0
C  C113  1  0.91581536  0.42783309  0.25972461  1  0.00268  0.000872  -0.083679  -0.118989  0.000553  3.957066  0.001
C  C114  1  0.83979033  0.41408022  0.19811856  1  -0.08343  0.001014  -0.078684  -0.08494  0.000473  3.977927  0.001
C  C115  1  0.75266823  0.47872608  0.17647985  1  -0.031735  0.010225  -0.014192  -0.023937  0.007166  3.947625  0.008
C  C116  1  0.66728217  0.45866850  0.11183279  1  1.555313  -0.001586  0.200186  0.559582  -0.0022  4.222567  -0.004
C  C117  1  0.98731791  0.51943842  0.36612171  1  0.353467  0.002698  0.086391  0.112152  0.001843  4.013566  0.002
C  C118  1  0.08979787  0.48344340  0.38765671  1  0.358927  0.000338  0.007329  -0.063858  -7.8e-05  3.92523  0.001
C  C119  1  0.07116917  0.57417296  0.46923851  1  1.007896  -0.001516  0.146109  0.154334  -0.001942  3.935574  0.0
C  C120  1  0.32303855  0.83176813  0.20269252  1  -0.119311  0.000505  -0.089899  -0.088033  0.000346  3.986657  0.0
C  C121  1  0.36216057  0.78593846  0.26464660  1  0.033715  0.000402  -0.098121  -0.13749  0.000198  3.972775  0.0
C  C122  1  0.44376520  0.71496627  0.27623775  1  0.012264  0.000391  -0.005392  0.058143  0.000175  4.048714  0.0
C  C123  1  0.48008193  0.68683571  0.22239078  1  -0.01276  0.000625  -0.092488  -0.133522  0.0004  3.984953  0.001
C  C124  1  0.44042434  0.73199475  0.16031626  1  -0.075959  0.000861  -0.080705  -0.082529  0.000417  3.973209  0.001
C  C125  1  0.36332674  0.80723294  0.15034756  1  0.030432  0.006316  -0.023127  -0.037679  0.00453  3.973648  0.005
C  C126  1  0.33406547  0.86709982  0.08748586  1  1.513211  -0.001152  0.188071  0.551581  -0.001701  4.212942  -0.003
C  C127  1  0.49212353  0.67422521  0.34264332  1  0.386875  0.003249  0.086898  0.113223  0.002149  4.002075  0.003
C  C128  1  0.57706375  0.60967996  0.36677988  1  0.316901  0.001661  -0.01036  -0.11166  0.001289  3.981319  0.002
C  C129  1  0.52152471  0.64837467  0.45153106  1  0.973932  -0.001854  0.158466  0.184335  -0.002333  3.868985  -0.001
C  C130  1  0.24239197  0.18643746  0.77184437  1  -0.006085  0.001367  -0.087867  -0.096979  0.000713  3.998002  0.001
C  C131  1  0.25373507  0.17823329  0.70817688  1  -0.088392  0.001841  -0.101917  -0.145486  0.001208  4.010122  0.001
C  C132  1  0.33670857  0.12183490  0.69758436  1  -0.00993  0.000282  -0.007656  0.050963  8.9e-05  4.062618  0.0
C  C133  1  0.40680651  0.07245736  0.75261304  1  0.028468  0.000456  -0.086211  -0.113499  0.000202  3.964829  0.0
C  C134  1  0.39293611  0.07736348  0.81518805  1  -0.030587  -6e-06  -0.081365  -0.077303  -0.000163  3.96126  0.0
C  C135  1  0.31118529  0.13499808  0.82574266  1  -0.05082  0.011017  -0.017736  -0.026126  0.007678  3.95293  0.008
C  C136  1  0.29422032  0.13574549  0.89330609  1  1.53664  -0.001133  0.194153  0.54923  -0.001578  4.247378  -0.003
C  C137  1  0.35316750  0.11127228  0.63267110  1  0.367174  0.003187  0.083908  0.107161  0.00213  4.0171  0.002
C  C138  1  0.34437004  0.13953254  0.52597989  1  0.963061  -0.000609  0.152037  0.167104  -0.001071  3.874542  0.0
C  C139  1  0.41430082  0.04280099  0.61184897  1  0.386892  0.000526  0.006336  -0.064307  0.00017  3.929152  0.001
C  C140  1  0.25593836  0.05815176  0.28232101  1  -0.047979  -1.1e-05  -0.080316  -0.08461  -0.000158  3.963939  0.0
C  C141  1  0.18147475  0.07049429  0.21976486  1  -0.008706  0.000574  -0.095509  -0.133267  0.000341  3.995289  0.0
C  C142  1  0.09411748  0.00604842  0.19778077  1  0.046042  0.000261  -0.006829  0.048817  0.000101  4.061113  0.0
C  C143  1  0.08419341  0.92784921  0.24027857  1  0.001833  0.000872  -0.083661  -0.119018  0.000554  3.957208  0.001
C  C144  1  0.16021789  0.91409461  0.30188119  1  -0.0834  0.001014  -0.078489  -0.084593  0.000473  3.977974  0.001
C  C145  1  0.24734073  0.97873347  0.32352045  1  -0.03153  0.010223  -0.014323  -0.024207  0.007166  3.947606  0.008
C  C146  1  0.33272782  0.95866882  0.38816916  1  1.554289  -0.001589  0.200143  0.5594  -0.002202  4.223351  -0.004
C  C147  1  0.01268985  0.01944687  0.13388030  1  0.353057  0.002698  0.086258  0.112042  0.001843  4.013489  0.002
C  C148  1  0.91020863  0.98345058  0.11234405  1  0.35867  0.000337  0.007351  -0.063833  -7.9e-05  3.924875  0.001
C  C149  1  0.92883401  0.07417587  0.03075635  1  1.00781  -0.001517  0.146055  0.154402  -0.001942  3.935255  0.0
C  C150  1  0.32303953  0.66823466  0.70268952  1  -0.119544  0.000503  -0.089913  -0.088038  0.000345  3.986616  0.0
C  C151  1  0.36216094  0.71406003  0.76464438  1  0.03377  0.000402  -0.098041  -0.137412  0.000198  3.972709  0.0
C  C152  1  0.44376702  0.78503202  0.77623573  1  0.012326  0.000391  -0.005442  0.058047  0.000175  4.048715  0.0
C  C153  1  0.48007940  0.81316230  0.72238882  1  -0.012754  0.000625  -0.092444  -0.133354  0.0004  3.984963  0.001
C  C154  1  0.44042081  0.76801056  0.66031415  1  -0.076128  0.000861  -0.080726  -0.082597  0.000417  3.973142  0.001
C  C155  1  0.36332263  0.69277102  0.65034352  1  0.030809  0.006316  -0.023132  -0.037629  0.004531  3.973451  0.005
C  C156  1  0.33406137  0.63291132  0.58748094  1  1.512616  -0.001152  0.187978  0.551355  -0.001701  4.212642  -0.003
C  C157  1  0.49212717  0.82577312  0.84264352  1  0.386628  0.003249  0.086937  0.113211  0.002148  4.002097  0.003
C  C158  1  0.57706579  0.89031513  0.86677826  1  0.317553  0.00166  -0.010412  -0.111658  0.00129  3.98136  0.002
C  C159  1  0.52152646  0.85162605  0.95152896  1  0.974066  -0.001854  0.158447  0.184366  -0.002333  3.868993  -0.001
C  C160  1  0.24237864  0.31355288  0.27183924  1  -0.006451  0.001368  -0.087742  -0.096882  0.000712  3.99795  0.001
C  C161  1  0.25372563  0.32176005  0.20817013  1  -0.088633  0.001841  -0.101931  -0.145418  0.001208  4.009811  0.001
C  C162  1  0.33670627  0.37815381  0.19758324  1  -0.00953  0.000282  -0.007756  0.050711  8.9e-05  4.062608  0.0
C  C163  1  0.40680350  0.42751925  0.25261553  1  0.027907  0.000456  -0.086045  -0.113303  0.000202  3.965084  0.0
C  C164  1  0.39293088  0.42261389  0.31518439  1  -0.030064  -6e-06  -0.081336  -0.07754  -0.000163  3.961548  0.0
C  C165  1  0.31117840  0.36498539  0.32574065  1  -0.051428  0.011014  -0.017901  -0.026187  0.007676  3.952761  0.008
C  C166  1  0.29420554  0.36424994  0.39330014  1  1.536959  -0.001133  0.194209  0.549352  -0.001579  4.247032  -0.003
C  C167  1  0.35316508  0.38872385  0.13266852  1  0.367173  0.003186  0.083941  0.107272  0.00213  4.017313  0.002
C  C168  1  0.34436954  0.36046768  0.02597963  1  0.96305  -0.000609  0.151982  0.167071  -0.00107  3.874545  0.0
C  C169  1  0.41429348  0.45719898  0.11184867  1  0.386889  0.000527  0.00635  -0.064374  0.000171  3.929237  0.001
C  C170  1  0.25592859  0.44184585  0.78231843  1  -0.04882  -1.1e-05  -0.080284  -0.08459  -0.000158  3.963966  0.0
C  C171  1  0.18146277  0.42950356  0.71976090  1  -0.008246  0.000574  -0.095606  -0.133348  0.000341  3.995373  0.0
C  C172  1  0.09410384  0.49395344  0.69777783  1  0.045702  0.000261  -0.006759  0.048823  0.000101  4.061032  0.0
C  C173  1  0.08418210  0.57214947  0.74027562  1  0.00205  0.000872  -0.083693  -0.118927  0.000553  3.957137  0.001
C  C174  1  0.16020402  0.58590531  0.80187724  1  -0.083417  0.001015  -0.078631  -0.084872  0.000474  3.977967  0.001
C  C175  1  0.24732929  0.52126392  0.82351658  1  -0.031425  0.010227  -0.014182  -0.023898  0.007167  3.947209  0.008
C  C176  1  0.33271930  0.54133342  0.88816585  1  1.554925  -0.001588  0.200038  0.559375  -0.002202  4.223188  -0.004
C  C177  1  0.01267640  0.48055307  0.63387646  1  0.35324  0.002698  0.086298  0.112165  0.001843  4.013411  0.002
C  C178  1  0.91019486  0.51654809  0.61234115  1  0.357822  0.000338  0.007345  -0.063881  -7.8e-05  3.924898  0.001
C  C179  1  0.92882118  0.42582374  0.53075793  1  1.007986  -0.001517  0.146192  0.154402  -0.001942  3.935391  0.0
C  C180  1  0.67695813  0.16823826  0.79730660  1  -0.119568  0.000504  -0.089822  -0.087828  0.000345  3.986637  0.0
C  C181  1  0.63783688  0.21406496  0.73535410  1  0.033714  0.000402  -0.098183  -0.137657  0.000198  3.972737  0.0
C  C182  1  0.55622590  0.28503790  0.72376169  1  0.012724  0.000391  -0.00539  0.058156  0.000175  4.048669  0.0
C  C183  1  0.51991472  0.31316473  0.77761024  1  -0.012787  0.000625  -0.092551  -0.133642  0.000399  3.985501  0.001
C  C184  1  0.55956919  0.26800792  0.83968081  1  -0.076331  0.000861  -0.080658  -0.082463  0.000417  3.973302  0.001
C  C185  1  0.63666754  0.19276750  0.84965251  1  0.030527  0.006315  -0.023139  -0.037747  0.004529  3.973697  0.005
C  C186  1  0.66593054  0.13289018  0.91250599  1  1.513003  -0.001152  0.187966  0.55133  -0.001702  4.212614  -0.003
C  C187  1  0.50786914  0.32577672  0.65735739  1  0.386647  0.00325  0.08703  0.113333  0.002149  4.001907  0.003
C  C188  1  0.42292732  0.39032346  0.63322099  1  0.317055  0.00166  -0.010414  -0.111702  0.001289  3.981394  0.002
C  C189  1  0.47847034  0.35163172  0.54847011  1  0.97402  -0.001854  0.158507  0.184418  -0.002333  3.86887  -0.001
C  C190  1  0.75762525  0.81355478  0.22816453  1  -0.006689  0.001369  -0.087729  -0.097034  0.000713  3.998064  0.001
C  C191  1  0.74627979  0.82176044  0.29183060  1  -0.088541  0.001841  -0.101912  -0.145336  0.001208  4.009773  0.001
C  C192  1  0.66329837  0.87815212  0.30242013  1  -0.009551  0.000282  -0.007774  0.05078  8.9e-05  4.062551  0.0
C  C193  1  0.59319809  0.92751848  0.24738860  1  0.028087  0.000456  -0.0861  -0.113353  0.000202  3.964942  0.0
C  C194  1  0.60707004  0.92261758  0.18481628  1  -0.029936  -6e-06  -0.08125  -0.077464  -0.000163  3.961289  0.0
C  C195  1  0.68882961  0.86498968  0.17426245  1  -0.051157  0.011017  -0.017911  -0.025925  0.007678  3.952341  0.008
C  C196  1  0.70580567  0.86424973  0.10670217  1  1.53684  -0.001133  0.194084  0.549032  -0.001578  4.247685  -0.003
C  C197  1  0.64683705  0.88872144  0.36733338  1  0.367483  0.003187  0.084019  0.107281  0.00213  4.017235  0.002
C  C198  1  0.65563451  0.86047088  0.47402507  1  0.963141  -0.000609  0.151964  0.167009  -0.001071  3.874396  0.0
C  C199  1  0.58570778  0.95719870  0.38815203  1  0.386343  0.000526  0.006314  -0.064488  0.00017  3.929354  0.001
C  C200  1  0.74407666  0.94186134  0.71767698  1  -0.047419  -1.1e-05  -0.080278  -0.08482  -0.000158  3.964339  0.0
C  C201  1  0.81854108  0.92951882  0.78023282  1  -0.008442  0.000574  -0.095464  -0.133173  0.000341  3.995577  0.0
C  C202  1  0.90589589  0.99396617  0.80222071  1  0.045695  0.000261  -0.006841  0.048755  0.000101  4.061132  0.0
C  C203  1  0.91581835  0.07216762  0.75972402  1  0.002612  0.000872  -0.083652  -0.118699  0.000553  3.956846  0.001
C  C204  1  0.83979942  0.08592222  0.69812250  1  -0.083438  0.001015  -0.078674  -0.085183  0.000474  3.97792  0.001
C  C205  1  0.75267746  0.02128336  0.67647913  1  -0.032056  0.010227  -0.014114  -0.02363  0.007167  3.947104  0.008
C  C206  1  0.66729277  0.04135322  0.61182946  1  1.554908  -0.001584  0.20017  0.559505  -0.002199  4.222693  -0.004
C  C207  1  0.98732270  0.98056399  0.86612244  1  0.35347  0.002698  0.086372  0.112195  0.001843  4.013615  0.002
C  C208  1  0.08980388  0.01656252  0.88766059  1  0.358686  0.000338  0.007224  -0.064055  -7.8e-05  3.925144  0.001
C  C209  1  0.07117544  0.92582903  0.96924149  1  1.007784  -0.001516  0.145966  0.15416  -0.001942  3.935479  0.0
N  N210  1  0.14052613  0.51736482  0.45122145  1  -1.163235  0.061659  -0.371252  -0.291323  0.041203  3.656494  0.054
N  N211  1  0.59172833  0.56130135  0.95354299  1  -1.209237  0.075895  -0.380405  -0.28779  0.050799  3.660433  0.066
N  N212  1  0.40572693  0.09454688  0.06576176  1  -1.194606  0.074488  -0.384678  -0.319251  0.04957  3.686368  0.065
N  N213  1  0.54066569  0.19719367  0.10229917  1  -1.277028  0.002435  -0.360264  -0.225391  0.001317  3.578648  0.002
N  N214  1  0.69049494  0.67085678  0.92304833  1  -1.270252  0.002679  -0.375535  -0.24822  0.001391  3.658402  0.002
N  N215  1  0.97811153  0.57744812  0.41885865  1  -1.251171  0.001952  -0.374906  -0.252081  0.000942  3.659597  0.001
N  N216  1  0.85947771  0.01736622  0.04877836  1  -1.163091  0.061658  -0.371193  -0.291315  0.041202  3.656193  0.054
N  N217  1  0.40827620  0.06130260  0.54645842  1  -1.209294  0.075897  -0.380432  -0.287947  0.0508  3.660611  0.066
N  N218  1  0.59426866  0.59454639  0.43424204  1  -1.194205  0.074491  -0.384652  -0.319271  0.049573  3.686548  0.065
N  N219  1  0.45933024  0.69719181  0.39769982  1  -1.276982  0.002436  -0.3603  -0.225436  0.001317  3.578777  0.002
N  N220  1  0.30950096  0.17085310  0.57695553  1  -1.270151  0.00268  -0.375481  -0.248119  0.001392  3.658288  0.002
N  N221  1  0.02189715  0.07745437  0.08113824  1  -1.250889  0.001952  -0.374906  -0.252104  0.000942  3.659354  0.001
N  N222  1  0.85946579  0.48262891  0.54877673  1  -1.162658  0.061658  -0.371224  -0.291297  0.041201  3.656347  0.054
N  N223  1  0.40826914  0.43869983  0.04645677  1  -1.209295  0.0759  -0.380405  -0.28782  0.050802  3.660566  0.066
N  N224  1  0.59427288  0.90545132  0.93424084  1  -1.194583  0.074485  -0.384619  -0.319335  0.04957  3.686557  0.065
N  N225  1  0.45933417  0.80280974  0.89770058  1  -1.27725  0.002435  -0.360224  -0.225333  0.001317  3.578679  0.002
N  N226  1  0.30950248  0.32914216  0.07695427  1  -1.270248  0.00268  -0.375516  -0.248155  0.001392  3.658449  0.002
N  N227  1  0.02188363  0.42254486  0.58113636  1  -1.250901  0.001952  -0.374951  -0.252157  0.000942  3.659489  0.001
N  N228  1  0.14053005  0.98263868  0.95122534  1  -1.163066  0.061657  -0.371112  -0.291095  0.0412  3.656185  0.054
N  N229  1  0.59173318  0.93870156  0.45354322  1  -1.209188  0.075907  -0.380416  -0.287708  0.050807  3.660618  0.066
N  N230  1  0.40572481  0.40545777  0.56575835  1  -1.194455  0.074494  -0.384679  -0.319349  0.049576  3.686602  0.065
N  N231  1  0.54066325  0.30281161  0.60229962  1  -1.276992  0.002436  -0.360285  -0.225447  0.001317  3.578369  0.002
N  N232  1  0.69050279  0.82914211  0.42304928  1  -1.270357  0.002681  -0.375557  -0.248136  0.001392  3.658129  0.002
N  N233  1  0.97811547  0.92255203  0.91886071  1  -1.251044  0.001952  -0.374904  -0.252035  0.000942  3.659596  0.001
O  O234  1  0.73177473  0.44125122  0.41610460  1  -1.117403  0.127896  -0.34555  -0.565199  0.081275  2.266734  0.114
O  O235  1  0.62423972  0.35043131  0.45767226  1  -1.167894  0.00313  -0.32394  -0.547887  0.001224  2.142306  0.003
O  O236  1  0.67152251  0.55473057  0.57301017  1  -1.101328  0.129089  -0.331468  -0.528423  0.08195  2.348691  0.116
O  O237  1  0.75317019  0.70580469  0.58871738  1  -1.171883  0.002897  -0.344016  -0.576419  0.000766  2.110564  0.003
O  O238  1  0.60760641  0.53412196  0.08659957  1  -1.110782  0.120803  -0.323454  -0.530339  0.077122  2.312959  0.11
O  O239  1  0.65699928  0.37258956  0.08698064  1  -1.178995  0.001234  -0.329838  -0.579532  -0.000384  2.148598  0.002
O  O240  1  0.26821156  0.94125299  0.08389886  1  -1.117991  0.127896  -0.345588  -0.565336  0.081275  2.266862  0.114
O  O241  1  0.37574942  0.85044092  0.04232758  1  -1.167694  0.003131  -0.324017  -0.548044  0.001224  2.142297  0.003
O  O242  1  0.32847407  0.05474074  0.92699538  1  -1.101612  0.129081  -0.331504  -0.528428  0.081944  2.348625  0.116
O  O243  1  0.24682616  0.20581805  0.91127939  1  -1.171892  0.002902  -0.343989  -0.576601  0.00077  2.110317  0.003
O  O244  1  0.39240118  0.03413443  0.41340097  1  -1.110125  0.120854  -0.323478  -0.530371  0.077153  2.312922  0.11
O  O245  1  0.34301426  0.87260460  0.41301926  1  -1.17854  0.001229  -0.32969  -0.579245  -0.000389  2.149385  0.002
O  O246  1  0.26821958  0.55875070  0.58389357  1  -1.117507  0.127891  -0.345531  -0.565149  0.081272  2.266704  0.114
O  O247  1  0.37573406  0.64958924  0.54231566  1  -1.167772  0.003133  -0.324003  -0.547989  0.001226  2.142031  0.003
O  O248  1  0.32846936  0.44524975  0.42699085  1  -1.10154  0.129074  -0.331607  -0.528525  0.08194  2.348522  0.116
O  O249  1  0.24679080  0.29418680  0.41127276  1  -1.172477  0.002903  -0.343966  -0.576635  0.000771  2.110084  0.003
O  O250  1  0.39239027  0.46586357  0.91339955  1  -1.110218  0.120882  -0.323445  -0.530368  0.07717  2.312709  0.11
O  O251  1  0.34301108  0.62739448  0.91301072  1  -1.1788  0.001227  -0.329621  -0.579262  -0.00039  2.149552  0.002
O  O252  1  0.73178435  0.05874297  0.91609915  1  -1.117907  0.127852  -0.345504  -0.565028  0.081251  2.266971  0.114
O  O253  1  0.62423136  0.14954387  0.95766981  1  -1.167442  0.003139  -0.324006  -0.548106  0.00123  2.141481  0.003
O  O254  1  0.67154003  0.94525149  0.07300958  1  -1.101398  0.129106  -0.331577  -0.528437  0.081959  2.348517  0.116
O  O255  1  0.75321647  0.79418835  0.08873360  1  -1.172594  0.0029  -0.343814  -0.576423  0.000768  2.110697  0.003
O  O256  1  0.60762184  0.96589208  0.58659576  1  -1.110601  0.120829  -0.323479  -0.530338  0.077139  2.312628  0.11
O  O257  1  0.65701023  0.12742266  0.58698395  1  -1.178612  0.001229  -0.329827  -0.579532  -0.000388  2.149165  0.002
