# generated using pymatgen
data_Zn3H22C34(NO6)2
_symmetry_space_group_name_H-M   'P 1'
_cell_length_a   11.70007244
_cell_length_b   17.15407169
_cell_length_c   21.51029074
_cell_angle_alpha   90.00003667
_cell_angle_beta   90.00018453
_cell_angle_gamma   105.38495121
_symmetry_Int_Tables_number   1
_chemical_formula_structural   Zn3H22C34(NO6)2
_chemical_formula_sum   'Zn12 H88 C136 N8 O48'
_cell_volume   4162.49253905
_cell_formula_units_Z   4
loop_
 _symmetry_equiv_pos_site_id
 _symmetry_equiv_pos_as_xyz
  1  'x, y, z'
loop_
 _atom_site_type_symbol
 _atom_site_label
 _atom_site_symmetry_multiplicity
 _atom_site_fract_x
 _atom_site_fract_y
 _atom_site_fract_z
 _atom_site_occupancy
 _atom_site_pbe_bader_charge
 _atom_site_pbe_bader_spin_density
 _atom_site_pbe_cm5_charge
 _atom_site_pbe_ddec_charge
 _atom_site_pbe_ddec_spin_density
 _atom_site_pbe_ddec_sum_bond_order
 _atom_site_pbe_magmom
Zn  Zn0  1  0.17649349  0.27230101  0.43072987  1  1.41006  0  0.690155  1.013002  0  2.268675  0
Zn  Zn1  1  0.32350682  0.72769913  0.93072941  1  1.410067  0  0.690127  1.012942  0  2.268804  0
Zn  Zn2  1  0.82350823  0.72769815  0.56927262  1  1.409951  0  0.690141  1.012962  0  2.268772  0
Zn  Zn3  1  0.67649148  0.27230006  0.06926983  1  1.410024  0  0.690182  1.013048  0  2.26866  0
Zn  Zn4  1  0.35554581  0.16883854  0.37926394  1  1.281188  0  0.684138  0.826501  0  2.332533  0
Zn  Zn5  1  0.14445415  0.83116150  0.87926275  1  1.281284  0  0.684162  0.826506  0  2.332536  0
Zn  Zn6  1  0.64445310  0.83116004  0.62073762  1  1.281355  0  0.684179  0.826592  0  2.332423  0
Zn  Zn7  1  0.85554682  0.16884010  0.12073603  1  1.281265  0  0.684168  0.826518  0  2.332528  0
Zn  Zn8  1  0.93425147  0.63214404  0.46619319  1  1.278807  0  0.687696  0.825997  0  2.344907  0
Zn  Zn9  1  0.56574456  0.36785622  0.96619162  1  1.278787  0  0.687677  0.82595  0  2.344943  0
Zn  Zn10  1  0.06574854  0.36785514  0.53380651  1  1.27882  0  0.687668  0.825959  0  2.34481  0
Zn  Zn11  1  0.43425423  0.63214417  0.03380669  1  1.2788  0  0.687653  0.825957  0  2.344877  0
H  H12  1  0.59491591  0.20885622  0.32616771  1  0.105821  0  0.123077  0.100472  0  1.007633  0
H  H13  1  0.90508040  0.79114678  0.82616835  1  0.105945  0  0.123058  0.100304  0  1.007716  0
H  H14  1  0.40508496  0.79114295  0.67383245  1  0.105802  0  0.123097  0.100497  0  1.00759  0
H  H15  1  0.09491888  0.20885482  0.17383042  1  0.105906  0  0.123088  0.100391  0  1.007685  0
H  H16  1  0.73287783  0.13471404  0.27970215  1  0.120838  0  0.112348  0.12481  0  1.016571  0
H  H17  1  0.76711937  0.86529190  0.77970444  1  0.120898  0  0.112369  0.124811  0  1.016615  0
H  H18  1  0.26712084  0.86528394  0.72029755  1  0.120817  0  0.112351  0.124821  0  1.016564  0
H  H19  1  0.23287881  0.13470911  0.22029480  1  0.120931  0  0.112336  0.124761  0  1.016518  0
H  H20  1  0.68057622  0.98320781  0.28933818  1  0.104125  0  0.117156  0.110904  0  0.969762  0
H  H21  1  0.81942470  0.01679873  0.78933919  1  0.103958  0  0.117172  0.110935  0  0.969785  0
H  H22  1  0.31942099  0.01679078  0.71066153  1  0.104114  0  0.117179  0.110936  0  0.969741  0
H  H23  1  0.18057153  0.98320169  0.21066005  1  0.103734  0  0.117151  0.11086  0  0.969784  0
H  H24  1  0.49023074  0.91234605  0.34337259  1  0.070986  0  0.116406  0.120299  0  0.979294  0
H  H25  1  0.00977263  0.08765874  0.84337310  1  0.070866  0  0.116432  0.120342  0  0.9792  0
H  H26  1  0.50976671  0.08765314  0.65662804  1  0.071006  0  0.1164  0.120279  0  0.97935  0
H  H27  1  0.99022422  0.91234106  0.15662660  1  0.070863  0  0.116411  0.120278  0  0.979254  0
H  H28  1  0.35949196  0.99584810  0.38378432  1  0.137329  0  0.124205  0.101335  0  0.991494  0
H  H29  1  0.14050876  0.00415376  0.88378502  1  0.137385  0  0.124212  0.101321  0  0.991465  0
H  H30  1  0.64050744  0.00415169  0.61621678  1  0.13741  0  0.124204  0.101335  0  0.9915  0
H  H31  1  0.85949027  0.99584724  0.11621515  1  0.137363  0  0.12421  0.101356  0  0.991471  0
H  H32  1  0.88864212  0.63763026  0.33003507  1  0.109177  0  0.124357  0.091574  0  0.967124  0
H  H33  1  0.61135775  0.36237092  0.83003590  1  0.109229  0  0.124327  0.091571  0  0.967014  0
H  H34  1  0.11135302  0.36236955  0.66996557  1  0.10954  0  0.12434  0.091574  0  0.96707  0
H  H35  1  0.38864032  0.63762767  0.16996334  1  0.109226  0  0.124323  0.091564  0  0.967012  0
H  H36  1  0.95615642  0.58270493  0.23290207  1  0.097594  0  0.110033  0.112864  0  1.006205  0
H  H37  1  0.54385023  0.41729540  0.73290049  1  0.09754  0  0.109974  0.112804  0  1.006228  0
H  H38  1  0.04384200  0.41729669  0.76709810  1  0.097646  0  0.110022  0.112834  0  1.006256  0
H  H39  1  0.45614954  0.58270317  0.26709829  1  0.097571  0  0.10998  0.112829  0  1.006229  0
H  H40  1  0.10801829  0.50332835  0.24207366  1  0.078172  0  0.10783  0.09622  0  1.026893  0
H  H41  1  0.39198915  0.49667318  0.74206808  1  0.078173  0  0.107798  0.096129  0  1.026941  0
H  H42  1  0.89198122  0.49667386  0.75792511  1  0.078189  0  0.107837  0.096226  0  1.026932  0
H  H43  1  0.60800599  0.50332239  0.25792977  1  0.078285  0  0.107766  0.096142  0  1.026982  0
H  H44  1  0.18542710  0.48230655  0.34806206  1  0.097101  0  0.11451  0.126062  0  1.002077  0
H  H45  1  0.31457277  0.51769584  0.84805543  1  0.097096  0  0.114511  0.126017  0  1.001886  0
H  H46  1  0.81457314  0.51769747  0.65193671  1  0.097037  0  0.114523  0.126094  0  1.002054  0
H  H47  1  0.68541752  0.48229612  0.15194195  1  0.096981  0  0.114547  0.126101  0  1.002098  0
H  H48  1  0.10854423  0.54223147  0.44040618  1  0.131531  0  0.125529  0.103181  0  0.998906  0
H  H49  1  0.39144676  0.45776874  0.94040105  1  0.131651  0  0.125585  0.103295  0  0.998889  0
H  H50  1  0.89145638  0.45777134  0.55959306  1  0.131498  0  0.125531  0.103175  0  0.998927  0
H  H51  1  0.60854474  0.54222624  0.05959726  1  0.131569  0  0.125561  0.103242  0  0.998906  0
H  H52  1  0.88493379  0.08336629  0.41821644  1  0.080806  0  0.10954  0.118565  0  0.987719  0
H  H53  1  0.61506351  0.91663144  0.91821756  1  0.080827  0  0.109577  0.118631  0  0.987694  0
H  H54  1  0.11506391  0.91663351  0.58178280  1  0.080847  0  0.109535  0.118554  0  0.987758  0
H  H55  1  0.38494332  0.08336770  0.08178586  1  0.080867  0  0.109562  0.118625  0  0.987751  0
H  H56  1  0.71223642  0.96322071  0.43721579  1  0.078746  0  0.097615  0.094426  0  1.005757  0
H  H57  1  0.78776320  0.03677826  0.93721630  1  0.078736  0  0.097631  0.094466  0  1.005721  0
H  H58  1  0.28776396  0.03677725  0.56278531  1  0.078722  0  0.097626  0.094424  0  1.005738  0
H  H59  1  0.21224180  0.96322271  0.06278620  1  0.078787  0  0.097633  0.094444  0  1.005809  0
H  H60  1  0.74704984  0.82745706  0.45191015  1  0.093509  0  0.099793  0.105824  0  1.040348  0
H  H61  1  0.75295012  0.17254255  0.95190927  1  0.093532  0  0.09979  0.10582  0  1.040357  0
H  H62  1  0.25295273  0.17254211  0.54809142  1  0.093478  0  0.099808  0.10586  0  1.040328  0
H  H63  1  0.24704843  0.82745725  0.04809229  1  0.093522  0  0.099814  0.105835  0  1.04033  0
H  H64  1  0.11895270  0.92774413  0.41701795  1  0.089387  0  0.105675  0.112171  0  1.010017  0
H  H65  1  0.38104776  0.07225659  0.91701818  1  0.089372  0  0.105664  0.112176  0  1.010023  0
H  H66  1  0.88104841  0.07225565  0.58298222  1  0.089401  0  0.105667  0.112178  0  1.009981  0
H  H67  1  0.61895141  0.92773835  0.08298339  1  0.089267  0  0.105672  0.112136  0  1.01009  0
H  H68  1  0.42923988  0.47561469  0.37364259  1  0.081467  0  0.105822  0.111621  0  0.997102  0
H  H69  1  0.07075836  0.52438111  0.87364064  1  0.081495  0  0.105825  0.111618  0  0.997143  0
H  H70  1  0.57075672  0.52438451  0.62636037  1  0.081422  0  0.105833  0.111601  0  0.997082  0
H  H71  1  0.92924032  0.47561687  0.12635674  1  0.081495  0  0.105824  0.111678  0  0.997101  0
H  H72  1  0.61038458  0.59109599  0.35659559  1  0.052025  0  0.095325  0.087422  0  1.020028  0
H  H73  1  0.88961780  0.40889613  0.85659461  1  0.053023  0  0.095306  0.087365  0  1.020003  0
H  H74  1  0.38961007  0.40890261  0.64340598  1  0.052956  0  0.09536  0.087468  0  1.020131  0
H  H75  1  0.11038148  0.59110123  0.14340277  1  0.053107  0  0.095332  0.087403  0  1.01997  0
H  H76  1  0.66983574  0.69900911  0.43623476  1  0.121458  0  0.103081  0.110484  0  1.036598  0
H  H77  1  0.83017083  0.30098376  0.93623501  1  0.121516  0  0.103046  0.110469  0  1.036572  0
H  H78  1  0.33016403  0.30098947  0.56376634  1  0.121402  0  0.103097  0.110518  0  1.036523  0
H  H79  1  0.16982894  0.69901481  0.06376376  1  0.121533  0  0.103076  0.110486  0  1.03657  0
H  H80  1  0.36126138  0.58665064  0.54378903  1  0.131498  0  0.108107  0.111606  0  1.048668  0
H  H81  1  0.13874523  0.41335170  0.04378857  1  0.131424  0  0.108066  0.111565  0  1.048683  0
H  H82  1  0.63874180  0.41334791  0.45621579  1  0.131547  0  0.108126  0.111645  0  1.048714  0
H  H83  1  0.86125551  0.58664929  0.95620881  1  0.131363  0  0.108079  0.111576  0  1.048692  0
H  H84  1  0.80559154  0.43745110  0.42069202  1  0.150576  0  0.103422  0.109012  0  1.05228  0
H  H85  1  0.69440431  0.56254725  0.92069263  1  0.150532  0  0.103468  0.109101  0  1.052171  0
H  H86  1  0.19441187  0.56255230  0.57930676  1  0.150374  0  0.103444  0.109046  0  1.05224  0
H  H87  1  0.30559144  0.43745196  0.07930754  1  0.150572  0  0.103421  0.109025  0  1.052323  0
H  H88  1  0.66033219  0.45086845  0.34009884  1  0.045939  0  0.096158  0.088267  0  1.024709  0
H  H89  1  0.83965425  0.54912252  0.84009691  1  0.046006  0  0.096151  0.088211  0  1.024602  0
H  H90  1  0.33966344  0.54912833  0.65990133  1  0.045957  0  0.096148  0.088229  0  1.024599  0
H  H91  1  0.16034174  0.45087729  0.15990326  1  0.045938  0  0.096138  0.088227  0  1.024684  0
H  H92  1  0.65084036  0.37485151  0.23877987  1  0.099855  0  0.103848  0.106171  0  1.021528  0
H  H93  1  0.84915038  0.62514529  0.73877986  1  0.099737  0  0.103875  0.106229  0  1.021498  0
H  H94  1  0.34915661  0.62514648  0.76122030  1  0.099858  0  0.103856  0.106185  0  1.021512  0
H  H95  1  0.15085047  0.37485813  0.26122171  1  0.099754  0  0.10386  0.106236  0  1.021421  0
H  H96  1  0.92398496  0.27038885  0.30469597  1  0.102341  0  0.110697  0.123349  0  1.002977  0
H  H97  1  0.57601899  0.72961649  0.80469879  1  0.102297  0  0.110684  0.123283  0  1.00299  0
H  H98  1  0.07601869  0.72961516  0.69530280  1  0.102322  0  0.110683  0.123276  0  1.002986  0
H  H99  1  0.42398490  0.27038812  0.19530278  1  0.102346  0  0.110714  0.123329  0  1.002957  0
C  C100  1  0.57556263  0.14317583  0.32806817  1  0.49084  0  0.060041  0.109233  0  3.8847  0
C  C101  1  0.92443441  0.85682899  0.82806887  1  0.490937  0  0.059984  0.109322  0  3.884431  0
C  C102  1  0.42443653  0.85682335  0.67193154  1  0.490826  0  0.059997  0.10918  0  3.884747  0
C  C103  1  0.07556401  0.14317262  0.17193037  1  0.491081  0  0.060003  0.109274  0  3.884634  0
C  C104  1  0.65205314  0.10147269  0.30314155  1  -0.012167  0  -0.073908  -0.115866  0  3.92914  0
C  C105  1  0.84794422  0.89853329  0.80314307  1  -0.012226  0  -0.073891  -0.115796  0  3.928876  0
C  C106  1  0.34794663  0.89852589  0.69685816  1  -0.012174  0  -0.073965  -0.115946  0  3.929174  0
C  C107  1  0.15205420  0.10146832  0.19685524  1  -0.012398  0  -0.073931  -0.115814  0  3.928892  0
C  C108  1  0.62221091  0.01741656  0.30828927  1  -0.043686  0  -0.05552  -0.017026  0  3.961725  0
C  C109  1  0.87778819  0.98258942  0.80829182  1  -0.043604  0  -0.055567  -0.017185  0  3.961753  0
C  C110  1  0.37778825  0.98258262  0.69171183  1  -0.043325  0  -0.05545  -0.016949  0  3.961641  0
C  C111  1  0.12220938  0.01741220  0.19170789  1  -0.043266  0  -0.055506  -0.017037  0  3.961657  0
C  C112  1  0.51679554  0.97785184  0.33816768  1  0.015052  0  -0.080785  -0.139327  0  4.002348  0
C  C113  1  0.98320620  0.02215176  0.83816853  1  0.015338  0  -0.080832  -0.13932  0  4.002352  0
C  C114  1  0.48320277  0.02214735  0.66183249  1  0.01472  0  -0.08081  -0.139352  0  4.002375  0
C  C115  1  0.01679064  0.97784804  0.16183211  1  0.015625  0  -0.080795  -0.139232  0  4.002234  0
C  C116  1  0.44400670  0.02344584  0.36122192  1  0.393332  0  0.051073  0.087025  0  3.937629  0
C  C117  1  0.05599350  0.97655719  0.86122204  1  0.392644  0  0.051052  0.087009  0  3.937473  0
C  C118  1  0.55599209  0.97655456  0.63877779  1  0.393271  0  0.051058  0.087018  0  3.937542  0
C  C119  1  0.94400443  0.02344321  0.13877860  1  0.392345  0  0.051026  0.08695  0  3.937447  0
C  C120  1  0.95438970  0.60293701  0.33156276  1  0.473937  0  0.056503  0.097565  0  3.944038  0
C  C121  1  0.54560773  0.39706661  0.83156117  1  0.474056  0  0.056536  0.097615  0  3.943998  0
C  C122  1  0.04560568  0.39706341  0.66843788  1  0.473216  0  0.056518  0.097587  0  3.943871  0
C  C123  1  0.45439057  0.60293258  0.16843807  1  0.474052  0  0.056502  0.097551  0  3.943971  0
C  C124  1  0.99250291  0.57245647  0.27787081  1  -0.062436  0  -0.079997  -0.130035  0  3.986132  0
C  C125  1  0.50750330  0.42754638  0.77786684  1  -0.062719  0  -0.079904  -0.130017  0  3.986168  0
C  C126  1  0.00749405  0.42754576  0.72212936  1  -0.062092  0  -0.080019  -0.130024  0  3.986163  0
C  C127  1  0.49249719  0.57245400  0.22213240  1  -0.062706  0  -0.079893  -0.129988  0  3.9862  0
C  C128  1  0.07697669  0.52865906  0.28319628  1  -0.0482  0  -0.061225  -0.023743  0  3.957306  0
C  C129  1  0.42302763  0.47134258  0.78319121  1  -0.04816  0  -0.0612  -0.023667  0  3.957369  0
C  C130  1  0.92302222  0.47134376  0.71680342  1  -0.048147  0  -0.06125  -0.023785  0  3.957264  0
C  C131  1  0.57696533  0.52865179  0.21680757  1  -0.048316  0  -0.061304  -0.023767  0  3.957253  0
C  C132  1  0.12085695  0.51722109  0.34178967  1  0.022984  0  -0.07538  -0.122459  0  3.944077  0
C  C133  1  0.37914386  0.48277947  0.84178638  1  0.022988  0  -0.07542  -0.122336  0  3.943881  0
C  C134  1  0.87914281  0.48278172  0.65820864  1  0.022527  0  -0.075374  -0.122487  0  3.944024  0
C  C135  1  0.62084728  0.51721249  0.15821100  1  0.023166  0  -0.075277  -0.122391  0  3.943961  0
C  C136  1  0.07831622  0.54974827  0.39341237  1  0.489693  0  0.062194  0.111837  0  3.875744  0
C  C137  1  0.42167908  0.45025485  0.89340961  1  0.489483  0  0.06209  0.11168  0  3.875783  0
C  C138  1  0.92168330  0.45025394  0.60658687  1  0.49007  0  0.062187  0.111888  0  3.875806  0
C  C139  1  0.57831703  0.54974313  0.10658917  1  0.489149  0  0.062072  0.111762  0  3.875813  0
C  C140  1  0.11449835  0.08587602  0.40913081  1  1.570887  0  0.220655  0.603776  0  4.168673  0
C  C141  1  0.38549840  0.91412410  0.90913240  1  1.571434  0  0.220644  0.603775  0  4.168607  0
C  C142  1  0.88550044  0.91412438  0.59086797  1  1.571084  0  0.2206  0.603717  0  4.168743  0
C  C143  1  0.61450478  0.08587446  0.09086870  1  1.57146  0  0.220708  0.603831  0  4.168452  0
C  C144  1  0.01188317  0.01280101  0.41624869  1  0.020777  0  -0.020764  -0.047675  0  3.985603  0
C  C145  1  0.48811534  0.98719911  0.91625050  1  0.020772  0  -0.020743  -0.047618  0  3.98566  0
C  C146  1  0.98811733  0.98719938  0.58375009  1  0.020783  0  -0.020713  -0.047582  0  3.985638  0
C  C147  1  0.51188858  0.01279701  0.08375339  1  0.020141  0  -0.020731  -0.047542  0  3.985474  0
C  C148  1  0.89696035  0.02262450  0.42172638  1  -0.042016  0  -0.075985  -0.078588  0  3.949267  0
C  C149  1  0.60303855  0.97737505  0.92172844  1  -0.041986  0  -0.075892  -0.078527  0  3.94923  0
C  C150  1  0.10304075  0.97737528  0.57827425  1  -0.042102  0  -0.075885  -0.078464  0  3.949321  0
C  C151  1  0.39696585  0.02262229  0.07827405  1  -0.041724  0  -0.075924  -0.078594  0  3.949475  0
C  C152  1  0.80147684  0.95560561  0.43267106  1  -0.040737  0  -0.096119  -0.095343  0  4.033064  0
C  C153  1  0.69852360  0.04439335  0.93267189  1  -0.040857  0  -0.096255  -0.095515  0  4.033073  0
C  C154  1  0.19852355  0.04439235  0.56732910  1  -0.040752  0  -0.096249  -0.095462  0  4.033195  0
C  C155  1  0.30147604  0.95560705  0.06733014  1  -0.040993  0  -0.096183  -0.095445  0  4.03315  0
C  C156  1  0.82032937  0.87911377  0.43980532  1  -0.120733  0  -0.083866  -0.083921  0  3.951189  0
C  C157  1  0.67966990  0.12088642  0.93980475  1  -0.120776  0  -0.083816  -0.083875  0  3.95114  0
C  C158  1  0.17967259  0.12088600  0.56019671  1  -0.12084  0  -0.083865  -0.083963  0  3.951198  0
C  C159  1  0.32033145  0.87911397  0.06019774  1  -0.120586  0  -0.083927  -0.083925  0  3.951242  0
C  C160  1  0.93482669  0.86885336  0.43390406  1  -0.002974  0  -0.021312  -0.036115  0  3.979769  0
C  C161  1  0.56517181  0.13114500  0.93390283  1  -0.00284  0  -0.021291  -0.035986  0  3.979652  0
C  C162  1  0.06517308  0.13114522  0.56609611  1  -0.002828  0  -0.021268  -0.035969  0  3.979779  0
C  C163  1  0.43483015  0.86885477  0.06609827  1  -0.002813  0  -0.021242  -0.036041  0  3.979837  0
C  C164  1  0.03007970  0.93581831  0.42109313  1  0.025914  0  -0.072358  -0.094763  0  3.925182  0
C  C165  1  0.46991859  0.06418121  0.92109351  1  0.025855  0  -0.072428  -0.094909  0  3.925412  0
C  C166  1  0.96992164  0.06418207  0.57890611  1  0.025884  0  -0.072397  -0.094885  0  3.92544  0
C  C167  1  0.53008581  0.93581612  0.07890805  1  0.026229  0  -0.072402  -0.094799  0  3.925293  0
C  C168  1  0.95837513  0.78817623  0.44221450  1  1.499055  0  0.202013  0.574333  0  4.163603  0
C  C169  1  0.54162111  0.21182277  0.94221327  1  1.498589  0  0.201832  0.574009  0  4.163871  0
C  C170  1  0.04162878  0.21182414  0.55778474  1  1.499025  0  0.201848  0.574028  0  4.163785  0
C  C171  1  0.45837586  0.78817521  0.05778504  1  1.498469  0  0.201909  0.574263  0  4.163625  0
C  C172  1  0.28102496  0.45256476  0.47246957  1  1.542893  0  0.216825  0.586411  0  4.190258  0
C  C173  1  0.21897649  0.54743546  0.97246697  1  1.542581  0  0.21681  0.586558  0  4.190118  0
C  C174  1  0.71897567  0.54743381  0.52753292  1  1.54285  0  0.216862  0.586517  0  4.190206  0
C  C175  1  0.78102230  0.45256494  0.02753042  1  1.542926  0  0.216885  0.586445  0  4.19027  0
C  C176  1  0.38381754  0.52402152  0.45966511  1  -0.018278  0  -0.021083  -0.049213  0  3.988834  0
C  C177  1  0.11618943  0.47597562  0.95966229  1  -0.018068  0  -0.0211  -0.04933  0  3.988928  0
C  C178  1  0.61618539  0.47597643  0.54033832  1  -0.018039  0  -0.021115  -0.049388  0  3.989019  0
C  C179  1  0.88381181  0.52402234  0.04033509  1  -0.018292  0  -0.021098  -0.04911  0  3.988831  0
C  C180  1  0.45392682  0.52586965  0.40639997  1  -0.033299  0  -0.081058  -0.090859  0  3.970864  0
C  C181  1  0.04607553  0.47412740  0.90639749  1  -0.033207  0  -0.081038  -0.090784  0  3.970577  0
C  C182  1  0.54607295  0.47412892  0.59360346  1  -0.033906  0  -0.081085  -0.090756  0  3.970692  0
C  C183  1  0.95392375  0.52586997  0.09359943  1  -0.033225  0  -0.081086  -0.091047  0  3.970929  0
C  C184  1  0.55456337  0.58991800  0.39738578  1  -0.034209  0  -0.097068  -0.096637  0  4.034537  0
C  C185  1  0.94543916  0.41007602  0.89738490  1  -0.035245  0  -0.097036  -0.096563  0  4.03418  0
C  C186  1  0.44543554  0.41008058  0.60261764  1  -0.034691  0  -0.097063  -0.096702  0  4.034653  0
C  C187  1  0.05455720  0.58992257  0.10261248  1  -0.035188  0  -0.097072  -0.096589  0  4.034493  0
C  C188  1  0.58758621  0.65154507  0.44156003  1  -0.088443  0  -0.079042  -0.076805  0  3.933004  0
C  C189  1  0.91242234  0.34844841  0.94155813  1  -0.088479  0  -0.078974  -0.076776  0  3.932753  0
C  C190  1  0.41241673  0.34845289  0.55844293  1  -0.088393  0  -0.079076  -0.07689  0  3.93307  0
C  C191  1  0.08757852  0.65155076  0.05844064  1  -0.088499  0  -0.078967  -0.076713  0  3.932747  0
C  C192  1  0.51693899  0.65046098  0.49430170  1  -0.024935  0  -0.01691  -0.029931  0  3.967377  0
C  C193  1  0.98306466  0.34953869  0.99430318  1  -0.025112  0  -0.01689  -0.029932  0  3.967248  0
C  C194  1  0.48306273  0.34953818  0.50570126  1  -0.024921  0  -0.016967  -0.029918  0  3.967234  0
C  C195  1  0.01693413  0.65046171  0.00569653  1  -0.02518  0  -0.016931  -0.029947  0  3.967187  0
C  C196  1  0.41464339  0.58714111  0.50248187  1  -0.018437  0  -0.06954  -0.087413  0  3.908042  0
C  C197  1  0.08536185  0.41286055  0.00247946  1  -0.018392  0  -0.069577  -0.087409  0  3.908122  0
C  C198  1  0.58535979  0.41285745  0.49752249  1  -0.018412  0  -0.069535  -0.087376  0  3.908102  0
C  C199  1  0.91463804  0.58714044  0.99751839  1  -0.018322  0  -0.069558  -0.087475  0  3.908039  0
C  C200  1  0.54774850  0.71355037  0.54379108  1  1.532204  0  0.206245  0.575544  0  4.156432  0
C  C201  1  0.95226188  0.28645137  0.04379390  1  1.532445  0  0.206432  0.57579  0  4.156178  0
C  C202  1  0.45225626  0.28644999  0.45621095  1  1.532282  0  0.206327  0.57567  0  4.156158  0
C  C203  1  0.04773971  0.71354962  0.95620580  1  1.532452  0  0.206398  0.575775  0  4.156146  0
C  C204  1  0.95440392  0.34074635  0.41790787  1  1.550447  0  0.216803  0.589093  0  4.180685  0
C  C205  1  0.54559909  0.65925923  0.91791014  1  1.5503  0  0.21688  0.589295  0  4.180492  0
C  C206  1  0.04560144  0.65925765  0.58208997  1  1.550246  0  0.216859  0.58916  0  4.180684  0
C  C207  1  0.45439933  0.34074238  0.08209003  1  1.550156  0  0.216874  0.589179  0  4.180544  0
C  C208  1  0.87156151  0.35209966  0.36796985  1  -0.020057  0  -0.018991  -0.038657  0  3.978551  0
C  C209  1  0.62843958  0.64790401  0.86797178  1  -0.020039  0  -0.018904  -0.038738  0  3.97852  0
C  C210  1  0.12843801  0.64790255  0.63202846  1  -0.020059  0  -0.018942  -0.038785  0  3.978687  0
C  C211  1  0.37156127  0.35209941  0.13202885  1  -0.019731  0  -0.018921  -0.038718  0  3.978575  0
C  C212  1  0.79910695  0.40409656  0.37719840  1  -0.058279  0  -0.077196  -0.074069  0  3.939256  0
C  C213  1  0.70088947  0.59590170  0.87719951  1  -0.058626  0  -0.077175  -0.074025  0  3.939134  0
C  C214  1  0.20089184  0.59590384  0.62280084  1  -0.058139  0  -0.077211  -0.07405  0  3.939361  0
C  C215  1  0.29910981  0.40409991  0.12280159  1  -0.058666  0  -0.077236  -0.074074  0  3.939297  0
C  C216  1  0.71930684  0.41238265  0.33114875  1  -0.039941  0  -0.094397  -0.089816  0  4.027974  0
C  C217  1  0.78068671  0.58761553  0.83114767  1  -0.03965  0  -0.094473  -0.08984  0  4.027978  0
C  C218  1  0.28069195  0.58761775  0.66885142  1  -0.039931  0  -0.094403  -0.089808  0  4.027975  0
C  C219  1  0.21931195  0.41238668  0.16885250  1  -0.039483  0  -0.094417  -0.089857  0  4.027984  0
C  C220  1  0.71339167  0.37044840  0.27531685  1  -0.063752  0  -0.081434  -0.08937  0  3.958043  0
C  C221  1  0.78660430  0.62955026  0.77531766  1  -0.063524  0  -0.081402  -0.089364  0  3.957938  0
C  C222  1  0.28660882  0.62955199  0.72468239  1  -0.063732  0  -0.081449  -0.089391  0  3.957958  0
C  C223  1  0.21339631  0.37045255  0.22468390  1  -0.063801  0  -0.081379  -0.089296  0  3.957816  0
C  C224  1  0.78825447  0.31976029  0.26522638  1  -0.051391  0  -0.023319  -0.052382  0  3.996751  0
C  C225  1  0.71174483  0.68024257  0.76522848  1  -0.051562  0  -0.023526  -0.052701  0  3.996997  0
C  C226  1  0.21174699  0.68024252  0.73477100  1  -0.051525  0  -0.023423  -0.052519  0  3.996937  0
C  C227  1  0.28826016  0.31976264  0.23477215  1  -0.051128  0  -0.023396  -0.052588  0  3.996821  0
C  C228  1  0.86653549  0.31019804  0.31183019  1  -0.000641  0  -0.074341  -0.102571  0  3.92711  0
C  C229  1  0.63346669  0.68980490  0.81183216  1  -0.000476  0  -0.074267  -0.102284  0  3.927127  0
C  C230  1  0.13346573  0.68980416  0.68816858  1  -0.000478  0  -0.074265  -0.10227  0  3.927126  0
C  C231  1  0.36653611  0.31019911  0.18816941  1  -0.000953  0  -0.074316  -0.10234  0  3.927048  0
C  C232  1  0.78262002  0.27608784  0.20455494  1  1.560916  0  0.215456  0.589152  0  4.192539  0
C  C233  1  0.71738144  0.72391489  0.70455708  1  1.560785  0  0.215421  0.589168  0  4.192471  0
C  C234  1  0.21738254  0.72391557  0.79544290  1  1.560817  0  0.215402  0.589077  0  4.192593  0
C  C235  1  0.28262160  0.27608973  0.29544402  1  1.56065  0  0.215433  0.589126  0  4.192455  0
N  N236  1  0.47311217  0.10471810  0.35622622  1  -1.228789  0  -0.327048  -0.228671  0  3.570059  0
N  N237  1  0.02688471  0.89528311  0.85622624  1  -1.228479  0  -0.32696  -0.22857  0  3.569661  0
N  N238  1  0.52688784  0.89528107  0.64377442  1  -1.228886  0  -0.327017  -0.228639  0  3.569975  0
N  N239  1  0.97311384  0.10471668  0.14377346  1  -1.228504  0  -0.326952  -0.228589  0  3.569785  0
N  N240  1  0.99619932  0.59154266  0.38819290  1  -1.245218  0  -0.324686  -0.2185  0  3.573496  0
N  N241  1  0.50379776  0.40845925  0.88819031  1  -1.245034  0  -0.324636  -0.218543  0  3.573542  0
N  N242  1  0.00379800  0.40845835  0.61180727  1  -1.245157  0  -0.324646  -0.218529  0  3.573334  0
N  N243  1  0.49620006  0.59153872  0.11180800  1  -1.244675  0  -0.324615  -0.218475  0  3.57341  0
O  O244  1  0.21437026  0.07483945  0.39232266  1  -1.182048  0  -0.327359  -0.564284  0  2.333831  0
O  O245  1  0.28562639  0.92516063  0.89232362  1  -1.182293  0  -0.327376  -0.564273  0  2.333741  0
O  O246  1  0.78563000  0.92516033  0.60767705  1  -1.182243  0  -0.327365  -0.56431  0  2.333898  0
O  O247  1  0.71437850  0.07483791  0.10767469  1  -1.182339  0  -0.327465  -0.564405  0  2.333701  0
O  O248  1  0.09446398  0.15319197  0.42109950  1  -1.176083  0  -0.305392  -0.549104  0  2.401134  0
O  O249  1  0.40553091  0.84680757  0.92110156  1  -1.176438  0  -0.305372  -0.549093  0  2.401157  0
O  O250  1  0.90553518  0.84680721  0.57889974  1  -1.17606  0  -0.305332  -0.549047  0  2.401118  0
O  O251  1  0.59446814  0.15318919  0.07889908  1  -1.176282  0  -0.305367  -0.549103  0  2.401131  0
O  O252  1  0.05323840  0.77477823  0.42571927  1  -1.149306  0  -0.319874  -0.525518  0  2.07184  0
O  O253  1  0.44675713  0.22522071  0.92571876  1  -1.148901  0  -0.319772  -0.525356  0  2.072097  0
O  O254  1  0.94676624  0.22522395  0.57428043  1  -1.149178  0  -0.319772  -0.525386  0  2.071937  0
O  O255  1  0.55324118  0.77477423  0.07427816  1  -1.148726  0  -0.319809  -0.52551  0  2.071806  0
O  O256  1  0.87171628  0.73020298  0.46707739  1  -1.169757  0  -0.334187  -0.606479  0  2.4244  0
O  O257  1  0.62828183  0.26979606  0.96707588  1  -1.169663  0  -0.334113  -0.606363  0  2.424417  0
O  O258  1  0.12828557  0.26979437  0.53292045  1  -1.169832  0  -0.334172  -0.606381  0  2.424451  0
O  O259  1  0.37171197  0.73020255  0.03292475  1  -1.16974  0  -0.334158  -0.606477  0  2.424457  0
O  O260  1  0.26672500  0.39292297  0.43584103  1  -1.173114  0  -0.309377  -0.563719  0  2.396753  0
O  O261  1  0.23327266  0.60707902  0.93583894  1  -1.172837  0  -0.309342  -0.563772  0  2.396644  0
O  O262  1  0.73327928  0.60707619  0.56416240  1  -1.173073  0  -0.309372  -0.563715  0  2.3968  0
O  O263  1  0.76672125  0.39292201  0.06415890  1  -1.173107  0  -0.309397  -0.563726  0  2.396809  0
O  O264  1  0.21538886  0.45678756  0.51936707  1  -1.179232  0  -0.316308  -0.542484  0  2.343155  0
O  O265  1  0.28461113  0.54321356  0.01936414  1  -1.179429  0  -0.316283  -0.542525  0  2.343224  0
O  O266  1  0.78461115  0.54321162  0.48063496  1  -1.17948  0  -0.316309  -0.542538  0  2.343136  0
O  O267  1  0.71538766  0.45678684  0.98063231  1  -1.179269  0  -0.316337  -0.542538  0  2.343193  0
O  O268  1  0.65677507  0.76086988  0.54545272  1  -1.173479  0  -0.325978  -0.592308  0  2.417611  0
O  O269  1  0.84323361  0.23913187  0.04545393  1  -1.173411  0  -0.326021  -0.592343  0  2.417642  0
O  O270  1  0.34323030  0.23912988  0.45454884  1  -1.173435  0  -0.325973  -0.592293  0  2.417611  0
O  O271  1  0.15676651  0.76086973  0.95454438  1  -1.17344  0  -0.325958  -0.59229  0  2.417591  0
O  O272  1  0.47227211  0.72198462  0.58239254  1  -1.156139  0  -0.301561  -0.515156  0  2.138773  0
O  O273  1  0.02773402  0.27802023  0.08239880  1  -1.156434  0  -0.301709  -0.515342  0  2.138613  0
O  O274  1  0.52773471  0.27801877  0.41760809  1  -1.156212  0  -0.301617  -0.515279  0  2.138657  0
O  O275  1  0.97226562  0.72198016  0.91760184  1  -1.156428  0  -0.301727  -0.515367  0  2.138611  0
O  O276  1  0.96042272  0.38470447  0.46704809  1  -1.162052  0  -0.322582  -0.545333  0  2.338001  0
O  O277  1  0.53958463  0.61530057  0.96705032  1  -1.16202  0  -0.322635  -0.545463  0  2.337847  0
O  O278  1  0.03958179  0.61529953  0.53295022  1  -1.16205  0  -0.322556  -0.545324  0  2.337991  0
O  O279  1  0.46041562  0.38469921  0.03294938  1  -1.161946  0  -0.322582  -0.545335  0  2.337938  0
O  O280  1  0.01211559  0.28935609  0.40881604  1  -1.176362  0  -0.305875  -0.542659  0  2.365707  0
O  O281  1  0.48788517  0.71064764  0.90881957  1  -1.176222  0  -0.305906  -0.542712  0  2.365768  0
O  O282  1  0.98789183  0.71065092  0.59118134  1  -1.176139  0  -0.305952  -0.542703  0  2.365571  0
O  O283  1  0.51211009  0.28935036  0.09118200  1  -1.176203  0  -0.30594  -0.542719  0  2.365526  0
O  O284  1  0.84459611  0.22449577  0.20010595  1  -1.168601  0  -0.326139  -0.55617  0  2.348375  0
O  O285  1  0.65540313  0.77550575  0.70010707  1  -1.168676  0  -0.3261  -0.556174  0  2.348382  0
O  O286  1  0.15540450  0.77550704  0.79989375  1  -1.168641  0  -0.326107  -0.556165  0  2.348422  0
O  O287  1  0.34459614  0.22449586  0.29989449  1  -1.168602  0  -0.32614  -0.55618  0  2.348358  0
O  O288  1  0.71760273  0.29292528  0.16280836  1  -1.174412  0  -0.30637  -0.543148  0  2.38001  0
O  O289  1  0.78240088  0.70707917  0.66281060  1  -1.174295  0  -0.306338  -0.543094  0  2.379923  0
O  O290  1  0.28240007  0.70707873  0.83718949  1  -1.174247  0  -0.306337  -0.543057  0  2.379971  0
O  O291  1  0.21760435  0.29292665  0.33719004  1  -1.174382  0  -0.306386  -0.543147  0  2.379939  0
