# generated using pymatgen
data_Cu3H14C17O12
_symmetry_space_group_name_H-M   'P 1'
_cell_length_a   7.50410495
_cell_length_b   18.15019282
_cell_length_c   20.13623709
_cell_angle_alpha   90.00425846
_cell_angle_beta   90.00377330
_cell_angle_gamma   90.00682104
_symmetry_Int_Tables_number   1
_chemical_formula_structural   Cu3H14C17O12
_chemical_formula_sum   'Cu12 H56 C68 O48'
_cell_volume   2742.57462315
_cell_formula_units_Z   4
loop_
 _symmetry_equiv_pos_site_id
 _symmetry_equiv_pos_as_xyz
  1  'x, y, z'
loop_
 _atom_site_type_symbol
 _atom_site_label
 _atom_site_symmetry_multiplicity
 _atom_site_fract_x
 _atom_site_fract_y
 _atom_site_fract_z
 _atom_site_occupancy
 _atom_site_pbe_bader_charge
 _atom_site_pbe_bader_spin_density
 _atom_site_pbe_cm5_charge
 _atom_site_pbe_ddec_charge
 _atom_site_pbe_ddec_spin_density
 _atom_site_pbe_ddec_sum_bond_order
 _atom_site_pbe_magmom
Cu  Cu0  1  0.83336610  0.94438059  0.43522235  1  1.092883  0.584129  0.695894  0.907479  0.744196  2.150348  0.583
Cu  Cu1  1  0.83270898  0.55546373  0.06461172  1  1.094465  0.565475  0.695685  0.906584  0.720451  2.152213  0.566
Cu  Cu2  1  0.66701047  0.05543152  0.93543229  1  1.093625  0.584442  0.69622  0.908087  0.744598  2.149719  0.583
Cu  Cu3  1  0.66663559  0.44436702  0.56475943  1  1.092819  0.584125  0.69599  0.907632  0.744184  2.150652  0.583
Cu  Cu4  1  0.16668072  0.05561430  0.56474049  1  1.092731  0.584129  0.695941  0.90749  0.744179  2.150779  0.583
Cu  Cu5  1  0.16737916  0.44460499  0.93538142  1  1.092834  0.565419  0.69544  0.906394  0.720378  2.152854  0.566
Cu  Cu6  1  0.33288976  0.94443059  0.06481710  1  1.092742  -0.565421  0.695288  0.90581  -0.767107  2.153668  -0.565
Cu  Cu7  1  0.33332861  0.55560859  0.43523421  1  1.092919  0.584122  0.695926  0.90754  0.744166  2.150366  0.583
Cu  Cu8  1  0.99996978  0.49998046  0.49998703  1  1.12417  0.605112  0.670849  0.949796  0.76072  2.149883  0.602
Cu  Cu9  1  0.00139714  0.99978447  0.00022711  1  1.122121  0.590902  0.669818  0.946783  0.74031  2.150858  0.589
Cu  Cu10  1  0.50004421  0.50008524  0.99999069  1  1.121723  -0.577019  0.669279  0.945174  -0.769332  2.150303  -0.576
Cu  Cu11  1  0.50002712  0.00000579  0.49996571  1  1.123282  0.605097  0.670781  0.949613  0.760659  2.150115  0.602
H  H12  1  0.81472320  0.72676857  0.51668899  1  0.136512  0.000497  0.115937  0.133512  0.000384  0.980581  0.0
H  H13  1  0.56153557  0.62673142  0.68568704  1  0.094513  0.000393  0.108098  0.120519  0.000326  0.988546  0.0
H  H14  1  0.58669951  0.86322254  0.66910468  1  0.095397  -2.1e-05  0.104658  0.112965  -3e-05  0.993247  0.0
H  H15  1  0.37124975  0.70175219  0.75223852  1  0.045121  0.000122  0.095723  0.101374  4.2e-05  1.017612  0.0
H  H16  1  0.95145187  0.46822759  0.61342746  1  0.59214  -0.000613  0.300481  0.386297  0.001335  0.902196  0.0
H  H17  1  0.15136918  0.99338443  0.41907150  1  0.664437  0.000154  0.290292  0.391262  0.000565  0.94937  0.0
H  H18  1  0.16769149  0.91533242  0.45171067  1  0.660476  4.6e-05  0.307228  0.408135  0.000535  0.906863  0.0
H  H19  1  0.81490677  0.77310056  0.98323210  1  0.132755  0.00048  0.115966  0.133456  0.000387  0.980434  0.0
H  H20  1  0.56169159  0.87326171  0.81431004  1  0.09604  0.000379  0.108043  0.120462  0.000313  0.98877  0.0
H  H21  1  0.58680944  0.63674373  0.83069797  1  0.095024  -9e-06  0.104661  0.113037  -2.9e-05  0.993473  0.0
H  H22  1  0.37138306  0.79832454  0.74768742  1  0.044354  0.000122  0.095705  0.101335  4.1e-05  1.017478  0.0
H  H23  1  0.95187171  0.03134938  0.88695041  1  0.589727  -0.000668  0.300325  0.386349  0.00131  0.901978  0.0
H  H24  1  0.15078573  0.50642527  0.08075146  1  0.660928  0.000131  0.290907  0.391914  0.000618  0.948627  0.0
H  H25  1  0.16672445  0.58456129  0.04812420  1  0.661864  -7e-06  0.307749  0.408473  0.000516  0.90614  0.0
H  H26  1  0.68514763  0.27320165  0.01671588  1  0.135581  0.000122  0.115971  0.13369  9e-05  0.980164  0.0
H  H27  1  0.93831526  0.37335077  0.18570054  1  0.095156  0.0004  0.108253  0.120863  0.000358  0.988629  0.0
H  H28  1  0.91314097  0.13683575  0.16920373  1  0.095949  1.1e-05  0.104656  0.11309  7e-06  0.992915  0.0
H  H29  1  0.12864449  0.29838136  0.25229231  1  0.043235  0.00014  0.095531  0.100905  5.1e-05  1.017461  0.0
H  H30  1  0.54811282  0.53159599  0.11343112  1  0.592783  0.000463  0.29962  0.385878  0.000367  0.902979  0.0
H  H31  1  0.34868995  0.00660692  0.91914680  1  0.662762  -4e-06  0.290411  0.391511  0.000477  0.949007  0.0
H  H32  1  0.33270676  0.08470671  0.95177952  1  0.658772  0.000107  0.307774  0.40863  0.000609  0.905842  0.0
H  H33  1  0.68532603  0.22676658  0.48327412  1  0.136517  0.000497  0.115836  0.133243  0.000385  0.980623  0.0
H  H34  1  0.93850794  0.12676123  0.31425667  1  0.095614  0.000392  0.108144  0.120345  0.000325  0.98877  0.0
H  H35  1  0.91326450  0.36325516  0.33086299  1  0.094581  -1.9e-05  0.104713  0.113129  -2.9e-05  0.993438  0.0
H  H36  1  0.12870909  0.20180314  0.24769623  1  0.045307  -2.7e-05  0.095742  0.101103  -2.2e-05  1.017728  0.0
H  H37  1  0.54858989  0.96820821  0.38652917  1  0.591801  -0.000616  0.300461  0.386273  0.001336  0.90218  0.0
H  H38  1  0.34863241  0.49339060  0.58090943  1  0.664268  0.000155  0.290191  0.391061  0.000565  0.949617  0.0
H  H39  1  0.33227330  0.41533794  0.54826084  1  0.660009  4.6e-05  0.307256  0.408007  0.000535  0.907094  0.0
H  H40  1  0.18526232  0.27320208  0.48327783  1  0.135703  0.000497  0.115921  0.133313  0.000385  0.980655  0.0
H  H41  1  0.43845928  0.37325686  0.31429269  1  0.094728  0.000394  0.108133  0.120357  0.000327  0.98861  0.0
H  H42  1  0.41335530  0.13676243  0.33086065  1  0.094803  -2.2e-05  0.104638  0.113047  -2.8e-05  0.993301  0.0
H  H43  1  0.62873578  0.29827025  0.24773624  1  0.044843  0.000117  0.095735  0.10137  3.6e-05  1.017642  0.0
H  H44  1  0.04852699  0.53176620  0.38654879  1  0.591516  -0.000613  0.300364  0.386096  0.001334  0.902286  0.0
H  H45  1  0.84867230  0.00658567  0.58089979  1  0.664667  0.000155  0.290292  0.391249  0.000565  0.949397  0.0
H  H46  1  0.83235533  0.08463879  0.54825168  1  0.660541  4.4e-05  0.307176  0.407828  0.000535  0.907232  0.0
H  H47  1  0.18518268  0.22679516  0.01674167  1  0.136095  0.000495  0.115978  0.133359  0.000396  0.980515  0.0
H  H48  1  0.43843386  0.12671556  0.18571687  1  0.095643  -0.00039  0.108146  0.120558  -0.000362  0.988758  0.0
H  H49  1  0.41313210  0.36321865  0.16923458  1  0.095266  1.6e-05  0.104709  0.113237  -1.5e-05  0.993077  0.0
H  H50  1  0.62869708  0.20169295  0.25229380  1  0.044746  0.000115  0.095694  0.101322  4.9e-05  1.017346  0.0
H  H51  1  0.04838696  0.96802407  0.11380204  1  0.595636  -0.000386  0.299602  0.386431  -0.000536  0.903047  0.0
H  H52  1  0.84923843  0.49354704  0.91923770  1  0.661155  0.000141  0.291012  0.392276  0.000628  0.94812  0.0
H  H53  1  0.83337967  0.41542589  0.95188980  1  0.662121  -7e-06  0.307529  0.408403  0.000515  0.906149  0.0
H  H54  1  0.31490188  0.72693319  0.98320973  1  0.136505  -0.000459  0.11604  0.133453  -0.000411  0.98055  0.0
H  H55  1  0.06171825  0.62677139  0.81424691  1  0.097255  0.00041  0.108082  0.120484  0.000364  0.988734  0.0
H  H56  1  0.08664601  0.86328476  0.83074471  1  0.095125  -3.2e-05  0.10467  0.11314  -1.9e-05  0.99327  0.0
H  H57  1  0.87133837  0.70169012  0.74767898  1  0.044639  5.6e-05  0.095703  0.101374  7e-06  1.017299  0.0
H  H58  1  0.45191270  0.46857025  0.88657196  1  0.591984  0.000464  0.299658  0.386092  0.000368  0.903233  0.0
H  H59  1  0.65076923  0.99364250  0.08078973  1  0.660957  3.4e-05  0.290932  0.392149  -0.000588  0.948351  0.0
H  H60  1  0.66685369  0.91554327  0.04813019  1  0.662402  -4.1e-05  0.307597  0.408484  -0.000655  0.906278  0.0
H  H61  1  0.31472612  0.77320848  0.51668922  1  0.136227  0.000498  0.115948  0.133421  0.000384  0.980621  0.0
H  H62  1  0.06155754  0.87327829  0.68567687  1  0.094755  0.00039  0.108113  0.120493  0.000326  0.988718  0.0
H  H63  1  0.08669304  0.63678106  0.66912667  1  0.095285  -1.8e-05  0.104682  0.113013  -2.7e-05  0.993075  0.0
H  H64  1  0.87123512  0.79826503  0.75222987  1  0.044879  -5.6e-05  0.095658  0.101349  -4.8e-05  1.017415  0.0
H  H65  1  0.45148091  0.03176684  0.61339991  1  0.592174  -0.000615  0.300443  0.386139  0.001334  0.902555  0.0
H  H66  1  0.65130248  0.50659713  0.41908122  1  0.664964  0.000154  0.290336  0.391309  0.000564  0.949273  0.0
H  H67  1  0.66769490  0.58464979  0.45172137  1  0.660512  4.6e-05  0.307096  0.407774  0.000536  0.907313  0.0
C  C68  1  0.70594655  0.80183735  0.58947273  1  -0.09994  0.007955  -0.013458  -0.025843  0.005424  3.949207  0.006
C  C69  1  0.74527598  0.73208600  0.56386976  1  0.049996  0.00107  -0.065552  -0.084368  0.000843  3.884906  0.001
C  C70  1  0.69525435  0.66944000  0.59975736  1  -0.03566  0.01425  -0.019761  -0.035004  0.009976  3.997259  0.011
C  C71  1  0.60383766  0.67654966  0.65991497  1  0.011939  0.000789  -0.077967  -0.136281  0.000632  3.918802  0.001
C  C72  1  0.56401778  0.74565530  0.68613570  1  -0.034202  0.001634  -0.005835  0.119686  0.000997  3.975971  0.001
C  C73  1  0.61691385  0.80814987  0.65058782  1  -0.025163  0.000324  -0.072887  -0.127104  0.000186  3.891774  0.0
C  C74  1  0.75602615  0.87004906  0.55181985  1  1.537013  0.000198  0.211832  0.590983  0.001166  4.164898  -0.001
C  C75  1  0.73482424  0.59399179  0.57521745  1  1.516326  0.001558  0.214669  0.569984  0.002984  4.17724  -0.001
C  C76  1  0.70617180  0.69808144  0.91035478  1  -0.046996  0.007796  -0.013027  -0.025967  0.005331  3.949619  0.006
C  C77  1  0.74547000  0.76780556  0.93604283  1  0.002555  0.001179  -0.065925  -0.084621  0.000891  3.883904  0.001
C  C78  1  0.69542775  0.83047275  0.90020144  1  -0.034226  0.013941  -0.020111  -0.035178  0.009777  3.997096  0.011
C  C79  1  0.60398986  0.82341527  0.84003469  1  0.010034  0.001075  -0.077854  -0.136531  0.000817  3.919267  0.001
C  C80  1  0.56408403  0.75433904  0.81375717  1  -0.038929  0.001421  -0.00611  0.119369  0.000879  3.976658  0.001
C  C81  1  0.61703936  0.69180909  0.84925097  1  -0.024891  0.000332  -0.072799  -0.126724  0.000193  3.89253  0.0
C  C82  1  0.75627069  0.62984578  0.94793364  1  1.542121  0.001711  0.211277  0.590322  0.002352  4.166148  0.0
C  C83  1  0.73496389  0.90589099  0.92483090  1  1.516768  0.001471  0.214984  0.570323  0.003028  4.17631  -0.001
C  C84  1  0.79399191  0.19818655  0.08953581  1  -0.098822  0.007787  -0.01322  -0.025494  0.005393  3.949994  0.006
C  C85  1  0.75464152  0.26791219  0.06389881  1  0.052349  0.00083  -0.065705  -0.084833  0.000607  3.886002  0.001
C  C86  1  0.80461094  0.33056543  0.09977835  1  -0.036247  0.00185  -0.019687  -0.034885  0.001199  3.997941  0.001
C  C87  1  0.89607481  0.32350791  0.15993766  1  0.010608  -0.001339  -0.077722  -0.136696  -0.000875  3.919063  -0.001
C  C88  1  0.93592239  0.25442582  0.18618801  1  -0.035143  0.00042  -0.00615  0.119704  0.000215  3.976233  0.0
C  C89  1  0.88302662  0.19190806  0.15065458  1  -0.025005  0.000351  -0.072847  -0.127135  0.000248  3.892283  0.0
C  C90  1  0.74381102  0.12993826  0.05193381  1  1.539222  -1.7e-05  0.211388  0.590373  0.000995  4.166212  -0.002
C  C91  1  0.76473773  0.40600509  0.07529072  1  1.518087  -0.00245  0.214811  0.569619  -0.002191  4.177602  -0.003
C  C92  1  0.79404802  0.30185047  0.41049016  1  -0.099226  0.00798  -0.013213  -0.025812  0.005439  3.9491  0.006
C  C93  1  0.75474944  0.23209091  0.43608875  1  0.052596  0.001022  -0.065651  -0.084202  0.000812  3.884826  0.001
C  C94  1  0.80479728  0.16945394  0.40019678  1  -0.036335  0.01427  -0.019571  -0.034716  0.009988  3.996837  0.011
C  C95  1  0.89619334  0.17658270  0.34003371  1  0.010293  0.000744  -0.078116  -0.136736  0.000599  3.919843  0.001
C  C96  1  0.93597151  0.24569156  0.31381532  1  -0.036314  0.001674  -0.00587  0.120091  0.001025  3.976446  0.001
C  C97  1  0.88306119  0.30817473  0.34936756  1  -0.025161  0.000282  -0.073184  -0.127656  0.00016  3.892759  0.0
C  C98  1  0.74396511  0.37005218  0.44816915  1  1.537777  0.000196  0.212155  0.591567  0.001163  4.164486  -0.001
C  C99  1  0.76524596  0.09400734  0.42475178  1  1.517296  0.001559  0.215015  0.570692  0.002982  4.176779  -0.001
C  C100  1  0.29406029  0.19813991  0.41048614  1  -0.099612  0.007964  -0.013324  -0.02594  0.005429  3.949261  0.006
C  C101  1  0.25470288  0.26789457  0.43609308  1  0.052896  0.001075  -0.065773  -0.08459  0.000848  3.884978  0.001
C  C102  1  0.30471918  0.33054332  0.40020896  1  -0.036745  0.014251  -0.019621  -0.034407  0.009973  3.996393  0.011
C  C103  1  0.39615586  0.32342926  0.34005681  1  0.011648  0.000792  -0.077966  -0.136308  0.000634  3.919406  0.001
C  C104  1  0.43596374  0.25433463  0.31383162  1  -0.035276  0.001626  -0.006059  0.119309  0.000992  3.977302  0.001
C  C105  1  0.38311432  0.19183620  0.34937154  1  -0.025316  0.000329  -0.072828  -0.126842  0.000192  3.892247  0.0
C  C106  1  0.24399535  0.12993371  0.44815491  1  1.537765  0.000196  0.211822  0.590781  0.001165  4.165413  -0.001
C  C107  1  0.26512930  0.40598162  0.42476227  1  1.51619  0.001553  0.214489  0.569762  0.002983  4.177301  -0.001
C  C108  1  0.29393631  0.30183853  0.08958323  1  -0.098353  0.006111  -0.01307  -0.025376  0.004211  3.949909  0.005
C  C109  1  0.25467009  0.23209953  0.06392399  1  0.052243  0.00021  -0.065754  -0.084545  0.000173  3.885049  0.0
C  C110  1  0.30467637  0.16944942  0.09980461  1  -0.036317  -0.001651  -0.019396  -0.03436  -0.001327  3.99735  -0.001
C  C111  1  0.39615024  0.17654161  0.15995845  1  0.010961  0.001429  -0.077694  -0.136217  0.000843  3.91954  0.001
C  C112  1  0.43598544  0.24563161  0.18621561  1  -0.037806  0.001219  -0.006033  0.119737  0.00082  3.976367  0.001
C  C113  1  0.38302078  0.30813842  0.15069350  1  -0.023716  0.00215  -0.072751  -0.127216  0.001406  3.892359  0.002
C  C114  1  0.24388139  0.37008520  0.05197159  1  1.540096  0.001338  0.211306  0.590149  0.002094  4.167021  0.0
C  C115  1  0.26485772  0.09398490  0.07536038  1  1.515989  0.002523  0.214638  0.569289  0.001663  4.177694  0.003
C  C116  1  0.20607892  0.80194498  0.91038234  1  -0.048226  -0.005948  -0.012953  -0.025733  -0.004408  3.949127  -0.005
C  C117  1  0.24543730  0.73221714  0.93603126  1  0.000783  0.000258  -0.065879  -0.084761  7e-05  3.884009  0.001
C  C118  1  0.19543723  0.66956059  0.90015868  1  -0.034105  0.001848  -0.019332  -0.033535  0.001276  3.996843  0.002
C  C119  1  0.10398802  0.67661536  0.83999837  1  0.009119  -0.001253  -0.077555  -0.136351  -0.000799  3.919395  -0.001
C  C120  1  0.06404449  0.74569469  0.81375796  1  -0.038696  -0.000987  -0.006053  0.119397  -0.000717  3.97614  -0.001
C  C121  1  0.11695226  0.80822292  0.84928046  1  -0.025205  -0.001663  -0.072801  -0.127044  -0.001197  3.892352  -0.001
C  C122  1  0.25596797  0.87016627  0.94805486  1  1.542799  -0.001174  0.211548  0.590172  -0.002223  4.165569  0.0
C  C123  1  0.23522382  0.59413305  0.92468604  1  1.519155  -0.002458  0.214371  0.569267  -0.002192  4.178197  -0.003
C  C124  1  0.20594684  0.69815875  0.58948510  1  -0.099691  0.008001  -0.013338  -0.025853  0.005454  3.94928  0.006
C  C125  1  0.24528805  0.76790564  0.56387558  1  0.050993  0.000933  -0.06571  -0.084407  0.000751  3.885564  0.001
C  C126  1  0.19528286  0.83055363  0.59975265  1  -0.036344  0.014275  -0.019817  -0.035013  0.009992  3.997269  0.011
C  C127  1  0.10385882  0.82345297  0.65990927  1  0.0116  0.000662  -0.077972  -0.136223  0.000549  3.918645  0.001
C  C128  1  0.06402334  0.75435291  0.68613610  1  -0.034636  0.001644  -0.005775  0.119656  0.001008  3.976493  0.001
C  C129  1  0.11690834  0.69184991  0.65059827  1  -0.025242  0.000204  -0.073082  -0.127167  0.000108  3.89201  0.0
C  C130  1  0.25601641  0.62993499  0.55183094  1  1.537552  0.000197  0.211845  0.590782  0.001166  4.165537  -0.001
C  C131  1  0.23486882  0.90599582  0.57520064  1  1.516548  0.001561  0.214578  0.569749  0.002985  4.177527  -0.001
C  C132  1  0.45887781  0.75002374  0.74994414  1  -0.004036  0.000813  -0.15795  -0.254048  0.000529  3.97094  0.001
C  C133  1  0.04110939  0.25007656  0.24999497  1  -0.002872  0.000416  -0.15779  -0.253375  0.000262  3.9699  0.0
C  C134  1  0.54116368  0.24998162  0.25003112  1  -0.0042  0.000795  -0.157749  -0.253877  0.000533  3.970615  0.001
C  C135  1  0.95885882  0.74999822  0.74993709  1  -0.003512  1.1e-05  -0.157733  -0.253929  -2.9e-05  3.970637  0.0
O  O136  1  0.71579210  0.93263292  0.57600124  1  -1.195643  0.007739  -0.327427  -0.618539  0.004538  2.271168  0.008
O  O137  1  0.83620760  0.86040709  0.49596815  1  -1.110097  0.088519  -0.325897  -0.533326  0.056109  2.296357  0.079
O  O138  1  0.82746611  0.58697169  0.52219625  1  -1.144469  0.077573  -0.311004  -0.564847  0.049573  2.377716  0.07
O  O139  1  0.66997721  0.54049951  0.60911273  1  -1.115918  0.097904  -0.3218  -0.533064  0.062422  2.344707  0.089
O  O140  1  0.92299394  0.44001954  0.57345881  1  -1.054345  0.247995  -0.577537  -0.778423  0.158266  2.134763  0.211
O  O141  1  0.09391091  0.94323205  0.41989379  1  -1.240402  0.064775  -0.581821  -0.752946  0.042172  2.156797  0.056
O  O142  1  0.71634328  0.56728911  0.92362941  1  -1.197864  0.001879  -0.327228  -0.618224  0.000873  2.271013  0.001
O  O143  1  0.83609607  0.63943683  0.00385956  1  -1.112638  0.087976  -0.325529  -0.532632  0.055739  2.295822  0.078
O  O144  1  0.82738873  0.91289587  0.97789853  1  -1.145362  0.07535  -0.311127  -0.564848  0.047779  2.373942  0.069
O  O145  1  0.67009392  0.95941253  0.89095061  1  -1.114326  0.0982  -0.322012  -0.533049  0.062645  2.344068  0.09
O  O146  1  0.92348475  0.05961606  0.92688893  1  -1.050559  0.249549  -0.576243  -0.776164  0.15924  2.135242  0.213
O  O147  1  0.09297909  0.55653620  0.07984653  1  -1.236908  0.064678  -0.581638  -0.752438  0.042086  2.15892  0.056
O  O148  1  0.78347150  0.06739872  0.07628184  1  -1.198353  0.004717  -0.326913  -0.617606  0.002521  2.270748  0.005
O  O149  1  0.66409230  0.13955416  0.99597281  1  -1.10913  0.088344  -0.326135  -0.533649  0.056054  2.29542  0.079
O  O150  1  0.67216296  0.41300006  0.02225139  1  -1.143389  -0.075238  -0.310718  -0.563456  -0.051513  2.377026  -0.068
O  O151  1  0.82919646  0.45950775  0.10927555  1  -1.117293  0.091996  -0.321362  -0.53201  0.059163  2.343951  0.084
O  O152  1  0.57618536  0.56016452  0.07364853  1  -1.060073  0.040862  -0.579121  -0.77984  0.024252  2.130381  0.037
O  O153  1  0.40642019  0.05671310  0.92002891  1  -1.237508  0.06465  -0.582183  -0.753735  0.0421  2.156317  0.056
O  O154  1  0.78420226  0.43264165  0.42400257  1  -1.196275  0.007741  -0.327415  -0.618694  0.004541  2.271333  0.008
O  O155  1  0.66376626  0.36038858  0.50401372  1  -1.110363  0.088497  -0.326154  -0.533608  0.056096  2.296095  0.079
O  O156  1  0.67260343  0.08699232  0.47777448  1  -1.14479  0.077553  -0.311414  -0.565389  0.049568  2.377867  0.07
O  O157  1  0.83011113  0.04051453  0.39086023  1  -1.116301  0.097932  -0.321676  -0.533163  0.062439  2.344556  0.089
O  O158  1  0.57701051  0.94002623  0.42651025  1  -1.053627  0.247937  -0.577434  -0.77819  0.158223  2.134527  0.211
O  O159  1  0.40607912  0.44323551  0.58008017  1  -1.239715  0.064746  -0.581825  -0.752771  0.042153  2.156997  0.056
O  O160  1  0.28425605  0.06734820  0.42398644  1  -1.196603  0.007742  -0.327233  -0.618171  0.00454  2.271576  0.008
O  O161  1  0.16381390  0.13958174  0.50400164  1  -1.109739  0.088489  -0.326017  -0.533347  0.056089  2.296567  0.079
O  O162  1  0.17248609  0.41299565  0.47778397  1  -1.144703  0.077546  -0.311032  -0.564724  0.049555  2.377825  0.07
O  O163  1  0.33000831  0.45947445  0.39087495  1  -1.114963  0.097904  -0.321693  -0.533077  0.062421  2.344611  0.089
O  O164  1  0.07696892  0.55995827  0.42653085  1  -1.054171  0.247983  -0.577385  -0.778084  0.158269  2.13442  0.211
O  O165  1  0.90613991  0.05674466  0.58007452  1  -1.24045  0.064793  -0.581893  -0.752761  0.042184  2.156936  0.056
O  O166  1  0.28360758  0.43263140  0.07632449  1  -1.197561  0.001179  -0.327087  -0.618013  0.00042  2.271747  0.0
O  O167  1  0.16425057  0.36048644  0.99600645  1  -1.110232  0.088086  -0.325704  -0.532732  0.055821  2.295188  0.078
O  O168  1  0.17217569  0.08697726  0.02232602  1  -1.141976  0.077281  -0.310816  -0.563706  0.04996  2.380084  0.069
O  O169  1  0.32928128  0.04052286  0.10935588  1  -1.115951  -0.091707  -0.321162  -0.531652  -0.062896  2.344065  -0.084
O  O170  1  0.07654069  0.93952598  0.07398915  1  -1.063859  -0.043383  -0.579949  -0.782251  -0.031157  2.13056  -0.039
O  O171  1  0.90713570  0.44345704  0.92017193  1  -1.237165  0.064657  -0.581545  -0.752677  0.04207  2.159064  0.056
O  O172  1  0.21546530  0.93274491  0.92389950  1  -1.198535  0.001852  -0.32762  -0.618645  0.001431  2.272881  0.002
O  O173  1  0.33611577  0.86054817  0.00389469  1  -1.112917  -0.087388  -0.325083  -0.531705  -0.059039  2.295453  -0.078
O  O174  1  0.32789854  0.58715296  0.97771196  1  -1.143139  -0.075312  -0.310747  -0.563759  -0.051538  2.376971  -0.068
O  O175  1  0.17068381  0.54061056  0.89076179  1  -1.11655  0.091979  -0.321124  -0.531943  0.059163  2.344547  0.084
O  O176  1  0.42388281  0.43999126  0.92634958  1  -1.059068  0.040701  -0.579176  -0.779987  0.024148  2.131217  0.037
O  O177  1  0.59307496  0.94349610  0.07991854  1  -1.237147  -0.064411  -0.581989  -0.75277  -0.044719  2.158773  -0.056
O  O178  1  0.21575128  0.56735159  0.57600994  1  -1.196429  0.007746  -0.327205  -0.618148  0.004543  2.271493  0.008
O  O179  1  0.33620327  0.63958317  0.49598389  1  -1.109845  0.088503  -0.325966  -0.533382  0.056099  2.296696  0.079
O  O180  1  0.32751268  0.91300809  0.52218191  1  -1.144713  0.07756  -0.31108  -0.564809  0.04957  2.377728  0.07
O  O181  1  0.16999699  0.95949139  0.60909070  1  -1.11591  0.097911  -0.32162  -0.532825  0.062427  2.344842  0.089
O  O182  1  0.42305497  0.05997527  0.57343422  1  -1.054433  0.247969  -0.57755  -0.778156  0.158249  2.134857  0.211
O  O183  1  0.59388241  0.55675112  0.41990503  1  -1.240812  0.064762  -0.581783  -0.752648  0.042162  2.156886  0.056
