# generated using pymatgen
data_Cd2H16C12N3Cl5O
_symmetry_space_group_name_H-M   'P 1'
_cell_length_a   9.48421560
_cell_length_b   10.89557998
_cell_length_c   10.43380257
_cell_angle_alpha   103.45342387
_cell_angle_beta   101.29071600
_cell_angle_gamma   110.64674322
_symmetry_Int_Tables_number   1
_chemical_formula_structural   Cd2H16C12N3Cl5O
_chemical_formula_sum   'Cd4 H32 C24 N6 Cl10 O2'
_cell_volume   934.41357662
_cell_formula_units_Z   2
loop_
 _symmetry_equiv_pos_site_id
 _symmetry_equiv_pos_as_xyz
  1  'x, y, z'
loop_
 _atom_site_type_symbol
 _atom_site_label
 _atom_site_symmetry_multiplicity
 _atom_site_fract_x
 _atom_site_fract_y
 _atom_site_fract_z
 _atom_site_occupancy
 _atom_site_hle17_bader_spin_density
 _atom_site_hle17_ddec_charge
 _atom_site_hle17_ddec_spin_density
 _atom_site_hle17_ddec_sum_bond_order
 _atom_site_hle17_magmom
 _atom_site_hse06_10hf_bader_spin_density
 _atom_site_hse06_10hf_ddec_charge
 _atom_site_hse06_10hf_ddec_spin_density
 _atom_site_hse06_10hf_ddec_sum_bond_order
 _atom_site_hse06_10hf_magmom
 _atom_site_hse06_bader_spin_density
 _atom_site_hse06_ddec_charge
 _atom_site_hse06_ddec_spin_density
 _atom_site_hse06_ddec_sum_bond_order
 _atom_site_hse06_magmom
 _atom_site_pbe_bader_spin_density
 _atom_site_pbe_cm5_charge
 _atom_site_pbe_ddec_charge
 _atom_site_pbe_ddec_spin_density
 _atom_site_pbe_ddec_sum_bond_order
 _atom_site_pbe_magmom
Cd  Cd0  1  0.94672631  0.56809008  0.34221752  1  0  0.990254  0  1.875701  0  0  0.832547  0  2.325582  0  0  0.880062  0  2.285169  0  0  0.559904  0.798588  0  2.353257  0
Cd  Cd1  1  0.05327005  0.43190412  0.65777718  1  0  0.990343  0  1.875789  0  0  0.832639  0  2.325708  0  0  0.880154  0  2.285285  0  0  0.559951  0.798683  0  2.353385  0
Cd  Cd2  1  0.98766983  0.19286896  0.27444738  1  0  1.037674  0  1.896389  0  0  0.878464  0  2.359876  0  0  0.924713  0  2.315269  0  0  0.589865  0.845148  0  2.390987  0
Cd  Cd3  1  0.01232869  0.80712304  0.72554899  1  0  1.037701  0  1.896371  0  0  0.878495  0  2.359859  0  0  0.924743  0  2.315249  0  0  0.589872  0.84518  0  2.390971  0
H  H4  1  0.08247886  0.18054388  0.01267460  1  0  0.401174  0  0.909682  0  0  0.371302  0  0.974598  0  0  0.381349  0  0.959997  0  0  0.258061  0.364079  0  0.985126  0
H  H5  1  0.91751934  0.81945396  0.98731685  1  0  0.401066  0  0.90981  0  0  0.371208  0  0.974719  0  0  0.381256  0  0.960116  0  0  0.258038  0.363984  0  0.985249  0
H  H6  1  0.00353251  0.28629171  0.01812628  1  0  0.412767  0  0.881239  0  0  0.383207  0  0.948515  0  0  0.3931  0  0.934122  0  0  0.267378  0.376202  0  0.958699  0
H  H7  1  0.99646822  0.71370760  0.98187197  1  0  0.412701  0  0.881312  0  0  0.383142  0  0.948591  0  0  0.393037  0  0.934195  0  0  0.267369  0.376135  0  0.958777  0
H  H8  1  0.50949954  0.86691706  0.29528389  1  0  0.286816  0  0.834109  0  0  0.278234  0  0.881392  0  0  0.283214  0  0.879543  0  0  0.329227  0.274923  0  0.882495  0
H  H9  1  0.49050697  0.13308154  0.70472308  1  0  0.286858  0  0.834174  0  0  0.278287  0  0.881466  0  0  0.283267  0  0.879616  0  0  0.329294  0.274976  0  0.882568  0
H  H10  1  0.31375153  0.77457391  0.20842555  1  0  0.284724  0  0.909192  0  0  0.266024  0  0.976464  0  0  0.274198  0  0.970589  0  0  0.275364  0.260201  0  0.980688  0
H  H11  1  0.68624677  0.22543274  0.79158133  1  0  0.284768  0  0.909116  0  0  0.266  0  0.976513  0  0  0.27417  0  0.970642  0  0  0.275381  0.26018  0  0.980733  0
H  H12  1  0.15278179  0.99957787  0.14710899  1  0  0.083602  0  0.975752  0  0  0.086467  0  1.051372  0  0  0.089141  0  1.048582  0  0  0.104543  0.084464  0  1.053487  0
H  H13  1  0.84723749  0.00042450  0.85287104  1  0  0.08364  0  0.975863  0  0  0.086463  0  1.051521  0  0  0.089143  0  1.048739  0  0  0.104494  0.084457  0  1.053636  0
H  H14  1  0.30962101  0.31520743  0.52057866  1  0  0.074612  0  0.985031  0  0  0.079582  0  1.056059  0  0  0.081461  0  1.055156  0  0  0.105036  0.078209  0  1.056626  0
H  H15  1  0.69034330  0.68475795  0.47942206  1  0  0.074603  0  0.98498  0  0  0.07958  0  1.056023  0  0  0.081422  0  1.055161  0  0  0.105055  0.078205  0  1.05659  0
H  H16  1  0.57514275  0.30723697  0.58088506  1  0  0.1057  0  0.974511  0  0  0.112629  0  1.040199  0  0  0.11549  0  1.040152  0  0  0.097458  0.110419  0  1.040629  0
H  H17  1  0.42483598  0.69275574  0.41912374  1  0  0.105587  0  0.974606  0  0  0.112485  0  1.040342  0  0  0.115301  0  1.040346  0  0  0.097364  0.110273  0  1.040771  0
H  H18  1  0.62915941  0.13784469  0.41389657  1  0  0.106112  0  0.967737  0  0  0.112708  0  1.038305  0  0  0.116186  0  1.035097  0  0  0.0934  0.110043  0  1.0408  0
H  H19  1  0.37083843  0.86214525  0.58611731  1  0  0.106152  0  0.967845  0  0  0.112761  0  1.038387  0  0  0.116241  0  1.035185  0  0  0.0934  0.110089  0  1.040878  0
H  H20  1  0.32626272  0.91206077  0.06006229  1  0  0.103159  0  0.932524  0  0  0.112158  0  1.001781  0  0  0.113881  0  1.00051  0  0  0.10996  0.110668  0  1.00305  0
H  H21  1  0.67376753  0.08795344  0.93993935  1  0  0.103135  0  0.932535  0  0  0.112121  0  1.001753  0  0  0.113848  0  1.00048  0  0  0.110011  0.110632  0  1.003022  0
H  H22  1  0.53515866  0.00712570  0.14338181  1  0  0.096142  0  0.924039  0  0  0.108421  0  0.989288  0  0  0.109633  0  0.988635  0  0  0.110662  0.10745  0  0.989937  0
H  H23  1  0.46486861  0.99288176  0.85664015  1  0  0.096088  0  0.924035  0  0  0.108308  0  0.989341  0  0  0.10952  0  0.988695  0  0  0.110645  0.107338  0  0.98999  0
H  H24  1  0.56626754  0.80320914  0.07189073  1  0  0.098013  0  0.980867  0  0  0.109729  0  1.045345  0  0  0.111719  0  1.044179  0  0  0.097716  0.108236  0  1.046266  0
H  H25  1  0.43371809  0.19677870  0.92810830  1  0  0.097925  0  0.980614  0  0  0.109622  0  1.045112  0  0  0.111599  0  1.043927  0  0  0.097649  0.108133  0  1.046042  0
H  H26  1  0.36000711  0.68842322  0.00319084  1  0  0.103272  0  0.954431  0  0  0.114247  0  1.019706  0  0  0.115842  0  1.019064  0  0  0.102134  0.112976  0  1.020416  0
H  H27  1  0.63997821  0.31157821  0.99680965  1  0  0.103162  0  0.954549  0  0  0.114123  0  1.019795  0  0  0.115697  0  1.019148  0  0  0.102093  0.112861  0  1.020506  0
H  H28  1  0.75404612  0.73517224  0.19819928  1  0  0.093759  0  0.960778  0  0  0.097969  0  1.032235  0  0  0.101095  0  1.029192  0  0  0.105325  0.095615  0  1.034725  0
H  H29  1  0.24595900  0.26482697  0.80182012  1  0  0.093665  0  0.960939  0  0  0.097875  0  1.032365  0  0  0.101008  0  1.029316  0  0  0.105265  0.095521  0  1.034854  0
H  H30  1  0.60122152  0.37598951  0.30285208  1  0  0.075844  0  0.992471  0  0  0.082945  0  1.060121  0  0  0.084882  0  1.058833  0  0  0.0956  0.081542  0  1.06104  0
H  H31  1  0.39876619  0.62401671  0.69714468  1  0  0.075844  0  0.992338  0  0  0.082931  0  1.06002  0  0  0.084872  0  1.058727  0  0  0.095543  0.081525  0  1.060942  0
H  H32  1  0.31629142  0.33205860  0.21119297  1  0  0.108345  0  0.991656  0  0  0.115335  0  1.055086  0  0  0.117761  0  1.055646  0  0  0.101311  0.113487  0  1.054957  0
H  H33  1  0.68370962  0.66794877  0.78880893  1  0  0.108394  0  0.991591  0  0  0.115328  0  1.055072  0  0  0.117753  0  1.055634  0  0  0.101296  0.113483  0  1.054942  0
H  H34  1  0.25183855  0.49900076  0.11211499  1  0  0.111623  0  0.958354  0  0  0.118815  0  1.025366  0  0  0.12199  0  1.0225  0  0  0.100979  0.116303  0  1.02759  0
H  H35  1  0.74814139  0.50099387  0.88788697  1  0  0.111567  0  0.958631  0  0  0.118731  0  1.025666  0  0  0.121898  0  1.022801  0  0  0.100952  0.116223  0  1.027895  0
C  C36  1  0.39252876  0.05206376  0.26793124  1  0  0.013698  0  3.725565  0  0  0.040266  0  3.963628  0  0  0.033806  0  3.989028  0  0  -0.009772  0.044359  0  3.946542  0
C  C37  1  0.60747226  0.94793539  0.73205930  1  0  0.013455  0  3.725956  0  0  0.03999  0  3.963979  0  0  0.033533  0  3.989378  0  0  -0.009796  0.044083  0  3.946891  0
C  C38  1  0.24830182  0.06388226  0.24334017  1  0  0.104205  0  3.656542  0  0  0.06539  0  3.904075  0  0  0.072507  0  3.922776  0  0  0.053107  0.060472  0  3.891857  0
C  C39  1  0.75171138  0.93612468  0.75665259  1  0  0.10435  0  3.65634  0  0  0.065591  0  3.903835  0  0  0.072698  0  3.922552  0  0  0.05322  0.060681  0  3.891606  0
C  C40  1  0.33613671  0.23981507  0.45274100  1  0  0.136741  0  3.691571  0  0  0.103528  0  3.943222  0  0  0.111484  0  3.961103  0  0  0.047148  0.098302  0  3.930796  0
C  C41  1  0.66385697  0.76018743  0.54725390  1  0  0.136705  0  3.691656  0  0  0.103465  0  3.943316  0  0  0.111442  0  3.961223  0  0  0.047103  0.098243  0  3.930883  0
C  C42  1  0.48221094  0.23316733  0.48658580  1  0  -0.133582  0  3.750008  0  0  -0.142793  0  4.002591  0  0  -0.150431  0  4.023721  0  0  -0.094226  -0.13784  0  3.988272  0
C  C43  1  0.51777767  0.76683321  0.51340546  1  0  -0.133411  0  3.749379  0  0  -0.142569  0  4.00194  0  0  -0.15017  0  4.023092  0  0  -0.094127  -0.137617  0  3.987614  0
C  C44  1  0.51199235  0.13904568  0.39226242  1  0  -0.048629  0  3.68463  0  0  -0.075755  0  3.931816  0  0  -0.072272  0  3.949446  0  0  -0.069464  -0.077679  0  3.919755  0
C  C45  1  0.48801042  0.86097392  0.60775347  1  0  -0.048664  0  3.684746  0  0  -0.075816  0  3.931922  0  0  -0.072338  0  3.949543  0  0  -0.069448  -0.077738  0  3.919878  0
C  C46  1  0.42065277  0.95442144  0.15898362  1  0  -0.010676  0  3.551611  0  0  -0.073482  0  3.796586  0  0  -0.069097  0  3.807148  0  0  -0.052823  -0.076168  0  3.789303  0
C  C47  1  0.57937401  0.04559117  0.84103027  1  0  -0.010459  0  3.551498  0  0  -0.07306  0  3.796295  0  0  -0.068681  0  3.806849  0  0  -0.052812  -0.075746  0  3.78901  0
C  C48  1  0.46405997  0.73701704  0.09541012  1  0  -0.033778  0  3.564483  0  0  -0.096417  0  3.80698  0  0  -0.092615  0  3.817262  0  0  -0.069893  -0.098724  0  3.79975  0
C  C49  1  0.53594642  0.26298392  0.90457637  1  0  -0.033633  0  3.564503  0  0  -0.096087  0  3.806798  0  0  -0.092188  0  3.816952  0  0  -0.069759  -0.09843  0  3.79961  0
C  C50  1  0.49844754  0.63181719  0.15025062  1  0  -0.000473  0  3.745537  0  0  0.026525  0  3.985157  0  0  0.019515  0  4.012224  0  0  -0.016018  0.030826  0  3.967555  0
C  C51  1  0.50154487  0.36818233  0.84974208  1  0  -0.000441  0  3.74599  0  0  0.026465  0  3.985606  0  0  0.019447  0  4.012621  0  0  -0.015985  0.030774  0  3.968018  0
C  C52  1  0.65422445  0.64683706  0.19986006  1  0  0.084073  0  3.65707  0  0  0.047024  0  3.906577  0  0  0.053684  0  3.925337  0  0  0.045947  0.041591  0  3.895572  0
C  C53  1  0.34578215  0.35315891  0.80014221  1  0  0.08428  0  3.656965  0  0  0.047341  0  3.906317  0  0  0.053955  0  3.925146  0  0  0.046039  0.041905  0  3.89532  0
C  C54  1  0.56791161  0.44576306  0.25732596  1  0  0.124366  0  3.702105  0  0  0.093954  0  3.94704  0  0  0.101632  0  3.96518  0  0  0.035423  0.088889  0  3.934213  0
C  C55  1  0.43209557  0.55424130  0.74267723  1  0  0.124507  0  3.701979  0  0  0.094086  0  3.946925  0  0  0.101766  0  3.965064  0  0  0.035454  0.089022  0  3.934096  0
C  C56  1  0.41055581  0.42214161  0.20767729  1  0  -0.101007  0  3.72083  0  0  -0.110663  0  3.968595  0  0  -0.118277  0  3.990506  0  0  -0.086143  -0.105312  0  3.952827  0
C  C57  1  0.58944503  0.57785733  0.79231508  1  0  -0.101062  0  3.720906  0  0  -0.110626  0  3.96863  0  0  -0.118247  0  3.990551  0  0  -0.086071  -0.10527  0  3.952856  0
C  C58  1  0.37465308  0.51545015  0.15196956  1  0  -0.038757  0  3.676839  0  0  -0.066693  0  3.92455  0  0  -0.062967  0  3.941928  0  0  -0.065626  -0.068059  0  3.911895  0
C  C59  1  0.62534500  0.48454308  0.84802518  1  0  -0.038668  0  3.677052  0  0  -0.066617  0  3.924822  0  0  -0.062885  0  3.942192  0  0  -0.065602  -0.067992  0  3.91218  0
N  N60  1  0.22181459  0.15746970  0.33279152  1  0  -0.318624  0  3.261309  0  0  -0.239062  0  3.520861  0  0  -0.259398  0  3.540332  0  0  -0.325446  -0.225206  0  3.5077  0
N  N61  1  0.77818572  0.84252713  0.66719136  1  0  -0.318729  0  3.261343  0  0  -0.239175  0  3.52089  0  0  -0.259494  0  3.540307  0  0  -0.325502  -0.225331  0  3.507762  0
N  N62  1  0.42636027  0.83221936  0.20011266  1  0  -0.259021  0  3.299094  0  0  -0.192139  0  3.506451  0  0  -0.206541  0  3.516481  0  0  -0.463933  -0.18231  0  3.499346  0
N  N63  1  0.57364706  0.16777524  0.79988353  1  0  -0.259117  0  3.299264  0  0  -0.192372  0  3.506744  0  0  -0.206795  0  3.51675  0  0  -0.464073  -0.182532  0  3.499647  0
N  N64  1  0.68795067  0.55471706  0.25144863  1  0  -0.329965  0  3.277064  0  0  -0.250649  0  3.537398  0  0  -0.271558  0  3.558042  0  0  -0.332026  -0.23634  0  3.523551  0
N  N65  1  0.31203194  0.44528542  0.74855067  1  0  -0.330276  0  3.276451  0  0  -0.250994  0  3.536815  0  0  -0.271905  0  3.557466  0  0  -0.332104  -0.236685  0  3.522969  0
Cl  Cl66  1  0.78064741  0.28495979  0.20413304  1  0  -0.584437  0  1.054387  0  0  -0.521128  0  1.343657  0  0  -0.541253  0  1.324474  0  0  -0.291383  -0.506372  0  1.357094  0
Cl  Cl67  1  0.21935470  0.71504810  0.79587407  1  0  -0.584463  0  1.054378  0  0  -0.521155  0  1.343667  0  0  -0.541278  0  1.324477  0  0  -0.291393  -0.506384  0  1.35708  0
Cl  Cl68  1  0.16068732  0.47942623  0.43511041  1  0  -0.569  0  1.074507  0  0  -0.497471  0  1.369192  0  0  -0.519527  0  1.350522  0  0  -0.275418  -0.481226  0  1.381526  0
Cl  Cl69  1  0.83931175  0.52056739  0.56489046  1  0  -0.568997  0  1.074497  0  0  -0.497472  0  1.369197  0  0  -0.519531  0  1.350529  0  0  -0.275404  -0.481228  0  1.381532  0
Cl  Cl70  1  0.07753626  0.64984955  0.16176504  1  0  -0.591256  0  0.890702  0  0  -0.534492  0  1.138882  0  0  -0.551477  0  1.118949  0  0  -0.309897  -0.521812  0  1.15282  0
Cl  Cl71  1  0.92246892  0.35014998  0.83823326  1  0  -0.591276  0  0.890695  0  0  -0.534498  0  1.138907  0  0  -0.551477  0  1.11897  0  0  -0.309904  -0.52182  0  1.152846  0
Cl  Cl72  1  0.92576364  0.16893350  0.50215282  1  0  -0.579897  0  0.953523  0  0  -0.519809  0  1.220523  0  0  -0.539078  0  1.199608  0  0  -0.327309  -0.505909  0  1.235069  0
Cl  Cl73  1  0.07423502  0.83106586  0.49784404  1  0  -0.579867  0  0.953439  0  0  -0.519777  0  1.220436  0  0  -0.53904  0  1.199509  0  0  -0.32731  -0.505874  0  1.234979  0
Cl  Cl74  1  0.82985857  0.94402085  0.10345593  1  0  -0.608989  0  0.925241  0  0  -0.549654  0  1.180413  0  0  -0.565992  0  1.159271  0  0  -0.303468  -0.537566  0  1.195592  0
Cl  Cl75  1  0.17014125  0.05597913  0.89654524  1  0  -0.609004  0  0.925268  0  0  -0.549679  0  1.180459  0  0  -0.566015  0  1.159312  0  0  -0.303464  -0.537589  0  1.195639  0
O  O76  1  0.05627671  0.24609726  0.07633945  1  0  -0.828587  0  1.954872  0  0  -0.767272  0  2.142412  0  0  -0.787867  0  2.112426  0  0  -0.592739  -0.75248  0  2.163385  0
O  O77  1  0.94373321  0.75390782  0.92365877  1  0  -0.828425  0  1.955133  0  0  -0.767131  0  2.142641  0  0  -0.787719  0  2.112639  0  0  -0.592699  -0.752339  0  2.163617  0
