# generated using pymatgen
data_H5PbC7NO5
_symmetry_space_group_name_H-M   'P 1'
_cell_length_a   6.59542046
_cell_length_b   10.93982916
_cell_length_c   11.34819215
_cell_angle_alpha   89.97174329
_cell_angle_beta   90.00942594
_cell_angle_gamma   91.47923617
_symmetry_Int_Tables_number   1
_chemical_formula_structural   H5PbC7NO5
_chemical_formula_sum   'H20 Pb4 C28 N4 O20'
_cell_volume   818.53055446
_cell_formula_units_Z   4
loop_
 _symmetry_equiv_pos_site_id
 _symmetry_equiv_pos_as_xyz
  1  'x, y, z'
loop_
 _atom_site_type_symbol
 _atom_site_label
 _atom_site_symmetry_multiplicity
 _atom_site_fract_x
 _atom_site_fract_y
 _atom_site_fract_z
 _atom_site_occupancy
 _atom_site_hle17_bader_spin_density
 _atom_site_hle17_ddec_charge
 _atom_site_hle17_ddec_spin_density
 _atom_site_hle17_ddec_sum_bond_order
 _atom_site_hle17_magmom
 _atom_site_hse06_10hf_bader_spin_density
 _atom_site_hse06_10hf_ddec_charge
 _atom_site_hse06_10hf_ddec_spin_density
 _atom_site_hse06_10hf_ddec_sum_bond_order
 _atom_site_hse06_10hf_magmom
 _atom_site_hse06_bader_spin_density
 _atom_site_hse06_ddec_charge
 _atom_site_hse06_ddec_spin_density
 _atom_site_hse06_ddec_sum_bond_order
 _atom_site_hse06_magmom
 _atom_site_pbe_bader_spin_density
 _atom_site_pbe_cm5_charge
 _atom_site_pbe_ddec_charge
 _atom_site_pbe_ddec_spin_density
 _atom_site_pbe_ddec_sum_bond_order
 _atom_site_pbe_magmom
H  H0  1  0.88974000  0.16648779  0.14651332  1  0  0.127317  0  0.948416  0  0  0.134449  0  1.011027  0  0  0.138722  0  1.008408  0  0  0.112878  0.131383  0  1.013057  0
H  H1  1  0.61036149  0.83360885  0.64634081  1  0  0.127294  0  0.94816  0  0  0.134825  0  1.010378  0  0  0.139114  0  1.007726  0  0  0.113035  0.131739  0  1.012464  0
H  H2  1  0.11023350  0.83346296  0.85357027  1  0  0.127334  0  0.948563  0  0  0.1346  0  1.010936  0  0  0.13888  0  1.008311  0  0  0.112945  0.131533  0  1.012973  0
H  H3  1  0.38986020  0.16637517  0.35355777  1  0  0.12737  0  0.948033  0  0  0.134627  0  1.010453  0  0  0.138895  0  1.007843  0  0  0.113028  0.131553  0  1.012511  0
H  H4  1  0.88348102  0.39171601  0.10505517  1  0  0.118754  0  0.920269  0  0  0.128961  0  0.978673  0  0  0.132788  0  0.975196  0  0  0.116626  0.126177  0  0.981169  0
H  H5  1  0.61687174  0.60840893  0.60501485  1  0  0.118908  0  0.920341  0  0  0.129228  0  0.978501  0  0  0.13304  0  0.975059  0  0  0.116671  0.126433  0  0.981021  0
H  H6  1  0.11645403  0.60821728  0.89497377  1  0  0.118806  0  0.920051  0  0  0.129223  0  0.978245  0  0  0.133038  0  0.974799  0  0  0.116835  0.126435  0  0.980748  0
H  H7  1  0.38359850  0.39157152  0.39492606  1  0  0.118809  0  0.92066  0  0  0.129033  0  0.978954  0  0  0.132857  0  0.975481  0  0  0.116672  0.126253  0  0.981444  0
H  H8  1  0.83730483  0.45126757  0.47996845  1  0  0.098749  0  0.943408  0  0  0.100692  0  1.018587  0  0  0.10474  0  1.013681  0  0  0.121408  0.097593  0  1.022444  0
H  H9  1  0.66274141  0.54867464  0.97998877  1  0  0.098893  0  0.943302  0  0  0.100589  0  1.018805  0  0  0.104627  0  1.013928  0  0  0.12141  0.097489  0  1.022663  0
H  H10  1  0.16300511  0.54877518  0.52005884  1  0  0.098715  0  0.94307  0  0  0.100741  0  1.01824  0  0  0.104797  0  1.013323  0  0  0.121312  0.097638  0  1.022103  0
H  H11  1  0.33707532  0.45135421  0.01998558  1  0  0.098964  0  0.943629  0  0  0.100761  0  1.018995  0  0  0.10481  0  1.014097  0  0  0.121436  0.097662  0  1.022857  0
H  H12  1  0.32910643  0.25303864  0.59655770  1  0  0.422674  0  0.882403  0  0  0.390969  0  0.948617  0  0  0.40162  0  0.933205  0  0  0.291274  0.38329  0  0.959736  0
H  H13  1  0.17060743  0.74710022  0.09653056  1  0  0.422904  0  0.881984  0  0  0.391194  0  0.948148  0  0  0.401832  0  0.932758  0  0  0.291529  0.383527  0  0.959247  0
H  H14  1  0.67065816  0.74706862  0.40341406  1  0  0.422551  0  0.882447  0  0  0.390799  0  0.948625  0  0  0.401428  0  0.933258  0  0  0.291373  0.383125  0  0.959735  0
H  H15  1  0.82916649  0.25296584  0.90352400  1  0  0.422329  0  0.882744  0  0  0.390576  0  0.948975  0  0  0.401224  0  0.933572  0  0  0.291026  0.382895  0  0.960097  0
H  H16  1  0.34231365  0.11203736  0.55624329  1  0  0.422045  0  0.885863  0  0  0.389788  0  0.951769  0  0  0.401719  0  0.934458  0  0  0.289646  0.381188  0  0.964229  0
H  H17  1  0.15750575  0.88812650  0.05626205  1  0  0.42242  0  0.885195  0  0  0.389846  0  0.95155  0  0  0.401796  0  0.934236  0  0  0.289677  0.38125  0  0.963997  0
H  H18  1  0.65754268  0.88804555  0.44377075  1  0  0.422436  0  0.885241  0  0  0.389901  0  0.951587  0  0  0.401862  0  0.934257  0  0  0.289633  0.381283  0  0.964072  0
H  H19  1  0.84222196  0.11191645  0.94383743  1  0  0.421849  0  0.886069  0  0  0.389486  0  0.952054  0  0  0.401429  0  0.934759  0  0  0.289538  0.380893  0  0.964496  0
Pb  Pb20  1  0.78124627  0.18300306  0.63016018  1  0  1.336787  0  1.424908  0  0  1.149068  0  1.826416  0  0  1.207103  0  1.782463  0  0  0.64328  1.10673  0  1.856692  0
Pb  Pb21  1  0.71820700  0.81688185  0.12997574  1  0  1.33684  0  1.424164  0  0  1.149144  0  1.825494  0  0  1.20717  0  1.781551  0  0  0.643343  1.106821  0  1.855757  0
Pb  Pb22  1  0.21857844  0.81699009  0.36988641  1  0  1.336944  0  1.424025  0  0  1.149231  0  1.825404  0  0  1.207274  0  1.781459  0  0  0.643455  1.106897  0  1.855671  0
Pb  Pb23  1  0.28113214  0.18290470  0.86986887  1  0  1.336868  0  1.424627  0  0  1.149138  0  1.826091  0  0  1.207187  0  1.782136  0  0  0.643286  1.106803  0  1.856363  0
C  C24  1  0.85848783  0.19214009  0.33401578  1  0  0.105291  0  3.734597  0  0  0.109126  0  3.974673  0  0  0.11185  0  3.993664  0  0  0.121003  0.107384  0  3.96167  0
C  C25  1  0.64153813  0.80785445  0.83386391  1  0  0.10467  0  3.735403  0  0  0.109207  0  3.974895  0  0  0.111928  0  3.993873  0  0  0.120822  0.107478  0  3.961879  0
C  C26  1  0.14170834  0.80785274  0.66607051  1  0  0.104535  0  3.735137  0  0  0.109026  0  3.974711  0  0  0.111733  0  3.993684  0  0  0.121101  0.107308  0  3.961684  0
C  C27  1  0.35851019  0.19216175  0.16604260  1  0  0.104415  0  3.735935  0  0  0.109032  0  3.975015  0  0  0.111737  0  3.993999  0  0  0.120933  0.107315  0  3.961984  0
C  C28  1  0.87714127  0.23241787  0.21762882  1  0  -0.108876  0  3.693058  0  0  -0.131516  0  3.948428  0  0  -0.137692  0  3.968941  0  0  -0.075935  -0.127627  0  3.934734  0
C  C29  1  0.62297776  0.76764259  0.71749298  1  0  -0.108462  0  3.692381  0  0  -0.131798  0  3.947676  0  0  -0.137977  0  3.968188  0  0  -0.075756  -0.127917  0  3.933973  0
C  C30  1  0.12293134  0.76755069  0.78244333  1  0  -0.108916  0  3.692795  0  0  -0.131755  0  3.948023  0  0  -0.137937  0  3.968543  0  0  -0.075981  -0.127878  0  3.934324  0
C  C31  1  0.37721849  0.23235229  0.28241794  1  0  -0.108713  0  3.692827  0  0  -0.131623  0  3.947873  0  0  -0.137797  0  3.968393  0  0  -0.076014  -0.127744  0  3.934177  0
C  C32  1  0.87539711  0.35712930  0.19499159  1  0  -0.000892  0  3.665716  0  0  -0.033269  0  3.923367  0  0  -0.028228  0  3.940087  0  0  -0.056989  -0.035864  0  3.911775  0
C  C33  1  0.62480741  0.64294151  0.69493886  1  0  -0.000962  0  3.665706  0  0  -0.033257  0  3.923282  0  0  -0.028214  0  3.939994  0  0  -0.057162  -0.035888  0  3.911667  0
C  C34  1  0.12461919  0.64283266  0.80504883  1  0  -0.000717  0  3.664992  0  0  -0.033262  0  3.922788  0  0  -0.028243  0  3.939483  0  0  -0.057233  -0.035865  0  3.911219  0
C  C35  1  0.37547513  0.35704912  0.30500115  1  0  -0.001185  0  3.666248  0  0  -0.033574  0  3.92392  0  0  -0.028535  0  3.940651  0  0  -0.057132  -0.036213  0  3.912314  0
C  C36  1  0.86219246  0.43908386  0.28933791  1  0  -0.106285  0  3.714733  0  0  -0.082597  0  3.956535  0  0  -0.094341  0  3.979421  0  0  -0.009826  -0.075562  0  3.941764  0
C  C37  1  0.63792742  0.56094152  0.78933812  1  0  -0.107111  0  3.715214  0  0  -0.083245  0  3.95685  0  0  -0.095  0  3.979746  0  0  -0.009755  -0.076093  0  3.941909  0
C  C38  1  0.13785803  0.56090478  0.71068315  1  0  -0.106645  0  3.715012  0  0  -0.082897  0  3.957006  0  0  -0.09459  0  3.979824  0  0  -0.009739  -0.075862  0  3.942213  0
C  C39  1  0.36220693  0.43906218  0.21062304  1  0  -0.106556  0  3.715099  0  0  -0.082745  0  3.956722  0  0  -0.094501  0  3.979635  0  0  -0.009748  -0.0756  0  3.941789  0
C  C40  1  0.84965672  0.39165399  0.40353812  1  0  0.142927  0  3.639855  0  0  0.100837  0  3.89669  0  0  0.110144  0  3.911409  0  0  0.064068  0.094455  0  3.887311  0
C  C41  1  0.65039790  0.60831639  0.90351713  1  0  0.143602  0  3.63922  0  0  0.101517  0  3.896206  0  0  0.110824  0  3.91091  0  0  0.064337  0.095104  0  3.886808  0
C  C42  1  0.15056452  0.60836461  0.59650060  1  0  0.14346  0  3.639224  0  0  0.10123  0  3.896197  0  0  0.11052  0  3.910899  0  0  0.064449  0.094846  0  3.886821  0
C  C43  1  0.34954879  0.39169841  0.09643697  1  0  0.14297  0  3.640125  0  0  0.100944  0  3.896946  0  0  0.110238  0  3.911657  0  0  0.064031  0.094539  0  3.887554  0
C  C44  1  0.84654255  0.05682151  0.36105948  1  0  0.638533  0  3.909166  0  0  0.579006  0  4.214082  0  0  0.614127  0  4.204627  0  0  0.220265  0.555603  0  4.218914  0
C  C45  1  0.65335307  0.94314540  0.86082881  1  0  0.638594  0  3.90912  0  0  0.578544  0  4.214582  0  0  0.613677  0  4.205075  0  0  0.219887  0.555133  0  4.219429  0
C  C46  1  0.15361400  0.94316473  0.63905058  1  0  0.640128  0  3.906974  0  0  0.579849  0  4.212752  0  0  0.61503  0  4.203186  0  0  0.220312  0.556428  0  4.217611  0
C  C47  1  0.34666793  0.05686977  0.13907153  1  0  0.639076  0  3.908996  0  0  0.579171  0  4.214056  0  0  0.614315  0  4.204547  0  0  0.220352  0.555766  0  4.218885  0
C  C48  1  0.85272682  0.57430791  0.26655427  1  0  0.650112  0  3.937372  0  0  0.594929  0  4.235454  0  0  0.629767  0  4.229406  0  0  0.209547  0.571817  0  4.237761  0
C  C49  1  0.64729912  0.42571095  0.76665456  1  0  0.650825  0  3.937097  0  0  0.595481  0  4.235426  0  0  0.630327  0  4.229355  0  0  0.209713  0.572347  0  4.237727  0
C  C50  1  0.14712004  0.42566621  0.73342446  1  0  0.650452  0  3.937218  0  0  0.595143  0  4.23551  0  0  0.629971  0  4.229442  0  0  0.209405  0.57205  0  4.237804  0
C  C51  1  0.35281532  0.57428621  0.23335593  1  0  0.650793  0  3.937154  0  0  0.595426  0  4.235504  0  0  0.630276  0  4.229441  0  0  0.209716  0.572282  0  4.237816  0
N  N52  1  0.84450557  0.27094003  0.42451617  1  0  -0.338426  0  3.216429  0  0  -0.265008  0  3.461524  0  0  -0.284566  0  3.48236  0  0  -0.288428  -0.251871  0  3.447243  0
N  N53  1  0.65551233  0.72902330  0.92441625  1  0  -0.338947  0  3.21685  0  0  -0.265645  0  3.461873  0  0  -0.285197  0  3.482683  0  0  -0.288744  -0.252517  0  3.447618  0
N  N54  1  0.15577496  0.72908335  0.57555251  1  0  -0.338871  0  3.216708  0  0  -0.265574  0  3.461738  0  0  -0.285144  0  3.482592  0  0  -0.288734  -0.252433  0  3.447447  0
N  N55  1  0.34441328  0.27099602  0.07550260  1  0  -0.338559  0  3.216655  0  0  -0.265434  0  3.461533  0  0  -0.28496  0  3.48234  0  0  -0.288583  -0.252327  0  3.447287  0
O  O56  1  0.77069830  0.02420374  0.46070094  1  0  -0.641879  0  1.99709  0  0  -0.569558  0  2.228133  0  0  -0.598912  0  2.217728  0  0  -0.293173  -0.548007  0  2.233784  0
O  O57  1  0.72906787  0.97575231  0.96048266  1  0  -0.641792  0  1.997268  0  0  -0.569463  0  2.228444  0  0  -0.598821  0  2.218089  0  0  -0.293195  -0.547931  0  2.234104  0
O  O58  1  0.22948503  0.97581458  0.53943382  1  0  -0.641827  0  1.996679  0  0  -0.569456  0  2.228001  0  0  -0.598796  0  2.217517  0  0  -0.29295  -0.547947  0  2.233739  0
O  O59  1  0.27084669  0.02425325  0.03944411  1  0  -0.642065  0  1.997601  0  0  -0.569666  0  2.22882  0  0  -0.599047  0  2.218452  0  0  -0.293314  -0.548127  0  2.234477  0
O  O60  1  0.91074357  0.98470336  0.28361497  1  0  -0.687824  0  2.024312  0  0  -0.620447  0  2.269572  0  0  -0.650371  0  2.263138  0  0  -0.301142  -0.600035  0  2.273356  0
O  O61  1  0.58909262  0.01525370  0.78331108  1  0  -0.687375  0  2.025481  0  0  -0.619802  0  2.271176  0  0  -0.64975  0  2.264731  0  0  -0.300372  -0.599368  0  2.274962  0
O  O62  1  0.08929161  0.01523206  0.71651267  1  0  -0.688615  0  2.023655  0  0  -0.620947  0  2.269355  0  0  -0.650916  0  2.262893  0  0  -0.301221  -0.600513  0  2.273148  0
O  O63  1  0.41097630  0.98474251  0.21656106  1  0  -0.687657  0  2.025003  0  0  -0.620146  0  2.270521  0  0  -0.650096  0  2.264073  0  0  -0.300678  -0.599722  0  2.274303  0
O  O64  1  0.83694330  0.60424930  0.15844819  1  0  -0.632507  0  1.989428  0  0  -0.562151  0  2.224948  0  0  -0.592452  0  2.218957  0  0  -0.294409  -0.540877  0  2.227646  0
O  O65  1  0.66307512  0.39579117  0.65857893  1  0  -0.632296  0  1.98854  0  0  -0.562077  0  2.224382  0  0  -0.592379  0  2.218385  0  0  -0.294574  -0.54081  0  2.227089  0
O  O66  1  0.16274254  0.39566655  0.84151902  1  0  -0.632301  0  1.988905  0  0  -0.5621  0  2.224829  0  0  -0.592402  0  2.218845  0  0  -0.294377  -0.540838  0  2.227521  0
O  O67  1  0.33709543  0.60420621  0.34143334  1  0  -0.632218  0  1.988286  0  0  -0.562026  0  2.224167  0  0  -0.592332  0  2.218171  0  0  -0.294472  -0.540753  0  2.226873  0
O  O68  1  0.85906274  0.64841032  0.35314473  1  0  -0.697872  0  1.997598  0  0  -0.633743  0  2.231398  0  0  -0.661852  0  2.223505  0  0  -0.314394  -0.613494  0  2.235892  0
O  O69  1  0.64084849  0.35160006  0.85330589  1  0  -0.6982  0  1.997952  0  0  -0.634064  0  2.2319  0  0  -0.662166  0  2.223972  0  0  -0.314446  -0.613822  0  2.236422  0
O  O70  1  0.14075509  0.35160486  0.64680054  1  0  -0.698164  0  1.998007  0  0  -0.63397  0  2.231987  0  0  -0.662108  0  2.22409  0  0  -0.314265  -0.61371  0  2.236473  0
O  O71  1  0.35917435  0.64842595  0.14671607  1  0  -0.69862  0  1.998247  0  0  -0.634373  0  2.232225  0  0  -0.662503  0  2.224294  0  0  -0.314406  -0.614119  0  2.236751  0
O  O72  1  0.42187479  0.19099184  0.56486554  1  0  -0.848778  0  1.870365  0  0  -0.779598  0  2.057682  0  0  -0.804178  0  2.02611  0  0  -0.555978  -0.76234  0  2.079982  0
O  O73  1  0.07786585  0.80919655  0.06483728  1  0  -0.849503  0  1.868938  0  0  -0.780151  0  2.056897  0  0  -0.804746  0  2.025248  0  0  -0.556504  -0.762902  0  2.079199  0
O  O74  1  0.57794846  0.80910003  0.43518376  1  0  -0.848966  0  1.870104  0  0  -0.779561  0  2.058127  0  0  -0.804175  0  2.026484  0  0  -0.556016  -0.76229  0  2.080454  0
O  O75  1  0.92189176  0.19083290  0.93519258  1  0  -0.84836  0  1.871036  0  0  -0.77884  0  2.058687  0  0  -0.80349  0  2.027131  0  0  -0.55561  -0.761582  0  2.080987  0
