# generated using pymatgen
data_MnH12(C4N5)2
_symmetry_space_group_name_H-M   'P 1'
_cell_length_a   6.89381464
_cell_length_b   9.41230634
_cell_length_c   9.41222975
_cell_angle_alpha   94.73778348
_cell_angle_beta   90.00183618
_cell_angle_gamma   89.99981893
_symmetry_Int_Tables_number   1
_chemical_formula_structural   MnH12(C4N5)2
_chemical_formula_sum   'Mn2 H24 C16 N20'
_cell_volume   608.64170767
_cell_formula_units_Z   2
loop_
 _symmetry_equiv_pos_site_id
 _symmetry_equiv_pos_as_xyz
  1  'x, y, z'
loop_
 _atom_site_type_symbol
 _atom_site_label
 _atom_site_symmetry_multiplicity
 _atom_site_fract_x
 _atom_site_fract_y
 _atom_site_fract_z
 _atom_site_occupancy
 _atom_site_hle17_ddec_charge
 _atom_site_hle17_ddec_spin_density
 _atom_site_hle17_ddec_sum_bond_order
 _atom_site_hle17_magmom
 _atom_site_hse06_10hf_ddec_charge
 _atom_site_hse06_10hf_ddec_spin_density
 _atom_site_hse06_10hf_ddec_sum_bond_order
 _atom_site_hse06_10hf_magmom
 _atom_site_hse06_ddec_charge
 _atom_site_hse06_ddec_spin_density
 _atom_site_hse06_ddec_sum_bond_order
 _atom_site_hse06_magmom
 _atom_site_pbe_cm5_charge
 _atom_site_pbe_ddec_charge
 _atom_site_pbe_ddec_spin_density
 _atom_site_pbe_ddec_sum_bond_order
 _atom_site_pbe_magmom
Mn  Mn0  1  0.25000194  0.99413657  0.00587112  1  1.003191  4.758083  2.011557  4.612  0.845352  4.664445  2.516263  4.454  0.897563  4.728841  2.45978  4.536  0.639471  0.803882  4.600513  2.558384  4.371
Mn  Mn1  1  0.74999124  0.00587878  0.99412860  1  1.003228  4.758132  2.01159  4.612  0.845417  4.664497  2.51627  4.454  0.897636  4.72889  2.459781  4.536  0.639457  0.803942  4.600573  2.558382  4.371
H  H2  1  0.25001816  0.33722673  0.02344831  1  0.093862  -0.000164  0.982169  0.0  0.104576  -5.4e-05  1.042318  0.0  0.10575  -0.000101  1.042979  0.0  0.11723  0.10366  5.7e-05  1.042151  0.0
H  H3  1  0.74999678  0.66277172  0.97655985  1  0.093863  -0.000142  0.982062  0.0  0.104561  -5.4e-05  1.042228  0.0  0.105738  -0.000102  1.042883  0.0  0.11724  0.103648  5.7e-05  1.042064  0.0
H  H4  1  0.75001883  0.02343804  0.33720104  1  0.093863  -0.000169  0.982181  0.0  0.104481  -5.4e-05  1.04245  0.0  0.105638  -0.000101  1.043148  0.0  0.117201  0.103575  5.7e-05  1.042269  0.0
H  H5  1  0.24999901  0.97655075  0.66280221  1  0.093667  -0.000167  0.982199  0.0  0.104404  -5.4e-05  1.042358  0.0  0.105567  -0.000101  1.043044  0.0  0.117189  0.103492  5.7e-05  1.042183  0.0
H  H6  1  0.24999901  0.34226328  0.47232275  1  0.300088  0.000315  0.868739  0.0  0.291711  0.000612  0.916412  0.0  0.297599  0.000474  0.912154  0.0  0.329866  0.286031  0.001413  0.921789  0.0
H  H7  1  0.74997096  0.65774787  0.52768095  1  0.300279  0.000309  0.868717  0.0  0.291882  0.000612  0.916393  0.0  0.297769  0.000474  0.912138  0.0  0.329969  0.286205  0.001412  0.921772  0.0
H  H8  1  0.74998177  0.47231667  0.34225967  1  0.300116  0.000315  0.868726  0.0  0.291646  0.000612  0.916501  0.0  0.297536  0.000474  0.912249  0.0  0.32989  0.285968  0.001413  0.921879  0.0
H  H9  1  0.24997080  0.52767203  0.65773826  1  0.300297  0.000315  0.868631  0.0  0.291866  0.000612  0.916341  0.0  0.297755  0.000474  0.912086  0.0  0.329902  0.286186  0.001413  0.921724  0.0
H  H10  1  0.24999718  0.51806418  0.27351605  1  0.108132  0.000434  0.987616  0.0  0.113477  0.000864  1.059191  0.0  0.11601  0.000733  1.057468  0.0  0.112343  0.110418  0.001695  1.062137  0.0
H  H11  1  0.74997134  0.48193197  0.72648132  1  0.108119  0.000439  0.987523  0.0  0.113468  0.000865  1.059106  0.0  0.116005  0.000733  1.057382  0.0  0.112328  0.110405  0.001696  1.06206  0.0
H  H12  1  0.74999184  0.27350154  0.51804415  1  0.107977  0.000439  0.987775  0.0  0.113414  0.000864  1.059281  0.0  0.115948  0.000732  1.057562  0.0  0.112326  0.110348  0.001695  1.062226  0.0
H  H13  1  0.24997523  0.72649252  0.48195627  1  0.10806  0.000436  0.987778  0.0  0.113445  0.000864  1.059337  0.0  0.115979  0.000732  1.057612  0.0  0.112337  0.110386  0.001695  1.06228  0.0
H  H14  1  0.37882223  0.05991162  0.46878659  1  0.120466  0.000131  0.967054  0.0  0.138143  0.000259  1.034535  0.0  0.13963  0.00021  1.034738  0.0  0.096526  0.137424  0.000289  1.033557  0.0
H  H15  1  0.87881205  0.94010723  0.53123975  1  0.120483  0.000132  0.967201  0.0  0.138172  0.000259  1.034599  0.0  0.139665  0.00021  1.03479  0.0  0.096556  0.137448  0.000289  1.033633  0.0
H  H16  1  0.62118910  0.46877734  0.05988560  1  0.120437  0.000131  0.967188  0.0  0.138156  0.000259  1.034573  0.0  0.139634  0.00021  1.034807  0.0  0.096519  0.137442  0.000289  1.033593  0.0
H  H17  1  0.12117313  0.53121555  0.94010004  1  0.120415  0.000131  0.967103  0.0  0.138124  0.000259  1.034541  0.0  0.139607  0.000211  1.034759  0.0  0.096523  0.137411  0.000289  1.033553  0.0
H  H18  1  0.62118981  0.94010615  0.53123136  1  0.120505  0.00013  0.96707  0.0  0.138193  0.000259  1.034488  0.0  0.139687  0.00021  1.034677  0.0  0.096546  0.137473  0.000289  1.033518  0.0
H  H19  1  0.12119273  0.05990183  0.46876593  1  0.120426  0.000133  0.967139  0.0  0.138143  0.000259  1.034542  0.0  0.139629  0.00021  1.034753  0.0  0.096553  0.137429  0.000289  1.033557  0.0
H  H20  1  0.37881713  0.53120482  0.94010233  1  0.120382  0.000133  0.967111  0.0  0.138093  0.000259  1.034554  0.0  0.139581  0.000211  1.034757  0.0  0.09651  0.137377  0.000289  1.033574  0.0
H  H21  1  0.87881860  0.46877859  0.05990463  1  0.120464  0.000128  0.967135  0.0  0.138179  0.000259  1.034548  0.0  0.13966  0.000211  1.034776  0.0  0.096557  0.137461  0.000289  1.033564  0.0
H  H22  1  0.25003101  0.95353120  0.33463273  1  0.134703  2.9e-05  0.967341  0.0  0.151835  0.00029  1.029885  0.0  0.152483  0.00016  1.031432  0.0  0.106276  0.151296  0.000385  1.028979  0.0
H  H23  1  0.75000279  0.04647154  0.66537783  1  0.13467  2.2e-05  0.967313  0.0  0.151781  0.000289  1.029897  0.0  0.152428  0.000159  1.031441  0.0  0.106272  0.151244  0.000385  1.028992  0.0
H  H24  1  0.75000999  0.33463642  0.95351713  1  0.134643  2.7e-05  0.967322  0.0  0.151706  0.00029  1.029977  0.0  0.152355  0.00016  1.031525  0.0  0.106275  0.151173  0.000385  1.02907  0.0
H  H25  1  0.25001220  0.66535440  0.04647989  1  0.13469  2.8e-05  0.967273  0.0  0.151758  0.00029  1.029898  0.0  0.152406  0.00016  1.031445  0.0  0.106299  0.151221  0.000385  1.028998  0.0
C  C26  1  0.25000902  0.31270540  0.13355038  1  0.000718  0.000299  3.753285  0.001  -0.032588  0.00148  4.019038  0.002  -0.031087  0.001199  4.0418  0.002  -0.005383  -0.033998  0.0028  4.00308  0.003
C  C27  1  0.74999866  0.68729079  0.86645018  1  0.000805  0.000228  3.752967  0.001  -0.032461  0.001478  4.018756  0.002  -0.030953  0.001195  4.0415  0.002  -0.005253  -0.033874  0.002797  4.002805  0.003
C  C28  1  0.75001371  0.13354257  0.31268763  1  0.000874  0.00036  3.753175  0.001  -0.032426  0.001481  4.018979  0.002  -0.030911  0.001199  4.041742  0.002  -0.005484  -0.033849  0.002801  4.003012  0.003
C  C29  1  0.24999542  0.86644727  0.68731463  1  0.001161  0.000337  3.753096  0.001  -0.032216  0.001481  4.018893  0.002  -0.030701  0.0012  4.041654  0.002  -0.005476  -0.033626  0.002801  4.002918  0.003
C  C30  1  0.25001540  0.05494125  0.39989273  1  -0.400694  -0.000365  3.712216  0.0  -0.482905  0.000521  3.950348  0.0  -0.486657  0.000307  3.957154  0.0  -0.233341  -0.479863  0.000793  3.9449  0.001
C  C31  1  0.75000098  0.94506679  0.60011607  1  -0.400772  -0.000353  3.712312  0.0  -0.482889  0.000522  3.950421  0.0  -0.486626  0.000307  3.957211  0.0  -0.233358  -0.479864  0.000794  3.944984  0.001
C  C32  1  0.75000461  0.39989662  0.05492795  1  -0.400649  -0.000347  3.712  0.0  -0.482823  0.000522  3.950394  0.0  -0.486587  0.000307  3.957192  0.0  -0.233364  -0.479788  0.000794  3.944957  0.001
C  C33  1  0.24999872  0.60009205  0.94506786  1  -0.400571  -0.000368  3.711863  0.0  -0.482865  0.000521  3.950302  0.0  -0.486621  0.000306  3.957106  0.0  -0.233394  -0.479826  0.000793  3.944862  0.001
C  C34  1  0.25000283  0.40282000  0.25575703  1  -0.020453  0.000446  3.700285  0.001  -0.059669  0.001426  3.970854  0.001  -0.057905  0.000797  3.98916  0.001  -0.010723  -0.059549  0.001538  3.957278  0.001
C  C35  1  0.74998455  0.59717822  0.74423623  1  -0.020649  0.000462  3.699896  0.001  -0.059854  0.001426  3.970453  0.001  -0.058088  0.0008  3.988758  0.001  -0.010929  -0.05974  0.001539  3.956885  0.001
C  C36  1  0.74999949  0.25575194  0.40279892  1  -0.020321  0.000384  3.700474  0.001  -0.059608  0.001425  3.970925  0.001  -0.05785  0.000797  3.989244  0.001  -0.010637  -0.059482  0.001538  3.957335  0.001
C  C37  1  0.24998208  0.74424631  0.59719646  1  -0.02056  0.000412  3.700563  0.001  -0.059832  0.001425  3.971126  0.001  -0.058071  0.000796  3.98944  0.001  -0.0107  -0.059714  0.001537  3.957541  0.001
C  C38  1  0.25000738  0.17621957  0.30993074  1  0.431938  0.005672  3.707467  0.006  0.414707  0.007742  3.967797  0.008  0.430587  0.006809  3.983001  0.007  0.227086  0.403636  0.007617  3.956608  0.007
C  C39  1  0.75000031  0.82378619  0.69006834  1  0.431988  0.005653  3.707318  0.006  0.414745  0.007738  3.967709  0.008  0.430622  0.006803  3.982908  0.007  0.227172  0.403681  0.007611  3.956501  0.007
C  C40  1  0.75000600  0.30992614  0.17620289  1  0.432158  0.005656  3.707018  0.006  0.414645  0.00775  3.967626  0.008  0.430545  0.006812  3.982834  0.007  0.227063  0.403558  0.007624  3.956428  0.007
C  C41  1  0.24999588  0.69007001  0.82379448  1  0.432024  0.005676  3.707109  0.006  0.414683  0.007748  3.967533  0.008  0.430585  0.006813  3.982733  0.007  0.227085  0.403595  0.007622  3.956335  0.007
N  N42  1  0.49561732  0.10670873  0.89328375  1  -0.576972  0.014192  2.751092  -0.008  -0.539243  0.032551  3.06881  0.001  -0.5647  0.017664  3.072094  -0.01  -0.284154  -0.520648  0.044775  3.066546  0.009
N  N43  1  0.99562928  0.89329891  0.10671375  1  -0.57672  0.014239  2.751247  -0.008  -0.538923  0.032537  3.068949  0.001  -0.564373  0.017653  3.072232  -0.01  -0.28395  -0.520338  0.044757  3.066705  0.009
N  N44  1  0.50438456  0.89329478  0.10670774  1  -0.577212  0.014266  2.750742  -0.008  -0.539424  0.032582  3.068394  0.001  -0.564897  0.017672  3.071683  -0.01  -0.284238  -0.520825  0.044792  3.066143  0.009
N  N45  1  0.00437550  0.10670457  0.89327561  1  -0.576893  0.014291  2.751196  -0.008  -0.539165  0.032549  3.068863  0.001  -0.564621  0.017643  3.072152  -0.01  -0.28413  -0.520576  0.044765  3.066606  0.009
N  N46  1  0.25001152  0.17270817  0.16821833  1  -0.435664  0.023963  3.210982  0.011  -0.369211  0.024446  3.490486  0.007  -0.392096  0.022104  3.506172  0.005  -0.345471  -0.350782  0.025454  3.477228  0.008
N  N47  1  0.74999906  0.82728796  0.83177798  1  -0.435691  0.023971  3.211077  0.011  -0.36924  0.024441  3.490489  0.007  -0.392177  0.022101  3.506301  0.005  -0.345539  -0.350807  0.025449  3.477206  0.008
N  N48  1  0.75001492  0.16821535  0.17268790  1  -0.435868  0.023972  3.210928  0.011  -0.369353  0.024451  3.49068  0.007  -0.392199  0.02211  3.506216  0.005  -0.3454  -0.350962  0.025461  3.477557  0.008
N  N49  1  0.25000002  0.83178516  0.82731614  1  -0.435716  0.023955  3.210641  0.011  -0.36927  0.024442  3.49035  0.007  -0.392108  0.0221  3.505878  0.005  -0.345343  -0.350906  0.025452  3.477269  0.008
N  N50  1  0.48770524  0.19363011  0.80636618  1  0.392523  -0.003775  4.220349  -0.001  0.431525  0.01213  4.497808  0.014  0.447465  0.004834  4.527976  0.007  0.081299  0.420171  0.01934  4.476901  0.021
N  N51  1  0.98771848  0.80637519  0.19361717  1  0.392465  -0.003777  4.220311  -0.001  0.431358  0.012124  4.49797  0.014  0.447301  0.004834  4.528139  0.007  0.081139  0.420005  0.019335  4.477065  0.02
N  N52  1  0.51229809  0.80636820  0.19363346  1  0.392724  -0.003769  4.219961  -0.001  0.431694  0.012137  4.497484  0.014  0.447637  0.004839  4.527644  0.007  0.081419  0.420342  0.019346  4.476585  0.021
N  N53  1  0.01229936  0.19363260  0.80637567  1  0.39248  -0.003747  4.220646  -0.001  0.431496  0.012123  4.498096  0.014  0.447441  0.004831  4.528267  0.007  0.081249  0.420139  0.019332  4.477189  0.02
N  N54  1  0.24999962  0.31421327  0.36580188  1  -0.331659  0.001055  3.421612  0.001  -0.273571  0.00231  3.649525  0.002  -0.289243  0.001743  3.663823  0.001  -0.382025  -0.262251  0.002553  3.639874  0.002
N  N55  1  0.74997905  0.68579565  0.63419529  1  -0.331823  0.00108  3.421308  0.001  -0.27373  0.002307  3.649299  0.002  -0.28941  0.001742  3.663599  0.001  -0.382066  -0.262403  0.002551  3.639648  0.002
N  N56  1  0.74999587  0.36579916  0.31420100  1  -0.331674  0.001069  3.42102  0.001  -0.273394  0.002309  3.64905  0.002  -0.289079  0.001745  3.663356  0.001  -0.381972  -0.262063  0.002554  3.639397  0.002
N  N57  1  0.24997845  0.63419481  0.68579304  1  -0.331791  0.001058  3.421192  0.001  -0.273587  0.00231  3.649133  0.002  -0.289274  0.001744  3.663438  0.001  -0.381977  -0.262251  0.002554  3.639481  0.002
N  N58  1  0.48218231  0.27837244  0.72162499  1  -0.439066  0.078574  2.37804  0.079  -0.449624  0.082935  2.613316  0.076  -0.456276  0.07843  2.622502  0.074  -0.225827  -0.4449  0.09074  2.608438  0.081
N  N59  1  0.98219237  0.72162113  0.27835637  1  -0.439249  0.078525  2.377723  0.079  -0.4497  0.082933  2.612955  0.076  -0.456361  0.078427  2.622145  0.074  -0.225888  -0.444971  0.090737  2.608092  0.081
N  N60  1  0.51781377  0.72163322  0.27836770  1  -0.439073  0.078516  2.378124  0.079  -0.449595  0.082901  2.613357  0.076  -0.456239  0.078421  2.622537  0.074  -0.225817  -0.444877  0.090718  2.608499  0.081
N  N61  1  0.01783272  0.27838994  0.72164200  1  -0.439139  0.078461  2.378137  0.079  -0.449671  0.082927  2.613345  0.076  -0.456331  0.07844  2.622531  0.074  -0.225836  -0.44494  0.090736  2.608467  0.081
