# generated using pymatgen
data_AlH18C27(NO2)3
_symmetry_space_group_name_H-M   'P 1'
_cell_length_a   3.94888048
_cell_length_b   15.95293224
_cell_length_c   15.42938946
_cell_angle_alpha   60.60394854
_cell_angle_beta   76.21754075
_cell_angle_gamma   79.04594553
_symmetry_Int_Tables_number   1
_chemical_formula_structural   AlH18C27(NO2)3
_chemical_formula_sum   'Al1 H18 C27 N3 O6'
_cell_volume   819.39017650
_cell_formula_units_Z   1
loop_
 _symmetry_equiv_pos_site_id
 _symmetry_equiv_pos_as_xyz
  1  'x, y, z'
loop_
 _atom_site_type_symbol
 _atom_site_label
 _atom_site_symmetry_multiplicity
 _atom_site_fract_x
 _atom_site_fract_y
 _atom_site_fract_z
 _atom_site_occupancy
 _atom_site_pbe_bader_charge
 _atom_site_pbe_bader_spin_density
 _atom_site_pbe_cm5_charge
 _atom_site_pbe_ddec_charge
 _atom_site_pbe_ddec_spin_density
 _atom_site_pbe_ddec_sum_bond_order
 _atom_site_pbe_magmom
Al  Al0  1  0.04005751  0.50395398  0.49176754  1  2.501411  0  0.426253  1.589087  0  2.576504  0
H  H1  1  0.38751505  0.95820369  0.14115879  1  0.093654  0  0.101766  0.103732  0  1.023662  0
H  H2  1  0.56256709  0.39720540  0.95884963  1  0.094207  0  0.10361  0.105555  0  1.026789  0
H  H3  1  0.66795840  0.13182103  0.40995692  1  0.124139  0  0.103774  0.107233  0  1.01301  0
H  H4  1  0.61885203  0.48908339  0.22663738  1  0.068443  0  0.107316  0.110715  0  0.98357  0
H  H5  1  0.58488007  0.39684997  0.13683050  1  0.124792  0  0.104507  0.104704  0  1.01711  0
H  H6  1  0.26587598  0.25299731  0.76931448  1  0.083431  0  0.106235  0.109153  0  0.992854  0
H  H7  1  0.28490166  0.15238690  0.95460184  1  0.082155  0  0.105001  0.108909  0  1.004543  0
H  H8  1  0.55822757  0.76571983  0.49831328  1  0.064085  0  0.105884  0.109192  0  0.985179  0
H  H9  1  0.55742781  0.94583001  0.41188097  1  0.095185  0  0.103443  0.103149  0  1.014606  0
H  H10  1  0.63893894  0.72678744  0.19074024  1  0.027059  0  0.092697  0.132025  0  0.997744  0
H  H11  1  0.19938741  0.70981320  0.25241955  1  0.053917  0  0.095371  0.140691  0  1.027078  0
H  H12  1  0.29903171  0.81648058  0.13686153  1  0.045058  0  0.090931  0.127645  0  0.998143  0
H  H13  1  0.00312771  0.20593482  0.54005385  1  0.0591  0  0.094286  0.139335  0  1.012798  0
H  H14  1  0.55871338  0.23800231  0.57459283  1  0.045692  0  0.095403  0.138885  0  0.999186  0
H  H15  1  0.67969101  0.13007164  0.56279103  1  0.044693  0  0.089879  0.12306  0  1.001837  0
H  H16  1  0.85823169  0.53512784  0.72265035  1  0.080143  0  0.095285  0.137854  0  1.015773  0
H  H17  1  0.41973578  0.57601045  0.70885666  1  0.064272  0  0.093687  0.134308  0  1.003388  0
H  H18  1  0.56110207  0.54849398  0.82234810  1  0.019763  0  0.089611  0.123757  0  0.998014  0
C  C19  1  0.49601681  0.65381685  0.41876109  1  1.561859  0  0.28285  0.672006  0  4.036793  0
C  C20  1  0.65829161  0.42305997  0.41651031  1  1.546048  0  0.280183  0.662227  0  4.045593  0
C  C21  1  0.45550459  0.43108084  0.64784062  1  1.535478  0  0.275271  0.653317  0  4.060418  0
C  C22  1  0.47710459  0.76177418  0.36706014  1  -0.055715  0  -0.002653  -0.080326  0  3.905538  0
C  C23  1  0.42624254  0.37917430  0.75949035  1  0.000447  0  -0.008012  -0.102854  0  3.910416  0
C  C24  1  0.67951394  0.36172233  0.36712089  1  0.079866  0  -0.004782  -0.08632  0  3.899726  0
C  C25  1  0.43041872  0.81458864  0.26543414  1  0.101391  0  -0.000932  0.155149  0  3.94692  0
C  C26  1  0.42635579  0.91489712  0.21941756  1  -0.072351  0  -0.080591  -0.158384  0  3.923542  0
C  C27  1  0.50503622  0.42284637  0.81231732  1  0.005508  0  0.005362  0.1686  0  3.924331  0
C  C28  1  0.50117037  0.36628281  0.91580863  1  0.028272  0  -0.081453  -0.163811  0  3.920042  0
C  C29  1  0.70072297  0.25993234  0.42075388  1  -0.022106  0  0.003209  0.159808  0  3.933493  0
C  C30  1  0.66680574  0.21030668  0.36989598  1  -0.132113  0  -0.079406  -0.160092  0  3.911013  0
C  C31  1  0.63955708  0.41040754  0.26532958  1  -0.093062  0  -0.082377  -0.089326  0  4.001129  0
C  C32  1  0.61831723  0.35981158  0.21553425  1  0.03033  0  -0.083143  -0.104319  0  3.989254  0
C  C33  1  0.33645889  0.28329907  0.81168900  1  -0.017279  0  -0.079107  -0.080245  0  3.983365  0
C  C34  1  0.34513225  0.22752817  0.91433343  1  -0.065334  0  -0.083632  -0.11241  0  3.976246  0
C  C35  1  0.51839467  0.80852784  0.42005285  1  0.04554  0  -0.084968  -0.099863  0  4.003102  0
C  C36  1  0.51827606  0.90848970  0.37240172  1  -0.068076  0  -0.081555  -0.10115  0  3.98381  0
C  C37  1  0.47311344  0.96254418  0.27116537  1  -0.05642  0  -0.009235  0.00429  0  3.993343  0
C  C38  1  0.48397373  0.06835752  0.21836674  1  1.110875  0  0.258364  0.388056  0  4.004091  0
C  C39  1  0.43325988  0.26887439  0.96706790  1  -0.09064  0  -0.000628  0.022187  0  3.978787  0
C  C40  1  0.46514524  0.21181046  0.07510489  1  1.118067  0  0.256215  0.379822  0  4.02392  0
C  C41  1  0.62304257  0.25875181  0.26854667  1  -0.013977  0  -0.004252  0.015422  0  3.980021  0
C  C42  1  0.56654740  0.20633343  0.21714370  1  1.084782  0  0.256294  0.379114  0  4.024202  0
C  C43  1  0.38908407  0.76441157  0.20814471  1  -0.049785  0  -0.240851  -0.420759  0  3.961607  0
C  C44  1  0.73665291  0.20540625  0.53048474  1  -0.073739  0  -0.237964  -0.417979  0  3.965836  0
C  C45  1  0.58864541  0.52622267  0.76392447  1  -0.077708  0  -0.238858  -0.412328  0  3.96648  0
N  N46  1  0.43314243  0.11645131  0.12153233  1  -1.227733  0  -0.310958  -0.414537  0  3.206538  0
N  N47  1  0.53219734  0.25976250  0.11951967  1  -1.199688  0  -0.30883  -0.410522  0  3.243369  0
N  N48  1  0.54948864  0.11021533  0.26953389  1  -1.196877  0  -0.308603  -0.412353  0  3.210523  0
O  O49  1  0.26743464  0.40996823  0.60555821  1  -1.257507  0  -0.238875  -0.598403  0  2.353304  0
O  O50  1  0.22978370  0.61278745  0.48115678  1  -1.245455  0  -0.234111  -0.58776  0  2.342725  0
O  O51  1  0.41217276  0.49172456  0.39614406  1  -1.260324  0  -0.244296  -0.621475  0  2.396812  0
O  O52  1  0.67778294  0.49447045  0.59911649  1  -1.2485  0  -0.235626  -0.607905  0  2.449474  0
O  O53  1  0.87179222  0.40669401  0.47422114  1  -1.241921  0  -0.224885  -0.574677  0  2.348661  0
O  O54  1  0.78228460  0.61020588  0.39660056  1  -1.253353  0  -0.232105  -0.591187  0  2.372802  0
