# generated using pymatgen
data_ZnH20C24(NO)4
_symmetry_space_group_name_H-M   'P 1'
_cell_length_a   9.86269694
_cell_length_b   10.52199764
_cell_length_c   12.90688969
_cell_angle_alpha   76.55992582
_cell_angle_beta   67.28047179
_cell_angle_gamma   62.03559846
_symmetry_Int_Tables_number   1
_chemical_formula_structural   ZnH20C24(NO)4
_chemical_formula_sum   'Zn2 H40 C48 N8 O8'
_cell_volume   1089.06238940
_cell_formula_units_Z   2
loop_
 _symmetry_equiv_pos_site_id
 _symmetry_equiv_pos_as_xyz
  1  'x, y, z'
loop_
 _atom_site_type_symbol
 _atom_site_label
 _atom_site_symmetry_multiplicity
 _atom_site_fract_x
 _atom_site_fract_y
 _atom_site_fract_z
 _atom_site_occupancy
 _atom_site_hle17_bader_spin_density
 _atom_site_hle17_ddec_charge
 _atom_site_hle17_ddec_spin_density
 _atom_site_hle17_ddec_sum_bond_order
 _atom_site_hle17_magmom
 _atom_site_hse06_10hf_bader_spin_density
 _atom_site_hse06_10hf_ddec_charge
 _atom_site_hse06_10hf_ddec_spin_density
 _atom_site_hse06_10hf_ddec_sum_bond_order
 _atom_site_hse06_10hf_magmom
 _atom_site_hse06_bader_spin_density
 _atom_site_hse06_ddec_charge
 _atom_site_hse06_ddec_spin_density
 _atom_site_hse06_ddec_sum_bond_order
 _atom_site_hse06_magmom
 _atom_site_pbe_bader_charge
 _atom_site_pbe_bader_spin_density
 _atom_site_pbe_cm5_charge
 _atom_site_pbe_ddec_charge
 _atom_site_pbe_ddec_spin_density
 _atom_site_pbe_ddec_sum_bond_order
 _atom_site_pbe_magmom
Zn  Zn0  1  0.74016600  0.74896527  0.24958020  1  0  0.951179  0  1.902466  0  0  0.764161  0  2.359384  0  0  0.813583  0  2.307624  0  1.262165  0  0.676289  0.729976  0  2.394482  0
Zn  Zn1  1  0.25983215  0.25103550  0.75042068  1  0  0.951117  0  1.90251  0  0  0.764103  0  2.359417  0  0  0.813523  0  2.307667  0  1.262212  0  0.676266  0.729916  0  2.394517  0
H  H2  1  0.51606033  0.89480597  0.11729036  1  0  0.083077  0  0.956394  0  0  0.08488  0  1.03199  0  0  0.088324  0  1.028493  0  0.130029  0  0.115954  0.082161  0  1.034929  0
H  H3  1  0.47261553  0.39613227  0.61722113  1  0  0.082525  0  0.957289  0  0  0.084432  0  1.032745  0  0  0.087934  0  1.029119  0  0.13187  0  0.115889  0.08172  0  1.035684  0
H  H4  1  0.48394275  0.10519588  0.88270832  1  0  0.083063  0  0.956413  0  0  0.08489  0  1.031988  0  0  0.088333  0  1.028493  0  0.129882  0  0.115955  0.08217  0  1.034926  0
H  H5  1  0.52738440  0.60386311  0.38277861  1  0  0.082459  0  0.957308  0  0  0.084378  0  1.032741  0  0  0.087882  0  1.029113  0  0.131819  0  0.115868  0.081672  0  1.035688  0
H  H6  1  0.46009322  0.84925117  0.96407519  1  0  0.114196  0  0.955483  0  0  0.12373  0  1.017362  0  0  0.127077  0  1.015795  0  0.122171  0  0.112307  0.121092  0  1.01903  0
H  H7  1  0.72802544  0.34966318  0.46287580  1  0  0.113601  0  0.95674  0  0  0.123646  0  1.017831  0  0  0.127048  0  1.016258  0  0.106719  0  0.112144  0.120969  0  1.019469  0
H  H8  1  0.53990830  0.15075068  0.03592395  1  0  0.114169  0  0.95549  0  0  0.1237  0  1.01737  0  0  0.12705  0  1.015792  0  0.122161  0  0.112296  0.121058  0  1.019051  0
H  H9  1  0.27197449  0.65033220  0.53712613  1  0  0.11359  0  0.95667  0  0  0.123622  0  1.017787  0  0  0.127013  0  1.016227  0  0.106662  0  0.112132  0.120945  0  1.019423  0
H  H10  1  0.44180890  0.81641013  0.82748463  1  0  0.113351  0  0.999085  0  0  0.119268  0  1.065922  0  0  0.123557  0  1.063239  0  0.120931  0  0.102335  0.115769  0  1.068609  0
H  H11  1  0.91564601  0.31637579  0.32619283  1  0  0.112909  0  1.000201  0  0  0.119523  0  1.066314  0  0  0.123918  0  1.063478  0  0.089922  0  0.102273  0.115949  0  1.069067  0
H  H12  1  0.55819005  0.18359387  0.17251596  1  0  0.113357  0  0.999085  0  0  0.119289  0  1.065909  0  0  0.123579  0  1.063222  0  0.120973  0  0.102341  0.115791  0  1.068595  0
H  H13  1  0.08435288  0.68361851  0.67380961  1  0  0.112861  0  1.000235  0  0  0.119461  0  1.066367  0  0  0.123863  0  1.063522  0  0.089889  0  0.102233  0.115888  0  1.069121  0
H  H14  1  0.40851901  0.76064076  0.66848530  1  0  0.061859  0  0.969747  0  0  0.069849  0  1.034557  0  0  0.071631  0  1.034491  0  0.062249  0  0.103171  0.06856  0  1.034717  0
H  H15  1  0.16445699  0.26025708  0.16665185  1  0  0.061344  0  0.972029  0  0  0.069166  0  1.037019  0  0  0.070907  0  1.037019  0  0.096171  0  0.103196  0.067919  0  1.037153  0
H  H16  1  0.59148201  0.23936540  0.33151317  1  0  0.061857  0  0.969789  0  0  0.069817  0  1.034635  0  0  0.071592  0  1.034586  0  0.062302  0  0.103142  0.068533  0  1.034788  0
H  H17  1  0.83553907  0.73974153  0.83334896  1  0  0.061291  0  0.971989  0  0  0.069132  0  1.036974  0  0  0.07088  0  1.036964  0  0.096115  0  0.103179  0.067884  0  1.037109  0
H  H18  1  0.73826350  0.33554024  0.68289339  1  0  0.055024  0  0.972168  0  0  0.062736  0  1.042932  0  0  0.064498  0  1.042323  0  0.052736  0  0.104348  0.061496  0  1.04325  0
H  H19  1  0.24465354  0.83513470  0.18220636  1  0  0.05462  0  0.973398  0  0  0.06209  0  1.04456  0  0  0.063907  0  1.043905  0  0.047916  0  0.104237  0.060907  0  1.044815  0
H  H20  1  0.26173752  0.66446592  0.31710399  1  0  0.05506  0  0.972075  0  0  0.062768  0  1.042863  0  0  0.064527  0  1.042257  0  0.052704  0  0.104358  0.061551  0  1.043157  0
H  H21  1  0.75534770  0.16486284  0.81779313  1  0  0.054547  0  0.973266  0  0  0.062015  0  1.044449  0  0  0.063833  0  1.043791  0  0.04797  0  0.104201  0.060833  0  1.044701  0
H  H22  1  0.79039394  0.36912305  0.84512336  1  0  0.118558  0  0.968935  0  0  0.127138  0  1.031979  0  0  0.13095  0  1.030003  0  0.109315  0  0.107346  0.124051  0  1.033909  0
H  H23  1  0.99546373  0.86923180  0.34489295  1  0  0.120656  0  0.969358  0  0  0.128778  0  1.032605  0  0  0.132522  0  1.030719  0  0.102935  0  0.108184  0.125741  0  1.034516  0
H  H24  1  0.20960629  0.63087987  0.15487651  1  0  0.118556  0  0.968991  0  0  0.127153  0  1.031994  0  0  0.130963  0  1.030023  0  0.109302  0  0.107365  0.124067  0  1.033923  0
H  H25  1  0.00453750  0.13076251  0.65510826  1  0  0.120662  0  0.969366  0  0  0.128809  0  1.032584  0  0  0.132552  0  1.030698  0  0.102911  0  0.108175  0.125772  0  1.034495  0
H  H26  1  0.83299083  0.41132259  0.97187531  1  0  0.131424  0  0.97585  0  0  0.138359  0  1.038768  0  0  0.142688  0  1.036124  0  0.165814  0  0.111262  0.135042  0  1.041106  0
H  H27  1  0.78215895  0.91254940  0.47178713  1  0  0.130763  0  0.975204  0  0  0.138163  0  1.037505  0  0  0.142518  0  1.034821  0  0.158978  0  0.111335  0.13479  0  1.039929  0
H  H28  1  0.16701276  0.58867818  0.02812452  1  0  0.131456  0  0.975871  0  0  0.138396  0  1.038778  0  0  0.142728  0  1.03613  0  0.165732  0  0.11126  0.13508  0  1.041116  0
H  H29  1  0.21783711  0.08744922  0.52821259  1  0  0.130722  0  0.975255  0  0  0.138129  0  1.037552  0  0  0.142484  0  1.034869  0  0.159003  0  0.111305  0.134747  0  1.039986  0
H  H30  1  0.86935120  0.47707581  0.12850222  1  0  0.086601  0  0.932687  0  0  0.095819  0  0.994054  0  0  0.098237  0  0.992424  0  0.120063  0  0.120333  0.09406  0  0.995273  0
H  H31  1  0.52253907  0.97929885  0.62936348  1  0  0.085995  0  0.934423  0  0  0.095585  0  0.995563  0  0  0.098017  0  0.993897  0  0.120826  0  0.120407  0.093807  0  0.996833  0
H  H32  1  0.13065006  0.52292496  0.87149665  1  0  0.086593  0  0.932686  0  0  0.095799  0  0.994065  0  0  0.098219  0  0.992428  0  0.119799  0  0.120329  0.094041  0  0.995282  0
H  H33  1  0.47745829  0.02069869  0.37063552  1  0  0.085962  0  0.93447  0  0  0.095605  0  0.995563  0  0  0.098037  0  0.993897  0  0.120992  0  0.120385  0.093822  0  0.996838  0
H  H34  1  0.82344779  0.09979749  0.00485574  1  0  0.097629  0  0.937875  0  0  0.111496  0  1.00314  0  0  0.113618  0  1.002224  0  0.027881  0  0.098572  0.110144  0  1.003756  0
H  H35  1  0.07243614  0.59943723  0.50461077  1  0  0.095142  0  0.939004  0  0  0.10964  0  1.003878  0  0  0.111767  0  1.00295  0  0.076302  0  0.097517  0.108264  0  1.004512  0
H  H36  1  0.17655269  0.90020328  0.99514610  1  0  0.097631  0  0.93786  0  0  0.111488  0  1.00311  0  0  0.11362  0  1.002205  0  0.02772  0  0.09857  0.110136  0  1.003728  0
H  H37  1  0.92756565  0.40056570  0.49538863  1  0  0.095137  0  0.939097  0  0  0.109656  0  1.00395  0  0  0.111784  0  1.003022  0  0.076348  0  0.097507  0.108279  0  1.004585  0
H  H38  1  0.91263036  0.09823630  0.09916990  1  0  0.104707  0  0.922188  0  0  0.121651  0  0.978182  0  0  0.123365  0  0.978979  0  0.055576  0  0.10152  0.120479  0  0.977729  0
H  H39  1  0.88948118  0.59834073  0.59920669  1  0  0.10389  0  0.922339  0  0  0.120833  0  0.978582  0  0  0.122558  0  0.979354  0  0.048248  0  0.101303  0.119627  0  0.978166  0
H  H40  1  0.08736832  0.90176663  0.90083152  1  0  0.104657  0  0.922265  0  0  0.121601  0  0.97824  0  0  0.123326  0  0.979044  0  0.055614  0  0.101493  0.120429  0  0.977787  0
H  H41  1  0.11051776  0.40166328  0.40079389  1  0  0.103914  0  0.922356  0  0  0.120858  0  0.978596  0  0  0.122602  0  0.979345  0  0.048246  0  0.1013  0.119653  0  0.978178  0
C  C42  1  0.58344253  0.78864512  0.08323963  1  0  0.136064  0  3.699425  0  0  0.101096  0  3.958784  0  0  0.108545  0  3.97572  0  0.46542  0  0.049405  0.096333  0  3.947269  0
C  C43  1  0.54479710  0.28997358  0.58311000  1  0  0.13432  0  3.700675  0  0  0.099571  0  3.959943  0  0  0.107001  0  3.977002  0  0.456011  0  0.048488  0.094796  0  3.948302  0
C  C44  1  0.41656080  0.21135457  0.91675884  1  0  0.1361  0  3.69936  0  0  0.101089  0  3.958728  0  0  0.108534  0  3.975666  0  0.465237  0  0.049414  0.096329  0  3.947211  0
C  C45  1  0.45519921  0.71002288  0.41689061  1  0  0.13444  0  3.700543  0  0  0.099686  0  3.959824  0  0  0.107116  0  3.976882  0  0.456343  0  0.048496  0.094897  0  3.948197  0
C  C46  1  0.55204538  0.76130707  0.99685807  1  0  -0.15172  0  3.686047  0  0  -0.171349  0  3.938708  0  0  -0.178779  0  3.958283  0  -0.067529  0  -0.075732  -0.166375  0  3.92557  0
C  C47  1  0.69023942  0.26217191  0.49608211  1  0  -0.151057  0  3.687829  0  0  -0.17082  0  3.939988  0  0  -0.17835  0  3.959638  0  -0.005241  0  -0.076162  -0.165693  0  3.926705  0
C  C48  1  0.44795743  0.23869370  0.00314035  1  0  -0.151669  0  3.686005  0  0  -0.171291  0  3.938675  0  0  -0.178717  0  3.958252  0  -0.067514  0  -0.075716  -0.16632  0  3.925536  0
C  C49  1  0.30975613  0.73782778  0.50391865  1  0  -0.151046  0  3.687769  0  0  -0.170809  0  3.939933  0  0  -0.178336  0  3.959591  0  -0.005105  0  -0.07617  -0.165682  0  3.926652  0
C  C50  1  0.64124721  0.62485506  0.95227388  1  0  0.098246  0  3.745441  0  0  0.108081  0  3.978336  0  0  0.113063  0  3.999134  0  0.011979  0  0.015075  0.104828  0  3.963981  0
C  C51  1  0.78137153  0.12563258  0.45165150  1  0  0.097386  0  3.747353  0  0  0.106901  0  3.981321  0  0  0.111861  0  4.002185  0  -0.062812  0  0.015521  0.103705  0  3.966889  0
C  C52  1  0.35875587  0.37514679  0.04772589  1  0  0.098224  0  3.745409  0  0  0.108039  0  3.978272  0  0  0.113022  0  3.999067  0  0.011565  0  0.015046  0.104788  0  3.963918  0
C  C53  1  0.21862816  0.87436496  0.54834845  1  0  0.097384  0  3.747446  0  0  0.106914  0  3.981387  0  0  0.111876  0  4.002249  0  -0.062995  0  0.015557  0.10372  0  3.966949  0
C  C54  1  0.61723193  0.59594504  0.85521730  1  0  0.079311  0  3.763876  0  0  0.092886  0  3.992582  0  0  0.094589  0  4.015955  0  -0.023158  0  0.006057  0.091905  0  3.976488  0
C  C55  1  0.93207631  0.09615220  0.35433803  1  0  0.081891  0  3.766971  0  0  0.094324  0  3.997218  0  0  0.096065  0  4.020558  0  -0.021189  0  0.005367  0.093316  0  3.981146  0
C  C56  1  0.38276959  0.40405681  0.14478184  1  0  0.079192  0  3.76398  0  0  0.092862  0  3.992546  0  0  0.094565  0  4.01592  0  -0.022547  0  0.006033  0.091881  0  3.976454  0
C  C57  1  0.06792207  0.90384318  0.64566326  1  0  0.081763  0  3.767226  0  0  0.094199  0  3.997435  0  0  0.095938  0  4.02078  0  -0.021093  0  0.00529  0.093193  0  3.981362  0
C  C58  1  0.51060275  0.70594955  0.80153810  1  0  -0.166398  0  3.705043  0  0  -0.183627  0  3.945791  0  0  -0.190396  0  3.966666  0  -0.02947  0  -0.088129  -0.178863  0  3.931776  0
C  C59  1  0.98306331  0.20591197  0.30026366  1  0  -0.167661  0  3.709458  0  0  -0.185098  0  3.950151  0  0  -0.191965  0  3.970971  0  0.019677  0  -0.088025  -0.18023  0  3.936165  0
C  C60  1  0.48939749  0.29405337  0.19845957  1  0  -0.166357  0  3.705002  0  0  -0.18363  0  3.945701  0  0  -0.190399  0  3.966576  0  -0.02946  0  -0.088134  -0.178867  0  3.931688  0
C  C61  1  0.01693534  0.79408449  0.69973680  1  0  -0.167546  0  3.709489  0  0  -0.184959  0  3.950148  0  0  -0.19183  0  3.97097  0  0.019563  0  -0.087957  -0.180095  0  3.936163  0
C  C62  1  0.49154819  0.67530799  0.71009670  1  0  0.114682  0  3.759146  0  0  0.094174  0  4.012448  0  0  0.099213  0  4.030486  0  0.494849  0  0.036065  0.090845  0  4.000143  0
C  C63  1  0.12477874  0.17500194  0.20851038  1  0  0.11536  0  3.760204  0  0  0.095084  0  4.013325  0  0  0.100153  0  4.031371  0  0.466146  0  0.035565  0.091749  0  4.000931  0
C  C64  1  0.50845102  0.32469710  0.28990196  1  0  0.114738  0  3.759191  0  0  0.094251  0  4.012489  0  0  0.099291  0  4.030523  0  0.494444  0  0.036133  0.090921  0  4.000185  0
C  C65  1  0.87521913  0.82499452  0.79149086  1  0  0.115532  0  3.760081  0  0  0.095238  0  4.013188  0  0  0.1003  0  4.031242  0  0.466172  0  0.035672  0.091905  0  4.000793  0
C  C66  1  0.67352458  0.44065526  0.71869983  1  0  0.109166  0  3.761115  0  0  0.086867  0  4.019323  0  0  0.091077  0  4.03906  0  0.470037  0  0.036312  0.084055  0  4.005835  0
C  C67  1  0.16835199  0.94039850  0.21779178  1  0  0.109857  0  3.762163  0  0  0.087795  0  4.019608  0  0  0.091973  0  4.039282  0  0.483406  0  0.035646  0.084981  0  4.00606  0
C  C68  1  0.32647514  0.55934874  0.28129560  1  0  0.109184  0  3.76082  0  0  0.086869  0  4.019058  0  0  0.091079  0  4.0388  0  0.47025  0  0.036309  0.084041  0  4.005563  0
C  C69  1  0.83165027  0.05959688  0.78220782  1  0  0.109942  0  3.761916  0  0  0.087871  0  4.019385  0  0  0.092051  0  4.039055  0  0.483437  0  0.035657  0.085058  0  4.005835  0
C  C70  1  0.70157569  0.45956204  0.81078173  1  0  -0.154771  0  3.677794  0  0  -0.172651  0  3.920182  0  0  -0.179294  0  3.941845  0  -0.028969  0  -0.082752  -0.168286  0  3.905808  0
C  C71  1  0.02861807  0.95957590  0.31015940  1  0  -0.158623  0  3.680198  0  0  -0.175515  0  3.922351  0  0  -0.182124  0  3.944049  0  -0.044196  0  -0.082807  -0.171136  0  3.907906  0
C  C72  1  0.29842429  0.54044305  0.18921615  1  0  -0.154788  0  3.677843  0  0  -0.172721  0  3.920237  0  0  -0.17936  0  3.941886  0  -0.029036  0  -0.08276  -0.168358  0  3.905871  0
C  C73  1  0.97138393  0.04041840  0.68984213  1  0  -0.158628  0  3.680333  0  0  -0.175535  0  3.922441  0  0  -0.182143  0  3.944138  0  -0.044167  0  -0.082789  -0.171155  0  3.907994  0
C  C74  1  0.75702671  0.51971525  0.00165234  1  0  -0.161011  0  3.669255  0  0  -0.178809  0  3.915411  0  0  -0.186574  0  3.935029  0  0.003506  0  -0.078543  -0.173512  0  3.902088  0
C  C75  1  0.72035026  0.02092726  0.50149726  1  0  -0.159931  0  3.66799  0  0  -0.177487  0  3.913482  0  0  -0.185272  0  3.933115  0  -0.029672  0  -0.078983  -0.172149  0  3.900151  0
C  C76  1  0.24297482  0.48028660  0.99834680  1  0  -0.161034  0  3.669275  0  0  -0.178844  0  3.915429  0  0  -0.186609  0  3.935044  0  0.00353  0  -0.078557  -0.173546  0  3.902106  0
C  C77  1  0.27964994  0.97906920  0.49850275  1  0  -0.159872  0  3.668011  0  0  -0.177448  0  3.913511  0  0  -0.185234  0  3.933147  0  -0.029666  0  -0.078922  -0.172102  0  3.900183  0
C  C78  1  0.77996382  0.55538539  0.08880853  1  0  0.136774  0  3.692686  0  0  0.106983  0  3.94054  0  0  0.114316  0  3.958537  0  0.395893  0  0.051106  0.102152  0  3.928191  0
C  C79  1  0.57421247  0.05714188  0.58919126  1  0  0.138117  0  3.689569  0  0  0.10776  0  3.937513  0  0  0.115103  0  3.955491  0  0.448197  0  0.052043  0.102934  0  3.925173  0
C  C80  1  0.22003615  0.44461646  0.91119107  1  0  0.136788  0  3.692674  0  0  0.106994  0  3.940515  0  0  0.114328  0  3.958514  0  0.396192  0  0.051112  0.102163  0  3.928167  0
C  C81  1  0.42578539  0.94285457  0.41080889  1  0  0.138259  0  3.689604  0  0  0.107854  0  3.93756  0  0  0.115196  0  3.955538  0  0.448129  0  0.052081  0.103029  0  3.925214  0
C  C82  1  0.86960617  0.91300438  0.11767524  1  0  0.682474  0  3.850586  0  0  0.637342  0  4.146308  0  0  0.670234  0  4.140582  0  1.541784  0  0.195644  0.615103  0  4.149178  0
C  C83  1  0.09912293  0.41274254  0.61756949  1  0  0.683786  0  3.848208  0  0  0.638846  0  4.143907  0  0  0.671712  0  4.138174  0  1.509568  0  0.196882  0.616603  0  4.146804  0
C  C84  1  0.13039637  0.08699531  0.88232839  1  0  0.682524  0  3.850685  0  0  0.637392  0  4.146378  0  0  0.670297  0  4.140662  0  1.541771  0  0.195638  0.615152  0  4.149254  0
C  C85  1  0.90087471  0.58725931  0.38243135  1  0  0.683795  0  3.848152  0  0  0.63885  0  4.143879  0  0  0.671713  0  4.138149  0  1.509501  0  0.196878  0.616608  0  4.146776  0
C  C86  1  0.91714605  0.02940059  0.04426942  1  0  -0.240959  0  3.729146  0  0  -0.280924  0  3.980393  0  0  -0.286345  0  3.989362  0  0.009116  0  -0.168554  -0.277411  0  3.974194  0
C  C87  1  0.00907452  0.52924626  0.54418280  1  0  -0.237457  0  3.725201  0  0  -0.277922  0  3.976433  0  0  -0.283339  0  3.985398  0  -0.013064  0  -0.1669  -0.274334  0  3.970093  0
C  C88  1  0.08285392  0.97060125  0.95573237  1  0  -0.240936  0  3.729225  0  0  -0.280814  0  3.980384  0  0  -0.286306  0  3.989402  0  -0.00378  0  -0.168514  -0.277302  0  3.974184  0
C  C89  1  0.99092260  0.47075667  0.45581798  1  0  -0.237616  0  3.725338  0  0  -0.278114  0  3.976583  0  0  -0.283543  0  3.985542  0  -0.047173  0  -0.166959  -0.274529  0  3.970247  0
N  N90  1  0.69585696  0.68781690  0.12870080  1  0  -0.325297  0  3.309836  0  0  -0.242931  0  3.578656  0  0  -0.262181  0  3.59515  0  -1.259005  0  -0.329731  -0.229884  0  3.567268  0
N  N91  1  0.48679162  0.18957447  0.62907802  1  0  -0.322994  0  3.306795  0  0  -0.240892  0  3.575719  0  0  -0.260192  0  3.592262  0  -1.25428  0  -0.329424  -0.227772  0  3.564294  0
N  N92  1  0.30414481  0.31218279  0.87129813  1  0  -0.325331  0  3.309697  0  0  -0.242929  0  3.578497  0  0  -0.262177  0  3.594991  0  -1.258639  0  -0.329735  -0.229883  0  3.567112  0
N  N93  1  0.51320598  0.81042090  0.37092076  1  0  -0.323163  0  3.306742  0  0  -0.241057  0  3.575678  0  0  -0.260352  0  3.592213  0  -1.254539  0  -0.329462  -0.227936  0  3.564257  0
N  N94  1  0.57017106  0.54491098  0.66805556  1  0  -0.316281  0  3.075846  0  0  -0.278841  0  3.341822  0  0  -0.289938  0  3.358448  0  -1.201483  0  -0.32397  -0.271283  0  3.330476  0
N  N95  1  0.21863277  0.04452515  0.16661128  1  0  -0.317085  0  3.074594  0  0  -0.279522  0  3.340313  0  0  -0.290667  0  3.356958  0  -1.196117  0  -0.324191  -0.271869  0  3.328964  0
N  N96  1  0.42983125  0.45509410  0.33194328  1  0  -0.316292  0  3.075633  0  0  -0.278842  0  3.341593  0  0  -0.289937  0  3.358216  0  -1.201475  0  -0.323968  -0.271289  0  3.330265  0
N  N97  1  0.78136509  0.95547131  0.83338886  1  0  -0.317188  0  3.074546  0  0  -0.279634  0  3.340291  0  0  -0.290781  0  3.356941  0  -1.196137  0  -0.324233  -0.271983  0  3.328943  0
O  O98  1  0.72270487  0.95285136  0.18624865  1  0  -0.652055  0  1.980459  0  0  -0.583039  0  2.233584  0  0  -0.611159  0  2.221302  0  -1.180728  0  -0.33606  -0.563021  0  2.241553  0
O  O99  1  0.13665070  0.45304882  0.68610539  1  0  -0.653931  0  1.981836  0  0  -0.584768  0  2.235749  0  0  -0.613121  0  2.223613  0  -1.176078  0  -0.338201  -0.564621  0  2.243621  0
O  O100  1  0.27729974  0.04714726  0.81375786  1  0  -0.652035  0  1.980505  0  0  -0.583045  0  2.233632  0  0  -0.611161  0  2.221347  0  -1.180757  0  -0.336028  -0.563028  0  2.241603  0
O  O101  1  0.86334901  0.54695195  0.31389504  1  0  -0.653902  0  1.981843  0  0  -0.584748  0  2.235767  0  0  -0.613101  0  2.223629  0  -1.176055  0  -0.338181  -0.564601  0  2.243636  0
O  O102  1  0.96932883  0.78176533  0.11216290  1  0  -0.629186  0  1.937827  0  0  -0.571474  0  2.170085  0  0  -0.596241  0  2.160561  0  -1.192895  0  -0.320096  -0.553858  0  2.176315  0
O  O103  1  0.13649055  0.28153044  0.61210621  1  0  -0.629955  0  1.934251  0  0  -0.572913  0  2.165608  0  0  -0.597509  0  2.156097  0  -1.175028  0  -0.320787  -0.555456  0  2.171885  0
O  O104  1  0.03067476  0.21823544  0.88783693  1  0  -0.629229  0  1.937867  0  0  -0.571498  0  2.170116  0  0  -0.596262  0  2.160592  0  -1.192872  0  -0.320118  -0.553874  0  2.176335  0
O  O105  1  0.86350397  0.71847141  0.38789444  1  0  -0.630005  0  1.934188  0  0  -0.572931  0  2.165532  0  0  -0.597528  0  2.15602  0  -1.174975  0  -0.320819  -0.555476  0  2.171811  0
