# generated using pymatgen
data_CdH18C26(NO)6
_symmetry_space_group_name_H-M   'P 1'
_cell_length_a   13.85142296
_cell_length_b   14.30514905
_cell_length_c   15.18578057
_cell_angle_alpha   84.99870286
_cell_angle_beta   79.62643264
_cell_angle_gamma   61.04204623
_symmetry_Int_Tables_number   1
_chemical_formula_structural   CdH18C26(NO)6
_chemical_formula_sum   'Cd4 H72 C104 N24 O24'
_cell_volume   2589.77666092
_cell_formula_units_Z   4
loop_
 _symmetry_equiv_pos_site_id
 _symmetry_equiv_pos_as_xyz
  1  'x, y, z'
loop_
 _atom_site_type_symbol
 _atom_site_label
 _atom_site_symmetry_multiplicity
 _atom_site_fract_x
 _atom_site_fract_y
 _atom_site_fract_z
 _atom_site_occupancy
 _atom_site_pbe_bader_charge
 _atom_site_pbe_bader_spin_density
 _atom_site_pbe_cm5_charge
 _atom_site_pbe_ddec_charge
 _atom_site_pbe_ddec_spin_density
 _atom_site_pbe_ddec_sum_bond_order
 _atom_site_pbe_magmom
Cd  Cd0  1  0.34470351  0.22535779  0.88090857  1  1.278832  0  0.764699  0.887466  0  2.18896  0
Cd  Cd1  1  0.42992560  0.22536531  0.61911459  1  1.279061  0  0.764732  0.887538  0  2.188937  0
Cd  Cd2  1  0.65529723  0.77464021  0.11909257  1  1.278811  0  0.764666  0.887382  0  2.189005  0
Cd  Cd3  1  0.57007540  0.77463509  0.38088367  1  1.278999  0  0.764758  0.887587  0  2.188878  0
H  H4  1  0.98226644  0.28575336  0.06828110  1  0.01998  0  0.090427  0.08592  0  1.059597  0
H  H5  1  0.73198489  0.28579477  0.43172912  1  0.08067  0  0.090444  0.085933  0  1.059756  0
H  H6  1  0.01773197  0.71424784  0.93171884  1  0.020012  0  0.090441  0.085884  0  1.059614  0
H  H7  1  0.26802099  0.71420323  0.56827050  1  0.080563  0  0.090458  0.085981  0  1.059727  0
H  H8  1  0.85683013  0.21563250  0.15008753  1  0.054053  0  0.09242  0.08916  0  1.038853  0
H  H9  1  0.92754883  0.21565128  0.34993412  1  0.048077  0  0.092371  0.089073  0  1.038946  0
H  H10  1  0.14316600  0.78437030  0.84991200  1  0.0541  0  0.092442  0.08917  0  1.038881  0
H  H11  1  0.07245671  0.78434593  0.65006760  1  0.047981  0  0.092365  0.089082  0  1.039007  0
H  H12  1  0.24469738  0.96569717  0.01314470  1  0.128863  0  0.107832  0.126366  0  1.012017  0
H  H13  1  0.78958240  0.96574984  0.48686591  1  0.125743  0  0.107848  0.126347  0  1.011977  0
H  H14  1  0.75529955  0.03430403  0.98685483  1  0.128821  0  0.107845  0.126398  0  1.011948  0
H  H15  1  0.21041794  0.03424897  0.51313391  1  0.125748  0  0.107877  0.126406  0  1.01196  0
H  H16  1  0.77331576  0.15068165  0.23530795  1  0.06302  0  0.094037  0.091959  0  1.042033  0
H  H17  1  0.07600533  0.15069595  0.26471317  1  0.078435  0  0.093987  0.091875  0  1.042063  0
H  H18  1  0.22668191  0.84931955  0.76469278  1  0.063038  0  0.094032  0.091942  0  1.042074  0
H  H19  1  0.92399721  0.84930285  0.73528958  1  0.078504  0  0.094078  0.09201  0  1.042105  0
H  H20  1  0.65681816  0.06685582  0.30243054  1  0.097249  0  0.099538  0.099444  0  1.035281  0
H  H21  1  0.27633417  0.06685393  0.19758658  1  0.094634  0  0.099463  0.099279  0  1.035453  0
H  H22  1  0.34318098  0.93314538  0.69757060  1  0.097293  0  0.099503  0.099322  0  1.035362  0
H  H23  1  0.72366697  0.93314328  0.80241456  1  0.094603  0  0.099448  0.099271  0  1.035424  0
H  H24  1  0.90984749  0.76529585  0.18740670  1  0.11762  0  0.103773  0.116095  0  1.02273  0
H  H25  1  0.32485306  0.76528596  0.31256478  1  0.143852  0  0.103747  0.11605  0  1.022684  0
H  H26  1  0.09015017  0.23470535  0.81259139  1  0.117609  0  0.10377  0.116064  0  1.022772  0
H  H27  1  0.67514847  0.23471045  0.68743307  1  0.143932  0  0.103761  0.116088  0  1.022679  0
H  H28  1  0.42082466  0.39960791  0.77099504  1  0.208647  0  0.140046  0.125979  0  1.018958  0
H  H29  1  0.17955866  0.39961416  0.72901664  1  0.211773  0  0.140161  0.126189  0  1.018673  0
H  H30  1  0.57917948  0.60038770  0.22900771  1  0.208656  0  0.14006  0.126039  0  1.018852  0
H  H31  1  0.82044302  0.60038784  0.27098533  1  0.211732  0  0.140152  0.126201  0  1.018634  0
H  H32  1  0.20911728  0.64607693  0.96013777  1  0.125714  0  0.123419  0.121451  0  1.047616  0
H  H33  1  0.14480181  0.64607091  0.53987037  1  0.126966  0  0.123442  0.121523  0  1.047443  0
H  H34  1  0.79088192  0.35392267  0.03986086  1  0.125822  0  0.123414  0.121439  0  1.047609  0
H  H35  1  0.85520073  0.35392789  0.46012777  1  0.126964  0  0.123445  0.121543  0  1.047406  0
H  H36  1  0.16433049  0.47289212  0.99233274  1  0.143146  0  0.126554  0.129731  0  0.984512  0
H  H37  1  0.36277207  0.47287394  0.50767170  1  0.142361  0  0.126567  0.129769  0  0.984482  0
H  H38  1  0.83566911  0.52710669  0.00766589  1  0.143158  0  0.126539  0.129737  0  0.984471  0
H  H39  1  0.63723014  0.52712406  0.49232854  1  0.142362  0  0.126568  0.129784  0  0.984466  0
H  H40  1  0.39152961  0.65256134  0.93948450  1  0.082175  0  0.109982  0.124838  0  1.016424  0
H  H41  1  0.95591090  0.65259401  0.56052983  1  0.081744  0  0.109969  0.124809  0  1.016618  0
H  H42  1  0.60847153  0.34743587  0.06051730  1  0.082209  0  0.109979  0.12483  0  1.016391  0
H  H43  1  0.04409091  0.34740479  0.43946909  1  0.081749  0  0.109973  0.124806  0  1.01663  0
H  H44  1  0.52612151  0.76728792  0.70265210  1  0.08666  0  0.104134  0.104734  0  1.054114  0
H  H45  1  0.70657442  0.76729700  0.79735905  1  0.126281  0  0.10417  0.104754  0  1.054059  0
H  H46  1  0.47387390  0.23271487  0.29735018  1  0.086937  0  0.104134  0.104734  0  1.054086  0
H  H47  1  0.29342779  0.23270101  0.20263922  1  0.12625  0  0.104177  0.10476  0  1.054033  0
H  H48  1  0.46520152  0.67836410  0.60736247  1  0.150652  0  0.106506  0.120205  0  1.03382  0
H  H49  1  0.85641949  0.67838173  0.89264794  1  0.148985  0  0.106447  0.120181  0  1.033784  0
H  H50  1  0.53479609  0.32163870  0.39263879  1  0.150628  0  0.1065  0.120198  0  1.033829  0
H  H51  1  0.14358078  0.32161867  0.10735176  1  0.148977  0  0.106439  0.120147  0  1.033841  0
H  H52  1  0.37311063  0.57208876  0.67807356  1  0.077682  0  0.108387  0.118445  0  1.010167  0
H  H53  1  0.05479676  0.57209858  0.82194063  1  0.075242  0  0.108413  0.11841  0  1.010091  0
H  H54  1  0.62689231  0.42790924  0.32192656  1  0.077978  0  0.10836  0.118425  0  1.010103  0
H  H55  1  0.94520419  0.42790342  0.17805948  1  0.075597  0  0.10841  0.118415  0  1.010073  0
H  H56  1  0.56800695  0.63955433  0.97857149  1  0.095304  0  0.125296  0.088039  0  1.022695  0
H  H57  1  0.79248604  0.63957009  0.52140972  1  0.101066  0  0.125234  0.087916  0  1.022729  0
H  H58  1  0.43199073  0.36044687  0.02143055  1  0.095358  0  0.125283  0.088033  0  1.022645  0
H  H59  1  0.20751309  0.36043111  0.47858878  1  0.101071  0  0.125228  0.08792  0  1.022699  0
H  H60  1  0.45370534  0.91760760  0.81577301  1  0.168674  0  0.129406  0.136302  0  1.01386  0
H  H61  1  0.62862584  0.91760406  0.68424769  1  0.169313  0  0.12945  0.136439  0  1.013483  0
H  H62  1  0.54629294  0.08239680  0.18423064  1  0.16869  0  0.129386  0.136262  0  1.013892  0
H  H63  1  0.37137663  0.08239634  0.31575098  1  0.169295  0  0.129443  0.136422  0  1.013469  0
H  H64  1  0.55725350  0.94011174  0.94595032  1  0.168728  0  0.124908  0.129871  0  1.017872  0
H  H65  1  0.50261050  0.94008718  0.55403830  1  0.176365  0  0.124857  0.129711  0  1.017712  0
H  H66  1  0.44274572  0.05988786  0.05405424  1  0.168834  0  0.124872  0.129834  0  1.017917  0
H  H67  1  0.49739044  0.05991481  0.44596050  1  0.176678  0  0.124862  0.129747  0  1.017689  0
H  H68  1  0.28497658  0.76588667  0.08366110  1  0.607907  0  0.337943  0.343449  0  0.898201  0
H  H69  1  0.94910082  0.76593828  0.41626323  1  0.603815  0  0.337932  0.343513  0  0.897812  0
H  H70  1  0.71502075  0.23411374  0.91633778  1  0.608265  0  0.33798  0.343496  0  0.898142  0
H  H71  1  0.05089725  0.23406212  0.58373486  1  0.603875  0  0.337974  0.343588  0  0.897752  0
H  H72  1  0.12046365  0.68019612  0.10073825  1  0.586605  0  0.327919  0.333649  0  0.921623  0
H  H73  1  0.19929820  0.68021313  0.39927588  1  0.590916  0  0.327982  0.333623  0  0.921653  0
H  H74  1  0.87953068  0.31980588  0.89925638  1  0.586628  0  0.327968  0.333695  0  0.921556  0
H  H75  1  0.80069932  0.31978247  0.60071940  1  0.591041  0  0.327961  0.33363  0  0.921756  0
C  C76  1  0.19280987  0.17162898  0.98239404  1  1.526308  0  0.186743  0.554562  0  4.219116  0
C  C77  1  0.63554067  0.17168520  0.51761785  1  1.542943  0  0.186987  0.554671  0  4.219031  0
C  C78  1  0.80718780  0.82837222  0.01760669  1  1.526253  0  0.186785  0.554593  0  4.21912  0
C  C79  1  0.36446147  0.82831440  0.48238029  1  1.541923  0  0.186944  0.554603  0  4.218822  0
C  C80  1  0.11984561  0.12970186  0.03541253  1  -0.025889  0  -0.018091  -0.010979  0  3.982838  0
C  C81  1  0.75043462  0.12974838  0.46459819  1  -0.016194  0  -0.01803  -0.010778  0  3.982451  0
C  C82  1  0.88015093  0.87030014  0.96458766  1  -0.025833  0  -0.018068  -0.011018  0  3.982809  0
C  C83  1  0.24956826  0.87025122  0.53540312  1  -0.016147  0  -0.018044  -0.010773  0  3.982444  0
C  C84  1  0.01137686  0.20029538  0.07539564  1  0.068961  0  -0.103617  -0.140212  0  4.0707  0
C  C85  1  0.78832133  0.20033240  0.42461250  1  -0.012886  0  -0.103826  -0.140622  0  4.071033  0
C  C86  1  0.98862041  0.79970662  0.92460442  1  0.068991  0  -0.103647  -0.140103  0  4.070578  0
C  C87  1  0.21168202  0.79966480  0.57538959  1  -0.012779  0  -0.103759  -0.140649  0  4.071158  0
C  C88  1  0.94241659  0.16079743  0.12108862  1  -0.034721  0  -0.095529  -0.119525  0  4.017085  0
C  C89  1  0.89678638  0.16082683  0.37892487  1  -0.075674  0  -0.095455  -0.119397  0  4.016781  0
C  C90  1  0.05758182  0.83920377  0.87891199  1  -0.034829  0  -0.095541  -0.119549  0  4.017176  0
C  C91  1  0.10321769  0.83917038  0.62107709  1  -0.075699  0  -0.095495  -0.119399  0  4.016903  0
C  C92  1  0.97986638  0.05076748  0.12910662  1  -0.040682  0  -0.007365  0.008508  0  4.002837  0
C  C93  1  0.96935849  0.05079153  0.37090360  1  0.031609  0  -0.007299  0.008568  0  4.002505  0
C  C94  1  0.02013129  0.94923372  0.87089345  1  -0.04103  0  -0.007339  0.008515  0  4.002907  0
C  C95  1  0.03064445  0.94920647  0.62909718  1  0.031681  0  -0.00733  0.008555  0  4.002312  0
C  C96  1  0.09088768  0.98017619  0.09107492  1  0.246115  0  0.092009  0.097329  0  3.99137  0
C  C97  1  0.92892001  0.98020826  0.40893293  1  0.220735  0  0.091907  0.097166  0  3.991596  0
C  C98  1  0.90910999  0.01982501  0.90892580  1  0.246596  0  0.091975  0.097242  0  3.991552  0
C  C99  1  0.07108253  0.01979054  0.59106719  1  0.220903  0  0.091943  0.097184  0  3.991475  0
C  C100  1  0.15981904  0.01933073  0.04377576  1  0.036439  0  -0.086956  -0.162106  0  3.929207  0
C  C101  1  0.82083104  0.01937597  0.45623286  1  0.028656  0  -0.08685  -0.161892  0  3.929168  0
C  C102  1  0.84017937  0.98067047  0.95622419  1  0.036379  0  -0.086977  -0.162112  0  3.929144  0
C  C103  1  0.17917110  0.98062363  0.54376726  1  0.028651  0  -0.086929  -0.162005  0  3.929305  0
C  C104  1  0.90957587  0.00539659  0.17370650  1  0.139854  0  -0.004019  0.00952  0  3.993944  0
C  C105  1  0.08502671  0.00540888  0.32630446  1  0.036692  0  -0.00398  0.009532  0  3.993677  0
C  C106  1  0.09042027  0.99460621  0.82629106  1  0.139614  0  -0.004061  0.009468  0  3.993694  0
C  C107  1  0.91497516  0.99458832  0.67369656  1  0.037338  0  -0.00398  0.009538  0  3.993549  0
C  C108  1  0.80344122  0.06631023  0.22368401  1  -0.085948  0  -0.08878  -0.105467  0  3.978739  0
C  C109  1  0.13025499  0.06631616  0.27632615  1  -0.064086  0  -0.0887  -0.105298  0  3.97846  0
C  C110  1  0.19655605  0.93369176  0.77631474  1  -0.086329  0  -0.088732  -0.105353  0  3.97864  0
C  C111  1  0.86974835  0.93368105  0.72367462  1  -0.06451  0  -0.088779  -0.105436  0  3.978548  0
C  C112  1  0.73755145  0.02025619  0.26134613  1  -0.066386  0  -0.092399  -0.107213  0  4.001849  0
C  C113  1  0.24220101  0.02025451  0.23865978  1  -0.100245  0  -0.092438  -0.107106  0  4.001989  0
C  C114  1  0.26244576  0.97974741  0.73865250  1  -0.065996  0  -0.092351  -0.107073  0  4.001867  0
C  C115  1  0.75780159  0.97974270  0.76133914  1  -0.100221  0  -0.092406  -0.107118  0  4.001914  0
C  C116  1  0.77513935  0.91186876  0.24681652  1  0.041381  0  -0.020779  -0.01865  0  3.99539  0
C  C117  1  0.31299609  0.91186414  0.25317468  1  0.052459  0  -0.020724  -0.0188  0  3.995721  0
C  C118  1  0.22486012  0.08813324  0.75318187  1  0.041297  0  -0.020782  -0.018722  0  3.995567  0
C  C119  1  0.68700424  0.08813467  0.74682383  1  0.052428  0  -0.020747  -0.018764  0  3.995521  0
C  C120  1  0.88138773  0.84926777  0.19855171  1  -0.026511  0  -0.090434  -0.171443  0  3.966623  0
C  C121  1  0.26934121  0.84926710  0.30143459  1  -0.0576  0  -0.090361  -0.171197  0  3.966597  0
C  C122  1  0.11860988  0.15073503  0.80144626  1  -0.026682  0  -0.09042  -0.1714  0  3.966667  0
C  C123  1  0.73066066  0.15073010  0.69856379  1  -0.057631  0  -0.090364  -0.1712  0  3.966556  0
C  C124  1  0.94918923  0.89499901  0.16414007  1  0.233443  0  0.090761  0.098836  0  3.990191  0
C  C125  1  0.15580665  0.89500521  0.33585905  1  0.306645  0  0.090682  0.098588  0  3.990253  0
C  C126  1  0.05080684  0.10500538  0.83585736  1  0.233985  0  0.090797  0.098902  0  3.989981  0
C  C127  1  0.84419562  0.10499120  0.66414065  1  0.306107  0  0.090689  0.09853  0  3.990252  0
C  C128  1  0.70102602  0.86392538  0.28103431  1  1.523566  0  0.193233  0.558169  0  4.211017  0
C  C129  1  0.43505181  0.86391526  0.21895365  1  1.573938  0  0.19313  0.558119  0  4.21105  0
C  C130  1  0.29897312  0.13607583  0.71896552  1  1.523657  0  0.193213  0.558144  0  4.211053  0
C  C131  1  0.56494813  0.13608435  0.78104617  1  1.573941  0  0.193162  0.558167  0  4.210971  0
C  C132  1  0.35503383  0.44339026  0.82562290  1  0.953082  0  0.142607  0.093852  0  3.896813  0
C  C133  1  0.20156841  0.44339436  0.67439261  1  0.956527  0  0.142347  0.093207  0  3.896892  0
C  C134  1  0.64496805  0.55660694  0.17437943  1  0.953009  0  0.142591  0.093694  0  3.896839  0
C  C135  1  0.79843294  0.55660684  0.32560882  1  0.956558  0  0.142312  0.09317  0  3.896926  0
C  C136  1  0.24551805  0.56901563  0.92788559  1  0.271176  0  -0.005523  -0.121732  0  3.922349  0
C  C137  1  0.18546311  0.56901112  0.57212376  1  0.277529  0  -0.005538  -0.121968  0  3.922238  0
C  C138  1  0.75448122  0.43098238  0.07211447  1  0.271015  0  -0.005477  -0.121677  0  3.922276  0
C  C139  1  0.81453790  0.43098928  0.42787582  1  0.277344  0  -0.005549  -0.121956  0  3.922208  0
C  C140  1  0.22415387  0.48396594  0.94181784  1  0.382069  0  -5.2e-05  -0.037701  0  4.010457  0
C  C141  1  0.29187734  0.48395540  0.55819014  1  0.373565  0  -0.000154  -0.037802  0  4.010578  0
C  C142  1  0.77584573  0.51603286  0.05818276  1  0.382119  0  -7.9e-05  -0.037762  0  4.010326  0
C  C143  1  0.70812407  0.51604420  0.44181076  1  0.373567  0  -0.000119  -0.037764  0  4.010535  0
C  C144  1  0.38008018  0.60404977  0.81266528  1  0.242012  0  0.092196  0.175604  0  4.044717  0
C  C145  1  0.01586412  0.60406042  0.68734847  1  0.175482  0  0.092232  0.175441  0  4.044749  0
C  C146  1  0.61992090  0.39594903  0.18733574  1  0.24203  0  0.092249  0.175563  0  4.044677  0
C  C147  1  0.98413655  0.39593919  0.31265189  1  0.175511  0  0.09221  0.175437  0  4.044862  0
C  C148  1  0.41034853  0.65625930  0.86694851  1  3.3e-05  0  -0.091674  -0.254669  0  3.952557  0
C  C149  1  0.93338643  0.65627901  0.63306354  1  0.064717  0  -0.091598  -0.254591  0  3.952523  0
C  C150  1  0.58965221  0.34373870  0.13305263  1  -0.000436  0  -0.091699  -0.254639  0  3.952543  0
C  C151  1  0.06661464  0.34371979  0.36693616  1  0.064703  0  -0.091609  -0.254593  0  3.952558  0
C  C152  1  0.46339551  0.71445968  0.82666308  1  0.317383  0  0.102406  0.192069  0  4.02089  0
C  C153  1  0.82213765  0.71446999  0.67334263  1  0.315817  0  0.102178  0.191829  0  4.020978  0
C  C154  1  0.53660323  0.28554232  0.17333806  1  0.317806  0  0.102408  0.192019  0  4.021018  0
C  C155  1  0.17786195  0.28552881  0.32665732  1  0.315711  0  0.102155  0.191841  0  4.021008  0
C  C156  1  0.48484974  0.72140846  0.73335874  1  -0.026539  0  -0.084837  -0.161307  0  3.944927  0
C  C157  1  0.79372934  0.72141870  0.76665113  1  -0.030548  0  -0.084776  -0.161089  0  3.944741  0
C  C158  1  0.51514786  0.27859434  0.26664252  1  -0.027116  0  -0.084778  -0.161244  0  3.944987  0
C  C159  1  0.20627173  0.27858010  0.23334857  1  -0.03044  0  -0.084769  -0.161081  0  3.944685  0
C  C160  1  0.45234727  0.67023277  0.68019931  1  0.004972  0  -0.078359  -0.036917  0  3.962823  0
C  C161  1  0.87740768  0.67024273  0.81981131  1  -0.04746  0  -0.07823  -0.036959  0  3.962776  0
C  C162  1  0.54765074  0.32976923  0.31980195  1  0.005122  0  -0.078381  -0.036973  0  3.962955  0
C  C163  1  0.12259266  0.32975608  0.18018851  1  -0.047448  0  -0.078243  -0.036978  0  3.962773  0
C  C164  1  0.40003406  0.61097620  0.71944573  1  0.021701  0  -0.088302  -0.171203  0  3.956091  0
C  C165  1  0.98898103  0.61098836  0.78056620  1  0.044142  0  -0.08837  -0.171138  0  3.95614  0
C  C166  1  0.59996588  0.38902340  0.28055475  1  0.021477  0  -0.088309  -0.171152  0  3.956046  0
C  C167  1  0.01101925  0.38901204  0.21943481  1  0.043824  0  -0.088341  -0.171099  0  3.956089  0
C  C168  1  0.54968389  0.71929098  0.95485617  1  0.967562  0  0.126752  0.074468  0  3.956066  0
C  C169  1  0.73105517  0.71929702  0.54513120  1  0.961671  0  0.126857  0.074615  0  3.955974  0
C  C170  1  0.45031419  0.28070942  0.04514587  1  0.967557  0  0.126765  0.07447  0  3.956196  0
C  C171  1  0.26894583  0.28070338  0.45486772  1  0.961679  0  0.126803  0.074567  0  3.955866  0
C  C172  1  0.49464161  0.86324059  0.86756804  1  0.25829  0  0.010664  -0.082891  0  3.859753  0
C  C173  1  0.64208945  0.86322873  0.63242627  1  0.275255  0  0.010354  -0.083342  0  3.860442  0
C  C174  1  0.50535753  0.13676062  0.13243441  1  0.258199  0  0.010644  -0.08295  0  3.85978  0
C  C175  1  0.35791309  0.13677008  0.36757187  1  0.275153  0  0.010333  -0.083259  0  3.860395  0
C  C176  1  0.54399087  0.87399097  0.93396023  1  0.436639  0  0.010243  -0.002087  0  3.939923  0
C  C177  1  0.58201916  0.87396972  0.56603524  1  0.409558  0  0.010515  -0.001677  0  3.94043  0
C  C178  1  0.45600868  0.12600943  0.06604222  1  0.43675  0  0.010326  -0.001923  0  3.939837  0
C  C179  1  0.41798184  0.12603068  0.43396368  1  0.40952  0  0.010488  -0.001765  0  3.940378  0
N  N180  1  0.57828741  0.78372736  0.98731524  1  -1.209436  0  -0.346914  -0.292528  0  3.4961  0
N  N181  1  0.63800991  0.78372418  0.51266708  1  -1.204001  0  -0.346927  -0.292486  0  3.496035  0
N  N182  1  0.42171140  0.21627304  0.01268668  1  -1.209458  0  -0.346886  -0.29257  0  3.496241  0
N  N183  1  0.36199103  0.21627782  0.48733172  1  -1.203983  0  -0.346894  -0.292469  0  3.495959  0
N  N184  1  0.49830943  0.76430191  0.88139010  1  -1.253629  0  -0.228273  -0.000913  0  3.793357  0
N  N185  1  0.73738519  0.76430777  0.61861000  1  -1.255257  0  -0.228235  -0.000951  0  3.793628  0
N  N186  1  0.50168818  0.23570089  0.11861116  1  -1.253645  0  -0.228339  -0.000922  0  3.793438  0
N  N187  1  0.26261514  0.23569103  0.38138916  1  -1.255239  0  -0.228132  -0.000921  0  3.793465  0
N  N188  1  0.32849401  0.54234048  0.85330366  1  -1.257722  0  -0.229319  0.00767  0  3.7982  0
N  N189  1  0.12916215  0.54234373  0.64671237  1  -1.266168  0  -0.229302  0.008271  0  3.797844  0
N  N190  1  0.67150859  0.45765673  0.14669724  1  -1.257716  0  -0.229337  0.007772  0  3.798238  0
N  N191  1  0.87083993  0.45765747  0.35328762  1  -1.266046  0  -0.229285  0.008228  0  3.797864  0
N  N192  1  0.29336861  0.40642477  0.87795078  1  -1.213292  0  -0.350336  -0.286665  0  3.516062  0
N  N193  1  0.30020025  0.40641995  0.62206075  1  -1.20947  0  -0.350138  -0.28639  0  3.516352  0
N  N194  1  0.70663213  0.59357324  0.12205102  1  -1.213204  0  -0.350319  -0.286606  0  3.516142  0
N  N195  1  0.69980303  0.59357885  0.37793990  1  -1.209449  0  -0.350133  -0.286416  0  3.516388  0
N  N196  1  0.05516219  0.83042464  0.11135140  1  -0.248488  0  -0.111137  0.067127  0  3.290912  0
N  N197  1  0.11439934  0.83044837  0.38865260  1  -0.254281  0  -0.111091  0.067168  0  3.290687  0
N  N198  1  0.94483354  0.16957896  0.88864483  1  -0.248934  0  -0.111138  0.067178  0  3.290978  0
N  N199  1  0.88560259  0.16954724  0.61134525  1  -0.254225  0  -0.111073  0.067231  0  3.290695  0
N  N200  1  0.13440498  0.86941912  0.11170615  1  -0.25707  0  -0.109207  0.074729  0  3.307462  0
N  N201  1  0.99615343  0.86945562  0.38828087  1  -0.25559  0  -0.109249  0.074817  0  3.307735  0
N  N202  1  0.86559269  0.13058208  0.88829325  1  -0.257064  0  -0.109207  0.074729  0  3.30749  0
N  N203  1  0.00384651  0.13054399  0.61171895  1  -0.255544  0  -0.109246  0.074827  0  3.307612  0
O  O204  1  0.29145586  0.10346117  0.94744912  1  -1.158509  0  -0.331526  -0.541766  0  2.212492  0
O  O205  1  0.60507175  0.10351463  0.55256554  1  -1.152984  0  -0.331672  -0.541906  0  2.213025  0
O  O206  1  0.70854188  0.89653843  0.05255041  1  -1.158573  0  -0.331526  -0.541739  0  2.212564  0
O  O207  1  0.39492885  0.89648657  0.44743206  1  -1.151978  0  -0.331653  -0.541858  0  2.212944  0
O  O208  1  0.15500892  0.27244010  0.97375546  1  -1.173907  0  -0.352531  -0.586023  0  2.129342  0
O  O209  1  0.57252422  0.27249271  0.52625494  1  -1.176079  0  -0.35266  -0.586083  0  2.129056  0
O  O210  1  0.84498909  0.72756190  0.02624645  1  -1.173876  0  -0.352573  -0.586052  0  2.129252  0
O  O211  1  0.42747758  0.72750609  0.47374398  1  -1.176093  0  -0.352637  -0.586054  0  2.12892  0
O  O212  1  0.72895408  0.77000520  0.25318151  1  -1.192589  0  -0.345907  -0.601425  0  2.297938  0
O  O213  1  0.50104856  0.76999126  0.24679762  1  -1.207711  0  -0.345937  -0.601468  0  2.297861  0
O  O214  1  0.27104586  0.22999440  0.74681963  1  -1.192622  0  -0.34593  -0.601449  0  2.29796  0
O  O215  1  0.49895397  0.23000754  0.75320052  1  -1.207686  0  -0.345956  -0.601484  0  2.29781  0
O  O216  1  0.61298164  0.91598500  0.33633533  1  -1.149462  0  -0.315342  -0.522746  0  2.207001  0
O  O217  1  0.47103691  0.91597853  0.16366271  1  -1.15598  0  -0.315267  -0.522628  0  2.206966  0
O  O218  1  0.38701710  0.08401700  0.66366449  1  -1.149478  0  -0.315325  -0.522688  0  2.206941  0
O  O219  1  0.52896337  0.08402187  0.83633897  1  -1.155977  0  -0.315255  -0.52265  0  2.206999  0
O  O220  1  0.22848771  0.80635974  0.04531538  1  -0.773207  0  -0.291604  -0.430365  0  2.187906  0
O  O221  1  0.96511930  0.80638461  0.45463237  1  -0.768377  0  -0.291499  -0.430416  0  2.187865  0
O  O222  1  0.77150989  0.19364305  0.95468325  1  -0.773606  0  -0.291662  -0.430435  0  2.187896  0
O  O223  1  0.03488110  0.19361260  0.54536625  1  -0.768428  0  -0.291538  -0.430496  0  2.187819  0
O  O224  1  0.10528972  0.72550602  0.15131290  1  -0.739042  0  -0.295998  -0.418991  0  2.157393  0
O  O225  1  0.16918864  0.72552331  0.34869280  1  -0.742195  0  -0.296116  -0.418968  0  2.157402  0
O  O226  1  0.89470647  0.27449518  0.84868215  1  -0.738786  0  -0.296058  -0.41908  0  2.157406  0
O  O227  1  0.83080948  0.27447549  0.65130344  1  -0.742343  0  -0.296145  -0.419065  0  2.157505  0
