# generated using pymatgen
data_CdH8C6(N7O2)2
_symmetry_space_group_name_H-M   'P 1'
_cell_length_a   7.87964164
_cell_length_b   9.06462770
_cell_length_c   9.37883460
_cell_angle_alpha   89.99992956
_cell_angle_beta   89.99997936
_cell_angle_gamma   93.22376445
_symmetry_Int_Tables_number   1
_chemical_formula_structural   CdH8C6(N7O2)2
_chemical_formula_sum   'Cd2 H16 C12 N28 O8'
_cell_volume   668.83271908
_cell_formula_units_Z   2
loop_
 _symmetry_equiv_pos_site_id
 _symmetry_equiv_pos_as_xyz
  1  'x, y, z'
loop_
 _atom_site_type_symbol
 _atom_site_label
 _atom_site_symmetry_multiplicity
 _atom_site_fract_x
 _atom_site_fract_y
 _atom_site_fract_z
 _atom_site_occupancy
 _atom_site_hle17_bader_spin_density
 _atom_site_hle17_ddec_charge
 _atom_site_hle17_ddec_spin_density
 _atom_site_hle17_ddec_sum_bond_order
 _atom_site_hle17_magmom
 _atom_site_hse06_10hf_bader_spin_density
 _atom_site_hse06_10hf_ddec_charge
 _atom_site_hse06_10hf_ddec_spin_density
 _atom_site_hse06_10hf_ddec_sum_bond_order
 _atom_site_hse06_10hf_magmom
 _atom_site_hse06_bader_spin_density
 _atom_site_hse06_ddec_charge
 _atom_site_hse06_ddec_spin_density
 _atom_site_hse06_ddec_sum_bond_order
 _atom_site_hse06_magmom
 _atom_site_pbe_bader_spin_density
 _atom_site_pbe_cm5_charge
 _atom_site_pbe_ddec_charge
 _atom_site_pbe_ddec_spin_density
 _atom_site_pbe_ddec_sum_bond_order
 _atom_site_pbe_magmom
Cd  Cd0  1  0.50000026  0.50000066  0.49999992  1  0  1.047778  0  1.768701  0  0  0.843871  0  2.224462  0  0  0.892028  0  2.180507  0  0  0.812422  0.807645  0  2.255428  0
Cd  Cd1  1  0.49999984  0.99999995  0.00000040  1  0  1.047781  0  1.768687  0  0  0.843871  0  2.224462  0  0  0.892026  0  2.18051  0  0  0.81242  0.807645  0  2.255432  0
H  H2  1  0.14737400  0.40723450  0.50808205  1  0  0.40911  0  0.877598  0  0  0.364605  0  0.981877  0  0  0.374738  0  0.966738  0  0  0.29536  0.357934  0  0.991734  0
H  H3  1  0.85262579  0.09276595  0.00808184  1  0  0.409093  0  0.877608  0  0  0.364583  0  0.98192  0  0  0.374713  0  0.966775  0  0  0.295352  0.357913  0  0.991777  0
H  H4  1  0.85262518  0.59276571  0.49191885  1  0  0.409096  0  0.877614  0  0  0.364592  0  0.98191  0  0  0.374723  0  0.966764  0  0  0.29536  0.357921  0  0.991768  0
H  H5  1  0.14737340  0.90723426  0.99191905  1  0  0.409094  0  0.877626  0  0  0.364588  0  0.981902  0  0  0.374722  0  0.966762  0  0  0.295358  0.357917  0  0.99176  0
H  H6  1  0.15192056  0.57642321  0.46850667  1  0  0.398806  0  0.8945  0  0  0.360151  0  0.98451  0  0  0.370243  0  0.969902  0  0  0.289154  0.353093  0  0.994684  0
H  H7  1  0.84807930  0.92357678  0.96850771  1  0  0.398776  0  0.894544  0  0  0.360114  0  0.984565  0  0  0.370206  0  0.96996  0  0  0.289147  0.353057  0  0.99474  0
H  H8  1  0.84807989  0.42357700  0.53149316  1  0  0.398784  0  0.89454  0  0  0.360126  0  0.984548  0  0  0.370217  0  0.969944  0  0  0.289147  0.353068  0  0.994724  0
H  H9  1  0.15192115  0.07642342  0.03149318  1  0  0.398773  0  0.894541  0  0  0.360108  0  0.984568  0  0  0.370199  0  0.969965  0  0  0.289139  0.353051  0  0.994743  0
H  H10  1  0.72019520  0.44823712  0.88279374  1  0  0.336974  0  0.908434  0  0  0.30685  0  0.997162  0  0  0.314784  0  0.989842  0  0  0.303145  0.301091  0  1.002533  0
H  H11  1  0.27980558  0.05176174  0.38279376  1  0  0.336967  0  0.908444  0  0  0.306835  0  0.997175  0  0  0.31477  0  0.989853  0  0  0.303137  0.301076  0  1.002545  0
H  H12  1  0.27980510  0.55176088  0.11720609  1  0  0.336984  0  0.908437  0  0  0.306858  0  0.997155  0  0  0.314792  0  0.989835  0  0  0.303146  0.301099  0  1.002526  0
H  H13  1  0.72019487  0.94823846  0.61720608  1  0  0.336999  0  0.908422  0  0  0.306881  0  0.997136  0  0  0.314815  0  0.989816  0  0  0.303158  0.301123  0  1.002507  0
H  H14  1  0.82854679  0.59092440  0.78690219  1  0  0.353351  0  0.875152  0  0  0.330633  0  0.945079  0  0  0.338553  0  0.938115  0  0  0.309454  0.325398  0  0.949399  0
H  H15  1  0.17145317  0.90907583  0.28690075  1  0  0.353352  0  0.875135  0  0  0.330634  0  0.945064  0  0  0.338554  0  0.938099  0  0  0.309454  0.325399  0  0.949385  0
H  H16  1  0.17145366  0.40907581  0.21309764  1  0  0.353349  0  0.87516  0  0  0.330635  0  0.945079  0  0  0.338553  0  0.938116  0  0  0.309455  0.3254  0  0.949397  0
H  H17  1  0.82854602  0.09092438  0.71309695  1  0  0.353367  0  0.875145  0  0  0.330654  0  0.94506  0  0  0.338572  0  0.938097  0  0  0.30947  0.32542  0  0.949378  0
C  C18  1  0.66224275  0.42220834  0.16647023  1  0  0.262168  0  3.816407  0  0  0.234151  0  4.095715  0  0  0.242785  0  4.110628  0  0  0.215112  0.228188  0  4.085785  0
C  C19  1  0.33775680  0.07778970  0.66647077  1  0  0.26214  0  3.816445  0  0  0.234117  0  4.095747  0  0  0.242748  0  4.110662  0  0  0.21508  0.228155  0  4.085817  0
C  C20  1  0.33775635  0.57779077  0.83352854  1  0  0.262151  0  3.816421  0  0  0.234142  0  4.095726  0  0  0.242775  0  4.110641  0  0  0.215093  0.22818  0  4.085795  0
C  C21  1  0.66224485  0.92220940  0.33352906  1  0  0.262149  0  3.816433  0  0  0.234138  0  4.095779  0  0  0.242769  0  4.11069  0  0  0.215086  0.228176  0  4.08585  0
C  C22  1  0.77876532  0.54907789  0.14568717  1  0  0.013837  0  3.762653  0  0  0.007493  0  4.029555  0  0  0.010832  0  4.040043  0  0  0.122201  0.005462  0  4.022147  0
C  C23  1  0.22123456  0.95092032  0.64568730  1  0  0.013832  0  3.762697  0  0  0.007539  0  4.029539  0  0  0.010885  0  4.04003  0  0  0.122224  0.005508  0  4.022133  0
C  C24  1  0.22123506  0.45092122  0.85431266  1  0  0.013792  0  3.76267  0  0  0.007468  0  4.029571  0  0  0.010813  0  4.040061  0  0  0.122205  0.005438  0  4.022163  0
C  C25  1  0.77876716  0.04907989  0.35431253  1  0  0.013815  0  3.762557  0  0  0.00744  0  4.029514  0  0  0.010784  0  4.04  0  0  0.122182  0.00541  0  4.022109  0
C  C26  1  0.83080534  0.60854918  0.00758788  1  0  0.407473  0  3.845341  0  0  0.368731  0  4.127841  0  0  0.386322  0  4.138825  0  0  0.231125  0.356946  0  4.120145  0
C  C27  1  0.16919468  0.89145031  0.50758810  1  0  0.407448  0  3.845332  0  0  0.368656  0  4.127881  0  0  0.386238  0  4.138879  0  0  0.231079  0.356871  0  4.120184  0
C  C28  1  0.16919376  0.39144993  0.99240982  1  0  0.4076  0  3.845076  0  0  0.368789  0  4.127659  0  0  0.386371  0  4.138655  0  0  0.231127  0.357004  0  4.119964  0
C  C29  1  0.83080704  0.10854989  0.49241067  1  0  0.407608  0  3.845071  0  0  0.36883  0  4.127644  0  0  0.386422  0  4.138622  0  0  0.231152  0.357045  0  4.11995  0
N  N30  1  0.56984023  0.38094722  0.28335366  1  0  -0.319899  0  3.096286  0  0  -0.266725  0  3.395488  0  0  -0.282415  0  3.409373  0  0  -0.225129  -0.254796  0  3.385692  0
N  N31  1  0.43015934  0.11905177  0.78335412  1  0  -0.319909  0  3.096272  0  0  -0.266743  0  3.395491  0  0  -0.282426  0  3.409362  0  0  -0.225121  -0.254815  0  3.3857  0
N  N32  1  0.43016015  0.61905188  0.71664617  1  0  -0.319909  0  3.096268  0  0  -0.266748  0  3.395494  0  0  -0.282428  0  3.409355  0  0  -0.225131  -0.254818  0  3.3857  0
N  N33  1  0.56984238  0.88094843  0.21664678  1  0  -0.319935  0  3.096348  0  0  -0.266769  0  3.395546  0  0  -0.282466  0  3.409456  0  0  -0.225135  -0.25484  0  3.385755  0
N  N34  1  0.48288794  0.25523722  0.24733434  1  0  -0.053961  0  2.947363  0  0  -0.055994  0  3.240485  0  0  -0.052007  0  3.253437  0  0  -0.091642  -0.058871  0  3.232274  0
N  N35  1  0.51711165  0.24476182  0.74733357  1  0  -0.053917  0  2.947326  0  0  -0.05595  0  3.240439  0  0  -0.051963  0  3.253393  0  0  -0.091628  -0.058826  0  3.232228  0
N  N36  1  0.51711244  0.74476189  0.75266549  1  0  -0.053949  0  2.947356  0  0  -0.055987  0  3.240471  0  0  -0.052  0  3.253425  0  0  -0.091637  -0.058863  0  3.23226  0
N  N37  1  0.48289007  0.75523838  0.25266520  1  0  -0.053925  0  2.947377  0  0  -0.055955  0  3.240498  0  0  -0.051968  0  3.253448  0  0  -0.091624  -0.058831  0  3.232286  0
N  N38  1  0.52138761  0.22452190  0.11391053  1  0  -0.135293  0  3.238077  0  0  -0.078678  0  3.542817  0  0  -0.089702  0  3.559123  0  0  -0.124462  -0.07064  0  3.532033  0
N  N39  1  0.47861077  0.27547731  0.61390973  1  0  -0.135301  0  3.238087  0  0  -0.078679  0  3.542816  0  0  -0.089703  0  3.559121  0  0  -0.12445  -0.070639  0  3.532029  0
N  N40  1  0.47861150  0.77547720  0.88608930  1  0  -0.135299  0  3.238097  0  0  -0.078669  0  3.542819  0  0  -0.089694  0  3.559125  0  0  -0.124445  -0.070632  0  3.532037  0
N  N41  1  0.52138968  0.72452289  0.38608904  1  0  -0.135314  0  3.238127  0  0  -0.07869  0  3.542853  0  0  -0.089714  0  3.559158  0  0  -0.124448  -0.07065  0  3.532067  0
N  N42  1  0.63250723  0.32614659  0.05958387  1  0  -0.281297  0  2.99017  0  0  -0.265355  0  3.274672  0  0  -0.272454  0  3.288299  0  0  -0.212934  -0.260482  0  3.265665  0
N  N43  1  0.36749246  0.17385269  0.55958429  1  0  -0.281289  0  2.990181  0  0  -0.265351  0  3.274672  0  0  -0.272448  0  3.288298  0  0  -0.212931  -0.260477  0  3.265663  0
N  N44  1  0.36749188  0.67385251  0.94041489  1  0  -0.281262  0  2.990162  0  0  -0.265332  0  3.274656  0  0  -0.272428  0  3.28828  0  0  -0.212924  -0.260457  0  3.265646  0
N  N45  1  0.63250799  0.82614752  0.44041554  1  0  -0.281268  0  2.990202  0  0  -0.265326  0  3.274689  0  0  -0.272423  0  3.288317  0  0  -0.212922  -0.260452  0  3.265681  0
N  N46  1  0.85011282  0.63083509  0.24675084  1  0  -0.140515  0  2.85078  0  0  -0.137918  0  3.139481  0  0  -0.133759  0  3.144229  0  0  -0.187695  -0.140395  0  3.135827  0
N  N47  1  0.14988581  0.86916409  0.74675109  1  0  -0.140513  0  2.850789  0  0  -0.137919  0  3.13947  0  0  -0.133764  0  3.144225  0  0  -0.187692  -0.140396  0  3.135817  0
N  N48  1  0.14988628  0.36916401  0.75324899  1  0  -0.140529  0  2.850738  0  0  -0.13791  0  3.139431  0  0  -0.13375  0  3.144185  0  0  -0.187693  -0.140388  0  3.135778  0
N  N49  1  0.85011464  0.13083612  0.25324981  1  0  -0.140522  0  2.850789  0  0  -0.137874  0  3.139484  0  0  -0.133718  0  3.144235  0  0  -0.187688  -0.140351  0  3.135832  0
N  N50  1  0.92634488  0.73244018  0.02957346  1  0  -0.32687  0  2.698295  0  0  -0.301899  0  2.97659  0  0  -0.311045  0  2.98233  0  0  -0.23219  -0.296206  0  2.973075  0
N  N51  1  0.07365386  0.76755929  0.52957279  1  0  -0.326829  0  2.698262  0  0  -0.301853  0  2.976601  0  0  -0.310997  0  2.982338  0  0  -0.232174  -0.296159  0  2.973083  0
N  N52  1  0.07365549  0.26755893  0.97042637  1  0  -0.326906  0  2.698323  0  0  -0.301885  0  2.976644  0  0  -0.311026  0  2.982383  0  0  -0.232177  -0.296193  0  2.973128  0
N  N53  1  0.92634532  0.23244092  0.47042704  1  0  -0.326924  0  2.698327  0  0  -0.30192  0  2.976641  0  0  -0.311065  0  2.982377  0  0  -0.23219  -0.296227  0  2.973125  0
N  N54  1  0.78913247  0.54712120  0.88180101  1  0  -0.633941  0  3.119432  0  0  -0.601197  0  3.367256  0  0  -0.62188  0  3.365637  0  0  -0.567942  -0.586845  0  3.367634  0
N  N55  1  0.21086736  0.95287780  0.38180057  1  0  -0.633942  0  3.119412  0  0  -0.601172  0  3.367276  0  0  -0.621852  0  3.365658  0  0  -0.567927  -0.586822  0  3.367654  0
N  N56  1  0.21086791  0.45287790  0.11820095  1  0  -0.634056  0  3.119265  0  0  -0.601285  0  3.367156  0  0  -0.621966  0  3.365539  0  0  -0.567997  -0.586935  0  3.367535  0
N  N57  1  0.78913174  0.04712131  0.61820033  1  0  -0.634091  0  3.119312  0  0  -0.601333  0  3.367166  0  0  -0.622019  0  3.365544  0  0  -0.56802  -0.586984  0  3.367548  0
O  O58  1  0.94100402  0.74403164  0.18031500  1  0  -0.023579  0  2.288548  0  0  0.038399  0  2.538132  0  0  0.023298  0  2.546305  0  0  0.0422  0.048186  0  2.532729  0
O  O59  1  0.05899464  0.75596763  0.68031541  1  0  -0.023581  0  2.288556  0  0  0.038385  0  2.538155  0  0  0.023282  0  2.546332  0  0  0.042198  0.048173  0  2.532752  0
O  O60  1  0.05899509  0.25596747  0.81968484  1  0  -0.023499  0  2.288547  0  0  0.038427  0  2.538157  0  0  0.02332  0  2.546333  0  0  0.042233  0.048213  0  2.532755  0
O  O61  1  0.94100454  0.24403258  0.31968442  1  0  -0.023515  0  2.288616  0  0  0.038412  0  2.538229  0  0  0.023311  0  2.546403  0  0  0.042229  0.048199  0  2.532826  0
O  O62  1  0.20048298  0.48141886  0.44311657  1  0  -0.790256  0  1.896478  0  0  -0.725168  0  2.118493  0  0  -0.744299  0  2.086152  0  0  -0.571973  -0.711877  0  2.14011  0
O  O63  1  0.79951792  0.01858213  0.94311704  1  0  -0.790214  0  1.896505  0  0  -0.725137  0  2.118493  0  0  -0.744251  0  2.086183  0  0  -0.57196  -0.711843  0  2.14011  0
O  O64  1  0.79951754  0.51858246  0.55688326  1  0  -0.790224  0  1.896521  0  0  -0.725156  0  2.118498  0  0  -0.744273  0  2.086187  0  0  -0.571965  -0.711863  0  2.140117  0
O  O65  1  0.20048253  0.98141807  0.05688279  1  0  -0.790216  0  1.896527  0  0  -0.725128  0  2.118564  0  0  -0.744258  0  2.086224  0  0  -0.571959  -0.711833  0  2.140183  0
