# generated using pymatgen
data_FeH12C14(NO3)2
_symmetry_space_group_name_H-M   'P 1'
_cell_length_a   4.87797124
_cell_length_b   10.98675152
_cell_length_c   12.62102538
_cell_angle_alpha   89.49461325
_cell_angle_beta   90.01788205
_cell_angle_gamma   102.86627445
_symmetry_Int_Tables_number   1
_chemical_formula_structural   FeH12C14(NO3)2
_chemical_formula_sum   'Fe2 H24 C28 N4 O12'
_cell_volume   659.39000499
_cell_formula_units_Z   2
loop_
 _symmetry_equiv_pos_site_id
 _symmetry_equiv_pos_as_xyz
  1  'x, y, z'
loop_
 _atom_site_type_symbol
 _atom_site_label
 _atom_site_symmetry_multiplicity
 _atom_site_fract_x
 _atom_site_fract_y
 _atom_site_fract_z
 _atom_site_occupancy
 _atom_site_hle17_ddec_charge
 _atom_site_hle17_ddec_spin_density
 _atom_site_hle17_ddec_sum_bond_order
 _atom_site_hle17_magmom
 _atom_site_hse06_10hf_ddec_charge
 _atom_site_hse06_10hf_ddec_spin_density
 _atom_site_hse06_10hf_ddec_sum_bond_order
 _atom_site_hse06_10hf_magmom
 _atom_site_hse06_ddec_charge
 _atom_site_hse06_ddec_spin_density
 _atom_site_hse06_ddec_sum_bond_order
 _atom_site_hse06_magmom
 _atom_site_pbe_cm5_charge
 _atom_site_pbe_ddec_charge
 _atom_site_pbe_ddec_spin_density
 _atom_site_pbe_ddec_sum_bond_order
 _atom_site_pbe_magmom
Fe  Fe0  1  0.50000126  0.00000064  0.00000012  1  0.723283  -0.014895  2.518216  -0.019  0.693067  -0.006303  2.977568  -0.01  0.763631  -0.004145  2.90279  -0.008  0.62902  0.646672  0.007115  3.026317  0.011
Fe  Fe1  1  0.50000157  0.00000177  0.49999951  1  0.723488  -0.01495  2.518289  -0.019  0.69337  -0.00648  2.97719  -0.01  0.763296  -0.004153  2.902839  -0.008  0.629743  0.647342  0.007505  3.025615  0.011
H  H2  1  0.88240384  0.09580608  0.32338557  1  0.100279  4e-05  1.015154  0.0  0.105251  4.7e-05  1.081904  0.0  0.108777  4.8e-05  1.078163  0.0  0.12282  0.102324  -3.7e-05  1.085345  0.0
H  H3  1  0.78572247  0.90438527  0.17680291  1  0.101238  4e-05  1.014283  0.0  0.106352  4.7e-05  1.080886  0.0  0.109838  4.9e-05  1.077215  0.0  0.123427  0.103438  -3.7e-05  1.084308  0.0
H  H4  1  0.11759962  0.90419603  0.67661647  1  0.100285  4e-05  1.015149  0.0  0.105222  4.7e-05  1.081906  0.0  0.10875  4.8e-05  1.078163  0.0  0.122813  0.102295  -3.7e-05  1.085349  0.0
H  H5  1  0.21426728  0.09561402  0.82319989  1  0.10123  4.1e-05  1.014272  0.0  0.106341  4.7e-05  1.080871  0.0  0.109829  4.9e-05  1.077195  0.0  0.123429  0.103427  -3.7e-05  1.084292  0.0
H  H6  1  0.89890674  0.48694779  0.27981581  1  0.116575  -3e-06  0.961213  0.0  0.123442  0.0  1.028524  0.0  0.127601  -2e-06  1.024243  0.0  0.107522  0.120233  -2e-06  1.032187  0.0
H  H7  1  0.41244868  0.51280289  0.21957083  1  0.117048  -3e-06  0.961607  0.0  0.124343  -1e-06  1.02825  0.0  0.128317  -3e-06  1.024251  0.0  0.107967  0.121223  -3e-06  1.031716  0.0
H  H8  1  0.10109536  0.51305161  0.72018224  1  0.116577  -1e-06  0.961223  0.0  0.123444  0.0  1.02854  0.0  0.127602  -2e-06  1.024261  0.0  0.107527  0.120236  -2e-06  1.032201  0.0
H  H9  1  0.58755087  0.48719551  0.78043039  1  0.117066  -3e-06  0.961629  0.0  0.124368  -1e-06  1.028256  0.0  0.12834  -3e-06  1.024261  0.0  0.107993  0.121258  -3e-06  1.031712  0.0
H  H10  1  0.56691730  0.46729345  0.43283186  1  0.096523  0.0  0.96688  0.0  0.108923  -2e-06  1.022538  0.0  0.111373  -3e-06  1.022122  0.0  0.104522  0.107274  -3e-06  1.022896  0.0
H  H11  1  0.10019725  0.53250715  0.06648555  1  0.096551  0.0  0.966366  0.0  0.108754  -5e-06  1.022374  0.0  0.111064  -5e-06  1.022148  0.0  0.10419  0.107185  5e-06  1.022587  0.0
H  H12  1  0.43308323  0.53270692  0.56716462  1  0.096554  -1e-06  0.966879  0.0  0.108958  -2e-06  1.02253  0.0  0.111407  -4e-06  1.022115  0.0  0.104537  0.10731  -3e-06  1.022888  0.0
H  H13  1  0.89981257  0.46749130  0.93351329  1  0.096553  -0.0  0.966364  0.0  0.108752  -5e-06  1.022383  0.0  0.111064  -5e-06  1.022153  0.0  0.10418  0.107186  5e-06  1.022592  0.0
H  H14  1  0.42044998  0.26356746  0.52854412  1  0.090418  -7e-06  0.991374  0.0  0.093673  -6e-06  1.061476  0.0  0.097325  -2e-06  1.057725  0.0  0.115095  0.090852  1.2e-05  1.064539  0.0
H  H15  1  0.15652165  0.73636697  0.97124167  1  0.089821  -8e-06  0.991433  0.0  0.092807  -7e-06  1.06199  0.0  0.096383  -3e-06  1.058399  0.0  0.11494  0.090063  1.5e-05  1.064933  0.0
H  H16  1  0.57954941  0.73643472  0.47145474  1  0.090435  -6e-06  0.991345  0.0  0.093683  -6e-06  1.061451  0.0  0.097334  -2e-06  1.0577  0.0  0.115092  0.090852  1.2e-05  1.064527  0.0
H  H17  1  0.84348455  0.26363244  0.02875638  1  0.089757  -7e-06  0.991427  0.0  0.092751  -7e-06  1.062002  0.0  0.096326  -3e-06  1.05841  0.0  0.114924  0.090007  1.5e-05  1.064945  0.0
H  H18  1  0.41394467  0.24185385  0.13578269  1  0.106749  -0.000175  0.933894  0.0  0.115026  -0.000152  1.000285  0.0  0.115801  -0.000121  1.000189  0.0  0.118073  0.114615  0.00019  1.000298  0.0
H  H19  1  0.17202028  0.75834110  0.36418124  1  0.10586  -0.000173  0.934549  0.0  0.114457  -0.000149  1.001188  0.0  0.115237  -0.00012  1.000935  0.0  0.118013  0.113984  0.000187  1.001393  0.0
H  H20  1  0.58605898  0.75814455  0.86421852  1  0.106746  -0.000174  0.933902  0.0  0.115026  -0.000152  1.000301  0.0  0.115801  -0.000121  1.000204  0.0  0.118067  0.114616  0.00019  1.000312  0.0
H  H21  1  0.82798528  0.24166110  0.63581683  1  0.105848  -0.000172  0.934601  0.0  0.114409  -0.000149  1.001262  0.0  0.11519  -0.000119  1.00101  0.0  0.11799  0.113936  0.000187  1.001466  0.0
H  H22  1  0.30049358  0.16364578  0.25673513  1  0.105932  -0.000134  0.939067  0.0  0.114114  -0.000186  1.005467  0.0  0.1153  -0.000158  1.005975  0.0  0.116225  0.113194  0.00021  1.005361  0.0
H  H23  1  0.13651300  0.83658819  0.24327106  1  0.105105  -0.000139  0.940051  0.0  0.114466  -0.00019  1.00548  0.0  0.115634  -0.000161  1.00593  0.0  0.116378  0.113542  0.000214  1.005402  0.0
H  H24  1  0.69950597  0.83635262  0.74326609  1  0.105913  -0.000133  0.939008  0.0  0.114098  -0.000186  1.005421  0.0  0.115284  -0.000157  1.005927  0.0  0.11621  0.113178  0.00021  1.005315  0.0
H  H25  1  0.86348230  0.16341401  0.75672701  1  0.105089  -0.000138  0.940151  0.0  0.114486  -0.00019  1.005504  0.0  0.115654  -0.000161  1.005954  0.0  0.116392  0.113563  0.000214  1.005427  0.0
C  C26  1  0.82200399  0.18010154  0.34691757  1  -0.000225  0.000311  3.644162  0.0  -0.040506  0.000279  3.906145  0.0  -0.030048  0.000211  3.914689  0.0  0.026102  -0.049254  -0.000313  3.90308  0.0
C  C27  1  0.64125041  0.81998376  0.15317957  1  -0.000639  0.000314  3.643056  0.0  -0.041972  0.000282  3.905871  0.0  -0.031523  0.000217  3.914535  0.0  0.026187  -0.050696  -0.000304  3.90275  0.0
C  C28  1  0.17799993  0.81990150  0.65308527  1  -0.000313  0.000288  3.644145  0.0  -0.040491  0.000279  3.906061  0.0  -0.03003  0.00021  3.914605  0.0  0.026117  -0.049239  -0.000313  3.902999  0.0
C  C29  1  0.35874711  0.18001467  0.84682006  1  -0.000587  0.000302  3.643045  0.0  -0.041906  0.000282  3.905862  0.0  -0.031459  0.000217  3.914526  0.0  0.026193  -0.050637  -0.000304  3.902736  0.0
C  C30  1  0.91904434  0.29194015  0.29134757  1  0.222555  0.000115  3.823603  0.0  0.216388  0.000138  4.0865  0.0  0.221993  0.000105  4.102107  0.0  0.085875  0.211993  -0.000171  4.07709  0.0
C  C31  1  0.62673274  0.70804424  0.20862131  1  0.22296  9.5e-05  3.825891  0.0  0.217359  0.000135  4.08774  0.0  0.223025  0.000104  4.103265  0.0  0.086165  0.21286  -0.000162  4.078471  0.0
C  C32  1  0.08096119  0.70806200  0.70865289  1  0.222659  0.000139  3.82346  0.0  0.216461  0.000138  4.086346  0.0  0.222063  0.000107  4.101951  0.0  0.085887  0.212071  -0.000171  4.076937  0.0
C  C33  1  0.37326428  0.29195320  0.79138070  1  0.222928  0.000107  3.825853  0.0  0.217289  0.000135  4.087734  0.0  0.222961  0.000104  4.103235  0.0  0.086119  0.212791  -0.000162  4.078468  0.0
C  C34  1  0.82835619  0.39847719  0.32168330  1  -0.13587  0.00011  3.720016  0.0  -0.164822  6.2e-05  3.975407  0.0  -0.160889  3.9e-05  3.987978  0.0  -0.091748  -0.168279  -5.8e-05  3.968255  0.0
C  C35  1  0.42999116  0.60140761  0.17798022  1  -0.136813  0.000114  3.722652  0.0  -0.166249  6e-05  3.977502  0.0  -0.162392  3.7e-05  3.99052  0.0  -0.092038  -0.169548  -5.1e-05  3.969945  0.0
C  C36  1  0.17164227  0.60152314  0.67831476  1  -0.135891  8.1e-05  3.719991  0.0  -0.164849  6.2e-05  3.975396  0.0  -0.160917  3.8e-05  3.98797  0.0  -0.091754  -0.168305  -5.8e-05  3.968241  0.0
C  C37  1  0.57001251  0.39859082  0.82201942  1  -0.136795  0.000103  3.72261  0.0  -0.166235  6e-05  3.977458  0.0  -0.162382  3.9e-05  3.990476  0.0  -0.092052  -0.169544  -5.1e-05  3.969899  0.0
C  C38  1  0.64488435  0.38691821  0.40724966  1  -0.105626  4e-05  3.801598  0.0  -0.117873  6e-05  4.056518  0.0  -0.123869  3.3e-05  4.076104  0.0  -0.093157  -0.114058  -9.8e-05  4.044046  0.0
C  C39  1  0.25812365  0.61301780  0.09236877  1  -0.10459  3.7e-05  3.799265  0.0  -0.116392  6.9e-05  4.054121  0.0  -0.122404  3.9e-05  4.074095  0.0  -0.092264  -0.112492  -0.000111  4.041246  0.0
C  C40  1  0.35511662  0.61308304  0.59274920  1  -0.105715  6.7e-05  3.801708  0.0  -0.117966  6e-05  4.056635  0.0  -0.123962  3.3e-05  4.076222  0.0  -0.093195  -0.114149  -9.8e-05  4.044159  0.0
C  C41  1  0.74188048  0.38698157  0.90763087  1  -0.104599  5.1e-05  3.799326  0.0  -0.116391  6.9e-05  4.054191  0.0  -0.122401  3.8e-05  4.074162  0.0  -0.092235  -0.112493  -0.000111  4.041317  0.0
C  C42  1  0.55883209  0.27331707  0.46028338  1  0.073092  7.6e-05  3.685628  0.0  0.035908  1.8e-05  3.954282  0.0  0.0457  -2e-06  3.966853  0.0  0.020558  0.02854  -3.3e-05  3.947339  0.0
C  C43  1  0.28517082  0.72666582  0.03954353  1  0.073259  8.9e-05  3.685412  0.0  0.036212  1.3e-05  3.954332  0.0  0.046021  -1e-05  3.967154  0.0  0.020212  0.028867  -2.9e-05  3.947085  0.0
C  C44  1  0.44116525  0.72668511  0.53971549  1  0.073078  4.9e-05  3.685696  0.0  0.035905  1.8e-05  3.954367  0.0  0.045702  -2e-06  3.96694  0.0  0.020569  0.028544  -3.3e-05  3.947428  0.0
C  C45  1  0.71482100  0.27333353  0.96045690  1  0.073341  7.3e-05  3.685362  0.0  0.036261  1.3e-05  3.95431  0.0  0.046076  -1e-05  3.967136  0.0  0.020184  0.028906  -2.9e-05  3.947065  0.0
C  C46  1  0.22785322  0.20187429  0.18367011  1  -0.081608  -0.001002  3.610216  -0.001  -0.140442  -0.000774  3.872955  -0.001  -0.137899  -0.000687  3.874617  -0.001  -0.065838  -0.141896  0.000877  3.871801  0.001
C  C47  1  0.02573212  0.79824365  0.31634577  1  -0.079838  -0.000988  3.611241  -0.001  -0.140965  -0.000766  3.875666  -0.001  -0.138243  -0.000681  3.877101  -0.001  -0.066173  -0.142441  0.000868  3.87449  0.001
C  C48  1  0.77214838  0.79812411  0.81633110  1  -0.081602  -0.001005  3.610117  -0.001  -0.140461  -0.000774  3.872893  -0.001  -0.137922  -0.000687  3.874552  -0.001  -0.065807  -0.141907  0.000877  3.871736  0.001
C  C49  1  0.97427089  0.20175759  0.68365388  1  -0.079906  -0.000992  3.611485  -0.001  -0.140964  -0.000765  3.875743  -0.001  -0.138257  -0.000682  3.87718  -0.001  -0.066145  -0.142442  0.000868  3.874568  0.001
C  C50  1  0.04564685  0.09470633  0.12222599  1  0.644997  -0.008554  3.802358  -0.011  0.603848  -0.006859  4.103963  -0.009  0.641655  -0.005984  4.096594  -0.008  0.217875  0.576099  0.007444  4.108213  0.009
C  C51  1  0.95095674  0.90532210  0.37782184  1  0.646432  -0.008496  3.802244  -0.01  0.604369  -0.006833  4.105525  -0.009  0.641998  -0.005968  4.098411  -0.008  0.217206  0.576727  0.007401  4.1096  0.009
C  C52  1  0.95435316  0.90529301  0.87777523  1  0.645072  -0.008553  3.802252  -0.011  0.603922  -0.006858  4.103864  -0.009  0.641731  -0.005983  4.096494  -0.008  0.217899  0.576172  0.007444  4.108116  0.009
C  C53  1  0.04904282  0.09467633  0.62217779  1  0.646431  -0.008493  3.802231  -0.01  0.604319  -0.006833  4.105562  -0.009  0.641947  -0.005967  4.098451  -0.008  0.217176  0.576675  0.007401  4.109638  0.009
N  N54  1  0.64566041  0.16935088  0.43088989  1  -0.214163  0.000412  3.307905  0.001  -0.163066  9.2e-05  3.586941  0.0  -0.183451  3.6e-05  3.59995  0.0  -0.328867  -0.150313  -0.000124  3.578657  0.0
N  N55  1  0.47574230  0.83067610  0.06914467  1  -0.214211  0.000412  3.307751  0.001  -0.162705  9.7e-05  3.586651  0.0  -0.183404  4.2e-05  3.599855  0.0  -0.328751  -0.149762  -0.000134  3.578281  0.0
N  N56  1  0.35433897  0.83065127  0.56911056  1  -0.214094  0.000433  3.307856  0.001  -0.16304  9.2e-05  3.586867  0.0  -0.183439  3.6e-05  3.599893  0.0  -0.328853  -0.150287  -0.000124  3.578582  0.0
N  N57  1  0.52425158  0.16932325  0.93085576  1  -0.214269  0.000423  3.307745  0.001  -0.162754  9.7e-05  3.586655  0.0  -0.183473  4.1e-05  3.599881  0.0  -0.328738  -0.149792  -0.000134  3.578266  0.0
O  O58  1  0.16526534  0.01073997  0.08983400  1  -0.560953  0.014955  2.192801  0.019  -0.528707  0.010758  2.474969  0.015  -0.56514  0.009148  2.465616  0.014  -0.305111  -0.501528  -0.011795  2.479625  -0.016
O  O59  1  0.15474031  0.98945432  0.41007148  1  -0.561975  0.014961  2.193247  0.019  -0.528828  0.010804  2.475345  0.015  -0.565327  0.009194  2.466175  0.014  -0.304582  -0.501551  -0.011836  2.479822  -0.016
O  O60  1  0.83473422  0.98925844  0.91016643  1  -0.561007  0.014955  2.192726  0.019  -0.528749  0.010758  2.474885  0.015  -0.565185  0.009146  2.465529  0.014  -0.305143  -0.501576  -0.011795  2.479556  -0.016
O  O61  1  0.84525971  0.01054501  0.58992974  1  -0.561885  0.014959  2.193234  0.019  -0.528718  0.010803  2.475343  0.015  -0.565215  0.009193  2.466174  0.014  -0.304507  -0.501439  -0.011835  2.479812  -0.016
O  O62  1  0.78419619  0.09222989  0.11272004  1  -0.556616  0.00118  2.124781  0.001  -0.514751  -0.000391  2.387249  0.0  -0.553564  -0.000652  2.380043  0.0  -0.286882  -0.484488  0.000415  2.389945  0.001
O  O63  1  0.69199901  0.90768543  0.38743202  1  -0.556251  0.001124  2.125037  0.001  -0.513975  -0.00044  2.387906  0.0  -0.552832  -0.000703  2.380794  0.0  -0.285782  -0.483591  0.000462  2.390397  0.001
O  O64  1  0.21580383  0.90776945  0.88728119  1  -0.556704  0.001182  2.124808  0.001  -0.514812  -0.00039  2.387234  0.0  -0.553631  -0.00065  2.380032  0.0  -0.286906  -0.484548  0.000415  2.389931  0.001
O  O65  1  0.30800307  0.09231394  0.61256762  1  -0.556234  0.001123  2.125012  0.001  -0.513954  -0.00044  2.387895  0.0  -0.55282  -0.000703  2.380801  0.0  -0.285787  -0.483565  0.000462  2.390383  0.001
O  O66  1  0.09791750  0.30364441  0.20679223  1  -0.264334  9.2e-05  2.356802  0.0  -0.194087  9.7e-05  2.589025  0.0  -0.212993  5.6e-05  2.59427  0.0  -0.178828  -0.180334  -0.000156  2.584712  0.0
O  O67  1  0.79401527  0.69637946  0.29317492  1  -0.265082  8.8e-05  2.355914  0.0  -0.193596  9.5e-05  2.58774  0.0  -0.212544  5.6e-05  2.592873  0.0  -0.178736  -0.179815  -0.000153  2.58351  0.0
O  O68  1  0.90208458  0.69635494  0.79320821  1  -0.2643  9.4e-05  2.356746  0.0  -0.194057  9.8e-05  2.589008  0.0  -0.212951  5.6e-05  2.594242  0.0  -0.178821  -0.180318  -0.000156  2.584703  0.0
O  O69  1  0.20598269  0.30361985  0.70682710  1  -0.265034  8.9e-05  2.355966  0.0  -0.193543  9.5e-05  2.587756  0.0  -0.212467  5.4e-05  2.592868  0.0  -0.178711  -0.179762  -0.000153  2.583526  0.0
