# generated using pymatgen
data_CuH5C5N3O5
_symmetry_space_group_name_H-M   'P 1'
_cell_length_a   6.70883616
_cell_length_b   7.79177914
_cell_length_c   14.93139640
_cell_angle_alpha   89.99988197
_cell_angle_beta   90.00003733
_cell_angle_gamma   89.99993157
_symmetry_Int_Tables_number   1
_chemical_formula_structural   CuH5C5N3O5
_chemical_formula_sum   'Cu4 H20 C20 N12 O20'
_cell_volume   780.52037586
_cell_formula_units_Z   4
loop_
 _symmetry_equiv_pos_site_id
 _symmetry_equiv_pos_as_xyz
  1  'x, y, z'
loop_
 _atom_site_type_symbol
 _atom_site_label
 _atom_site_symmetry_multiplicity
 _atom_site_fract_x
 _atom_site_fract_y
 _atom_site_fract_z
 _atom_site_occupancy
 _atom_site_hle17_ddec_charge
 _atom_site_hle17_ddec_spin_density
 _atom_site_hle17_ddec_sum_bond_order
 _atom_site_hle17_magmom
 _atom_site_hse06_10hf_ddec_charge
 _atom_site_hse06_10hf_ddec_spin_density
 _atom_site_hse06_10hf_ddec_sum_bond_order
 _atom_site_hse06_10hf_magmom
 _atom_site_hse06_ddec_charge
 _atom_site_hse06_ddec_spin_density
 _atom_site_hse06_ddec_sum_bond_order
 _atom_site_hse06_magmom
 _atom_site_pbe_cm5_charge
 _atom_site_pbe_ddec_charge
 _atom_site_pbe_ddec_spin_density
 _atom_site_pbe_ddec_sum_bond_order
 _atom_site_pbe_magmom
Cu  Cu0  1  0.75000023  0.61609832  0.32006964  1  0.852496  -0.708999  1.816635  -0.511  0.829598  -0.795408  2.198238  -0.625  0.920049  -0.872188  2.131168  -0.713  0.758185  0.773377  -0.729616  2.245451  -0.56
Cu  Cu1  1  0.24999863  0.88389522  0.82007022  1  0.852599  0.708999  1.816493  0.511  0.829691  0.795407  2.198173  0.625  0.920036  0.87219  2.131213  0.713  0.758143  0.773464  0.729631  2.245363  0.559
Cu  Cu2  1  0.25000036  0.38389801  0.67993289  1  0.85261  -0.708993  1.816505  -0.511  0.829701  -0.795385  2.198047  -0.625  0.92002  -0.872174  2.131169  -0.713  0.758147  0.773521  -0.729636  2.245221  -0.559
Cu  Cu3  1  0.75000048  0.11610111  0.17992763  1  0.852404  0.709002  1.816695  0.511  0.829568  0.795392  2.198144  0.625  0.919999  0.872177  2.131111  0.713  0.75814  0.773396  0.729636  2.245318  0.559
H  H4  1  0.75000005  0.65625902  0.10705472  1  0.050932  0.006362  0.95902  0.009  0.05074  0.004271  1.035376  0.006  0.049985  0.002905  1.029671  0.004  0.120775  0.050311  0.005153  1.040063  0.007
H  H5  1  0.25000148  0.84373922  0.60706002  1  0.050958  -0.006362  0.959083  -0.009  0.050683  -0.004271  1.03551  -0.006  0.049927  -0.002905  1.029808  -0.004  0.12077  0.050294  -0.005154  1.040159  -0.007
H  H6  1  0.24999756  0.34373475  0.89294246  1  0.051005  0.00636  0.959003  0.009  0.050724  0.00427  1.035432  0.006  0.04997  0.002905  1.029728  0.004  0.120779  0.050334  0.005154  1.040078  0.007
H  H7  1  0.75000209  0.15625840  0.39294117  1  0.050938  -0.006359  0.959088  -0.009  0.050678  -0.004271  1.035505  -0.006  0.049923  -0.002905  1.029802  -0.004  0.120771  0.050288  -0.005154  1.040152  -0.007
H  H8  1  0.06379323  0.54638574  0.17853828  1  0.112406  -0.001539  0.938494  -0.002  0.112886  -0.001271  1.011272  -0.002  0.11536  -0.000911  1.008646  -0.002  0.128022  0.1107  -0.001656  1.013672  -0.002
H  H9  1  0.93620543  0.95361093  0.67853764  1  0.112389  0.00154  0.938564  0.002  0.112891  0.001271  1.01131  0.002  0.115366  0.000911  1.008683  0.002  0.128003  0.110705  0.001656  1.01371  0.002
H  H10  1  0.56379106  0.45362105  0.82146621  1  0.112404  -0.001545  0.938451  -0.002  0.112884  -0.001271  1.011241  -0.002  0.11536  -0.000911  1.008612  -0.002  0.127989  0.110696  -0.001656  1.013643  -0.002
H  H11  1  0.43620849  0.04639291  0.32145959  1  0.112454  0.001547  0.93852  0.002  0.112948  0.001271  1.011281  0.002  0.115422  0.000911  1.008654  0.002  0.128031  0.110763  0.001656  1.013683  0.002
H  H12  1  0.93620885  0.45362086  0.82146560  1  0.112414  -0.001538  0.938445  -0.002  0.112896  -0.001271  1.011229  -0.002  0.115372  -0.000911  1.008598  -0.002  0.127993  0.110709  -0.001656  1.01363  -0.002
H  H13  1  0.06379368  0.04639310  0.32145954  1  0.11242  0.001544  0.938552  0.002  0.112927  0.001271  1.011304  0.002  0.115402  0.000911  1.008676  0.002  0.128036  0.110741  0.001656  1.013705  0.002
H  H14  1  0.43620805  0.54638811  0.17853766  1  0.112382  -0.001543  0.938505  -0.002  0.112872  -0.001271  1.011268  -0.002  0.115345  -0.000911  1.008643  -0.002  0.128011  0.110687  -0.001656  1.013668  -0.002
H  H15  1  0.56379061  0.95361241  0.67853758  1  0.112383  0.001544  0.938503  0.002  0.112863  0.001271  1.011273  0.002  0.115336  0.000911  1.008651  0.002  0.12801  0.110678  0.001656  1.013673  0.002
H  H16  1  0.06179152  0.64904853  0.45336181  1  0.116595  -0.001854  0.937206  -0.003  0.116248  -0.001506  1.007454  -0.002  0.118945  -0.001077  1.004974  -0.002  0.132059  0.113945  -0.001916  1.009892  -0.003
H  H17  1  0.93820902  0.85095091  0.95336196  1  0.116573  0.001847  0.937218  0.003  0.11623  0.001505  1.007467  0.002  0.118928  0.001077  1.004987  0.002  0.132065  0.11393  0.001916  1.009902  0.003
H  H18  1  0.56179058  0.35095185  0.54664200  1  0.116572  -0.001847  0.9372  -0.003  0.116265  -0.001505  1.00744  -0.002  0.118966  -0.001076  1.004954  -0.002  0.132069  0.113963  -0.001915  1.009878  -0.003
H  H19  1  0.43821007  0.14904908  0.04663461  1  0.116624  0.001851  0.937099  0.003  0.116235  0.001506  1.00742  0.002  0.118931  0.001077  1.004943  0.002  0.132057  0.113932  0.001916  1.009853  0.003
H  H20  1  0.93820908  0.35095166  0.54664206  1  0.116572  -0.001848  0.937208  -0.003  0.11626  -0.001505  1.007446  -0.002  0.118961  -0.001076  1.004961  -0.002  0.132064  0.113959  -0.001915  1.009885  -0.003
H  H21  1  0.06179008  0.14904799  0.04663455  1  0.11664  0.001849  0.937111  0.003  0.116259  0.001506  1.00744  0.002  0.118955  0.001077  1.004964  0.002  0.132053  0.113957  0.001915  1.009873  0.003
H  H22  1  0.43821150  0.64904705  0.45336187  1  0.116617  -0.001847  0.937158  -0.003  0.116273  -0.001505  1.007419  -0.002  0.118973  -0.001077  1.004934  -0.002  0.132068  0.113971  -0.001916  1.009856  -0.003
H  H23  1  0.56178904  0.85095110  0.95336257  1  0.116567  0.001852  0.937207  0.003  0.116228  0.001506  1.007455  0.002  0.118926  0.001077  1.004976  0.002  0.132056  0.113927  0.001916  1.00989  0.003
C  C24  1  0.74999999  0.78323380  0.14026588  1  0.549176  -0.003796  3.813923  -0.006  0.48784  -0.001538  4.132119  -0.004  0.52774  -0.00197  4.127017  -0.004  0.142401  0.461029  -0.000936  4.13538  -0.003
C  C25  1  0.25000010  0.71676173  0.64026663  1  0.549252  0.003789  3.814017  0.006  0.488003  0.001541  4.132158  0.004  0.527899  0.001971  4.127044  0.004  0.142501  0.461162  0.000937  4.135414  0.003
C  C26  1  0.24999464  0.21675868  0.85973331  1  0.549221  -0.003785  3.814013  -0.006  0.487973  -0.001538  4.13216  -0.004  0.527868  -0.001969  4.127048  -0.004  0.142526  0.461138  -0.000935  4.135418  -0.003
C  C27  1  0.75000049  0.28323460  0.35973256  1  0.549177  0.003782  3.814057  0.006  0.487882  0.001539  4.132273  0.004  0.527783  0.00197  4.127174  0.004  0.142422  0.461048  0.000934  4.135539  0.003
C  C28  1  0.14653041  0.57159676  0.23987949  1  0.09099  -0.00294  3.624983  -0.003  0.062684  -0.003235  3.880335  -0.003  0.066827  -0.001984  3.898601  -0.002  0.059339  0.059654  -0.004365  3.869392  -0.004
C  C29  1  0.85346833  0.92840095  0.73987885  1  0.090967  0.00297  3.625061  0.003  0.062665  0.003235  3.8804  0.003  0.0668  0.001984  3.898665  0.002  0.059338  0.059629  0.004365  3.86945  0.004
C  C30  1  0.64652967  0.42840995  0.76012502  1  0.091063  -0.002926  3.625057  -0.003  0.062729  -0.003235  3.88037  -0.003  0.066873  -0.001984  3.898628  -0.002  0.059384  0.059693  -0.004364  3.86942  -0.004
C  C31  1  0.35347128  0.07159784  0.26011768  1  0.090798  0.002925  3.625313  0.003  0.062498  0.003235  3.880674  0.003  0.066636  0.001984  3.89894  0.002  0.059262  0.059462  0.004364  3.869724  0.004
C  C32  1  0.85347019  0.42841112  0.76012438  1  0.091021  -0.002967  3.625101  -0.003  0.062705  -0.003235  3.880396  -0.003  0.066848  -0.001984  3.898655  -0.002  0.059384  0.059671  -0.004364  3.869446  -0.004
C  C33  1  0.14653077  0.07159667  0.26011765  1  0.090967  0.00295  3.625273  0.003  0.062656  0.003235  3.880606  0.003  0.066797  0.001984  3.898871  0.002  0.059318  0.059621  0.004364  3.869655  0.004
C  C34  1  0.35347092  0.57159665  0.23987952  1  0.091006  -0.002961  3.624974  -0.003  0.062687  -0.003235  3.880328  -0.003  0.066831  -0.001984  3.898596  -0.002  0.059327  0.059657  -0.004365  3.869385  -0.004
C  C35  1  0.64652782  0.92840106  0.73987882  1  0.091031  0.002927  3.624967  0.003  0.062731  0.003235  3.880354  0.003  0.066868  0.001983  3.898616  0.002  0.059325  0.059695  0.004365  3.869404  0.004
C  C36  1  0.14618914  0.62846922  0.39210702  1  0.126815  -0.000441  3.581733  -0.001  0.100767  -0.001883  3.831121  -0.002  0.107474  -0.000507  3.844216  0.0  0.07524  0.095696  -0.003162  3.823961  -0.003
C  C37  1  0.85381131  0.87152917  0.89210644  1  0.126878  0.000504  3.581705  0.001  0.100817  0.001883  3.831107  0.002  0.107521  0.000507  3.844193  0.0  0.075241  0.095742  0.003161  3.823936  0.003
C  C38  1  0.64618826  0.37152979  0.60789616  1  0.126945  -0.000482  3.581569  -0.001  0.100803  -0.001883  3.831018  -0.002  0.10751  -0.000507  3.844104  0.0  0.075242  0.095724  -0.00316  3.823853  -0.003
C  C39  1  0.35381247  0.12847219  0.10789009  1  0.126872  0.000467  3.581612  0.001  0.100841  0.001883  3.831092  0.002  0.107543  0.000507  3.844183  0.0  0.075269  0.095773  0.003161  3.823913  0.003
C  C40  1  0.85381146  0.37153096  0.60789552  1  0.126924  -0.000487  3.581581  -0.001  0.100805  -0.001883  3.831015  -0.002  0.107513  -0.000506  3.844101  0.0  0.075232  0.095725  -0.00316  3.823851  -0.003
C  C41  1  0.14618779  0.12847358  0.10789006  1  0.126837  0.000484  3.581541  0.001  0.100715  0.001883  3.831088  0.002  0.107419  0.000507  3.844179  0.0  0.075226  0.095644  0.003161  3.823911  0.003
C  C42  1  0.35381382  0.62847040  0.39210705  1  0.126846  -0.00051  3.581667  -0.001  0.100755  -0.001883  3.831074  -0.002  0.107461  -0.000507  3.844171  0.0  0.075225  0.095682  -0.003162  3.823915  -0.003
C  C43  1  0.64618663  0.87152928  0.89210708  1  0.126866  0.000454  3.581657  0.001  0.100801  0.001883  3.831077  0.002  0.107501  0.000506  3.844161  0.0  0.07523  0.095726  0.003161  3.823906  0.003
N  N44  1  0.04511643  0.60260370  0.31597616  1  -0.246142  -0.06919  3.334235  -0.087  -0.19863  -0.049951  3.616606  -0.067  -0.224448  -0.041039  3.637842  -0.057  -0.330643  -0.183724  -0.05476  3.604943  -0.07
N  N45  1  0.95488391  0.89739499  0.81597559  1  -0.246188  0.069154  3.334234  0.087  -0.198668  0.04995  3.616616  0.067  -0.224455  0.041037  3.63784  0.057  -0.330652  -0.183763  0.054759  3.604936  0.07
N  N46  1  0.54511414  0.39739926  0.68402832  1  -0.24635  -0.06917  3.334251  -0.087  -0.198767  -0.049952  3.616587  -0.067  -0.22456  -0.041039  3.63782  -0.057  -0.330709  -0.183871  -0.054759  3.604916  -0.07
N  N47  1  0.45488522  0.10260755  0.18402098  1  -0.246092  0.069181  3.334431  0.087  -0.198573  0.049951  3.616806  0.067  -0.224374  0.04104  3.63803  0.057  -0.330647  -0.183676  0.05476  3.605131  0.07
N  N48  1  0.95488566  0.39740033  0.68402838  1  -0.246335  -0.069163  3.334284  -0.087  -0.198763  -0.049952  3.616615  -0.067  -0.224556  -0.04104  3.637848  -0.057  -0.330694  -0.183868  -0.05476  3.604944  -0.07
N  N49  1  0.04511519  0.10260776  0.18402159  1  -0.246133  0.069171  3.334338  0.087  -0.198584  0.049952  3.616718  0.067  -0.224392  0.041039  3.637947  0.057  -0.330627  -0.183687  0.05476  3.605044  0.07
N  N50  1  0.45488497  0.60260349  0.31597555  1  -0.24617  -0.069152  3.334194  -0.087  -0.198629  -0.049952  3.616556  -0.067  -0.224451  -0.04104  3.637798  -0.057  -0.330654  -0.183723  -0.054761  3.604894  -0.07
N  N51  1  0.54511388  0.89739520  0.81597620  1  -0.246176  0.069186  3.334199  0.087  -0.198681  0.049952  3.616622  0.067  -0.22446  0.04104  3.637835  0.057  -0.330643  -0.183775  0.054761  3.604942  0.07
N  N52  1  0.75000018  0.87364763  0.49541145  1  0.693894  0.00019  4.160097  0.0  0.732609  6.4e-05  4.450359  0.0  0.760847  4e-05  4.455867  0.0  0.096349  0.712548  8.3e-05  4.445906  0.0
N  N53  1  0.25000042  0.62635036  0.99540895  1  0.693855  -0.000181  4.160133  0.0  0.732603  -6.3e-05  4.450304  0.0  0.760837  -3.8e-05  4.455813  0.0  0.096326  0.712541  -8.3e-05  4.445849  0.0
N  N54  1  0.25000041  0.12635127  0.50459310  1  0.693645  0.000185  4.160438  0.0  0.732394  6.3e-05  4.450603  0.0  0.760635  4.1e-05  4.456114  0.0  0.096215  0.712332  8.3e-05  4.446145  0.0
N  N55  1  0.75000017  0.37364854  0.00458890  1  0.693863  -0.000174  4.160116  0.0  0.732591  -6.3e-05  4.450354  0.0  0.760829  -3.9e-05  4.455861  0.0  0.096345  0.712532  -8.3e-05  4.445895  0.0
O  O56  1  0.75000004  0.79565827  0.22547960  1  -0.578596  -0.067652  2.186534  -0.089  -0.558835  -0.045677  2.499017  -0.065  -0.603305  -0.036805  2.489892  -0.055  -0.328824  -0.528944  -0.051519  2.505382  -0.071
O  O57  1  0.25000017  0.70433693  0.72548171  1  -0.578676  0.067658  2.186561  0.089  -0.558888  0.045676  2.498992  0.065  -0.603327  0.036805  2.489864  0.055  -0.328816  -0.528986  0.051519  2.505333  0.071
O  O58  1  0.24999757  0.20433165  0.77451958  1  -0.578675  -0.06766  2.186636  -0.089  -0.558889  -0.045682  2.499052  -0.065  -0.603326  -0.03681  2.489932  -0.055  -0.328827  -0.52898  -0.051523  2.505365  -0.071
O  O59  1  0.75000042  0.29566068  0.27451815  1  -0.578633  0.067651  2.186511  0.089  -0.558871  0.045677  2.498946  0.065  -0.603339  0.036806  2.489822  0.055  -0.328828  -0.528989  0.051517  2.505316  0.071
O  O60  1  0.74999986  0.91645123  0.09136750  1  -0.50222  0.093977  2.080275  0.126  -0.481036  0.060533  2.364202  0.089  -0.526589  0.047403  2.361955  0.073  -0.292819  -0.45182  0.065988  2.366281  0.093
O  O61  1  0.25000016  0.58354579  0.59136772  1  -0.502294  -0.093969  2.080294  -0.126  -0.481149  -0.060533  2.364248  -0.089  -0.526677  -0.047403  2.362004  -0.073  -0.292889  -0.451927  -0.065988  2.366314  -0.093
O  O62  1  0.24999775  0.08354382  0.90863236  1  -0.50233  0.093965  2.080288  0.126  -0.481175  0.060528  2.364244  0.089  -0.526707  0.0474  2.361995  0.073  -0.292916  -0.451945  0.065987  2.366308  0.093
O  O63  1  0.75000043  0.41645055  0.40863146  1  -0.502197  -0.093966  2.080361  -0.126  -0.481031  -0.060531  2.364349  -0.089  -0.526582  -0.047401  2.36208  -0.073  -0.292831  -0.451773  -0.065992  2.36636  -0.093
O  O64  1  0.75000012  0.86702800  0.40915964  1  -0.521574  -0.001672  1.793443  -0.003  -0.520565  -0.000462  2.047659  -0.001  -0.541548  0.0002  2.038113  0.0  -0.220612  -0.504112  -0.001398  2.053817  -0.003
O  O65  1  0.25000035  0.63296648  0.90915713  1  -0.521619  0.001664  1.793381  0.003  -0.520668  0.000462  2.047693  0.001  -0.541635  -0.000203  2.038142  0.0  -0.220707  -0.504213  0.001397  2.053844  0.003
O  O66  1  0.25000047  0.13296705  0.59084491  1  -0.521524  -0.001675  1.793461  -0.003  -0.520545  -0.000461  2.047694  -0.001  -0.54151  0.0002  2.038152  0.0  -0.220646  -0.504096  -0.001397  2.053844  -0.003
O  O67  1  0.75000024  0.36702857  0.09084005  1  -0.521534  0.001658  1.793444  0.003  -0.520569  0.000463  2.047685  0.001  -0.541552  -0.000201  2.03814  0.0  -0.220616  -0.504117  0.001398  2.053833  0.003
O  O68  1  0.75000180  0.73639904  0.54027270  1  -0.475418  -0.0002  1.720627  0.0  -0.468292  6.5e-05  1.930932  0.0  -0.481059  0.000162  1.925513  0.0  -0.204875  -0.456953  -0.000117  1.933842  0.0
O  O69  1  0.24999964  0.76360331  0.04026713  1  -0.475336  0.000197  1.720631  0.0  -0.468209  -6.5e-05  1.930905  0.0  -0.480981  -0.000161  1.925499  0.0  -0.204761  -0.45687  0.000116  1.933817  0.0
O  O70  1  0.25000029  0.26360500  0.45973453  1  -0.475276  -0.000199  1.720678  0.0  -0.468151  6.4e-05  1.93096  0.0  -0.480926  0.000161  1.925554  0.0  -0.20471  -0.456815  -0.000116  1.933873  0.0
O  O71  1  0.75000095  0.23639944  0.95972737  1  -0.475402  0.000208  1.72063  0.0  -0.468268  -6.6e-05  1.930922  0.0  -0.481031  -0.00016  1.925497  0.0  -0.204859  -0.456928  0.000116  1.933834  0.0
O  O72  1  0.75000080  0.01834482  0.53316256  1  -0.470015  0.000142  1.743256  0.0  -0.459936  0.000111  1.95433  0.0  -0.474401  0.000132  1.949684  0.0  -0.198537  -0.447975  0.000196  1.956916  0.0
O  O73  1  0.24999983  0.48165488  0.03316279  1  -0.470015  -0.00014  1.743289  0.0  -0.459923  -0.000111  1.95433  0.0  -0.474386  -0.000131  1.949686  0.0  -0.198539  -0.447963  -0.000197  1.956916  0.0
O  O74  1  0.24999980  0.98165665  0.46683930  1  -0.46992  0.000149  1.743342  0.0  -0.459869  0.000111  1.954427  0.0  -0.474336  0.000132  1.949784  0.0  -0.19854  -0.447906  0.000197  1.957006  0.0
O  O75  1  0.74999927  0.51834530  0.96683707  1  -0.470025  -0.000151  1.743285  0.0  -0.45994  -0.000111  1.954356  0.0  -0.474405  -0.000133  1.94971  0.0  -0.198538  -0.447974  -0.000197  1.956933  0.0
