# generated using pymatgen
data_KH6C6SBrNClO3
_symmetry_space_group_name_H-M   'P 1'
_cell_length_a   6.69926741
_cell_length_b   10.03136079
_cell_length_c   15.66148678
_cell_angle_alpha   90.00022034
_cell_angle_beta   100.27556679
_cell_angle_gamma   90.00024334
_symmetry_Int_Tables_number   1
_chemical_formula_structural   KH6C6SBrNClO3
_chemical_formula_sum   'K4 H24 C24 S4 Br4 N4 Cl4 O12'
_cell_volume   1035.61450490
_cell_formula_units_Z   4
loop_
 _symmetry_equiv_pos_site_id
 _symmetry_equiv_pos_as_xyz
  1  'x, y, z'
loop_
 _atom_site_type_symbol
 _atom_site_label
 _atom_site_symmetry_multiplicity
 _atom_site_fract_x
 _atom_site_fract_y
 _atom_site_fract_z
 _atom_site_occupancy
 _atom_site_pbe_bader_spin_density
 _atom_site_pbe_cm5_charge
 _atom_site_pbe_ddec_charge
 _atom_site_pbe_ddec_spin_density
 _atom_site_pbe_ddec_sum_bond_order
 _atom_site_pbe_magmom
K  K0  1  0.38355071  0.37876537  0.55774718  1  0  0.771289  0.881944  0  0.681003  0
K  K1  1  0.11644889  0.87876062  0.44225433  1  0  0.771293  0.881963  0  0.68099  0
K  K2  1  0.61643292  0.62123395  0.44225055  1  0  0.771284  0.881955  0  0.680982  0
K  K3  1  0.88355904  0.12123471  0.55775035  1  0  0.771286  0.881971  0  0.68097  0
H  H4  1  0.25101689  0.16185800  0.41661585  1  0  0.281266  0.357842  0  0.994743  0
H  H5  1  0.24898561  0.66185746  0.58338853  1  0  0.28126  0.357828  0  0.994767  0
H  H6  1  0.74898191  0.83813634  0.58338175  1  0  0.281308  0.357868  0  0.994725  0
H  H7  1  0.75101778  0.33813589  0.41661771  1  0  0.281293  0.357837  0  0.994771  0
H  H8  1  0.06378738  0.25629851  0.40026355  1  0  0.284995  0.370332  0  0.972589  0
H  H9  1  0.43621431  0.75629860  0.59973653  1  0  0.284969  0.370279  0  0.972652  0
H  H10  1  0.93621143  0.74369782  0.59973660  1  0  0.284966  0.370315  0  0.972622  0
H  H11  1  0.56378905  0.24369475  0.40026333  1  0  0.284927  0.370274  0  0.972688  0
H  H12  1  0.81191932  0.65356882  0.77540904  1  0  0.094038  0.100138  0  1.047221  0
H  H13  1  0.68807288  0.15356007  0.22459004  1  0  0.09412  0.100261  0  1.047354  0
H  H14  1  0.18807646  0.34643250  0.22459216  1  0  0.094051  0.100131  0  1.047201  0
H  H15  1  0.31191985  0.84643626  0.77540646  1  0  0.094043  0.100138  0  1.047284  0
H  H16  1  0.71756552  0.62828741  0.92134673  1  0  0.090057  0.102081  0  1.052207  0
H  H17  1  0.78242346  0.12829300  0.07865460  1  0  0.090027  0.102033  0  1.052143  0
H  H18  1  0.28242721  0.37171192  0.07865169  1  0  0.090016  0.102026  0  1.052144  0
H  H19  1  0.21756928  0.87171230  0.92134510  1  0  0.090025  0.102013  0  1.052118  0
H  H20  1  0.84287783  0.20645547  0.91576361  1  0  0.095964  0.108124  0  1.030854  0
H  H21  1  0.65712537  0.70645867  0.08422940  1  0  0.09595  0.108105  0  1.030848  0
H  H22  1  0.15712554  0.79355084  0.08423944  1  0  0.095952  0.108116  0  1.030807  0
H  H23  1  0.34288251  0.29354564  0.91576314  1  0  0.095964  0.108134  0  1.030856  0
H  H24  1  0.93562356  0.23217849  0.76969988  1  0  0.105069  0.102106  0  1.038683  0
H  H25  1  0.56437682  0.73216835  0.23029554  1  0  0.10508  0.102182  0  1.03842  0
H  H26  1  0.06437375  0.76782781  0.23030399  1  0  0.105058  0.102137  0  1.038583  0
H  H27  1  0.43562956  0.26782798  0.76970007  1  0  0.105125  0.102239  0  1.0385  0
C  C28  1  0.87897176  0.44393032  0.76410235  1  0  -0.025618  -0.101826  0  3.980778  0
C  C29  1  0.62102873  0.94392037  0.23589553  1  0  -0.025603  -0.1017  0  3.980531  0
C  C30  1  0.12103160  0.55607498  0.23589943  1  0  -0.025683  -0.101939  0  3.980841  0
C  C31  1  0.37897462  0.05607396  0.76410114  1  0  -0.025636  -0.101869  0  3.980926  0
C  C32  1  0.81513226  0.55553835  0.80566307  1  0  -0.089765  -0.072838  0  3.997249  0
C  C33  1  0.68485920  0.05554436  0.19433635  1  0  -0.089846  -0.073023  0  3.997233  0
C  C34  1  0.18486201  0.44446297  0.19433802  1  0  -0.089736  -0.072753  0  3.997059  0
C  C35  1  0.31513354  0.94446792  0.80566207  1  0  -0.08978  -0.072871  0  3.997406  0
C  C36  1  0.76235505  0.54163312  0.88737559  1  0  -0.105727  -0.155594  0  3.991832  0
C  C37  1  0.73763782  0.04163780  0.11262645  1  0  -0.105659  -0.155363  0  3.991736  0
C  C38  1  0.23763922  0.45837218  0.11262677  1  0  -0.105695  -0.15552  0  3.991786  0
C  C39  1  0.26235795  0.95836950  0.88737347  1  0  -0.105667  -0.15541  0  3.991648  0
C  C40  1  0.77567498  0.41576698  0.92661964  1  0  0.013664  0.155587  0  4.024868  0
C  C41  1  0.72432682  0.91577829  0.07338018  1  0  0.013583  0.155321  0  4.02494  0
C  C42  1  0.22432992  0.58423433  0.07338672  1  0  0.013563  0.155411  0  4.025181  0
C  C43  1  0.27567804  0.08423598  0.92661596  1  0  0.013475  0.15532  0  4.025184  0
C  C44  1  0.83550331  0.30384793  0.88471926  1  0  -0.094657  -0.143577  0  3.966468  0
C  C45  1  0.66450519  0.80385234  0.11527631  1  0  -0.094627  -0.143455  0  3.96637  0
C  C46  1  0.16450461  0.69615438  0.11528350  1  0  -0.094601  -0.143443  0  3.966292  0
C  C47  1  0.33550269  0.19615496  0.88471814  1  0  -0.094583  -0.143463  0  3.966542  0
C  C48  1  0.88766423  0.31844897  0.80286373  1  0  -0.076386  -0.054729  0  3.965018  0
C  C49  1  0.61233529  0.81844774  0.19713056  1  0  -0.076448  -0.05493  0  3.965004  0
C  C50  1  0.11234218  0.68155534  0.19714019  1  0  -0.076374  -0.054795  0  3.964913  0
C  C51  1  0.38766653  0.18155657  0.80286215  1  0  -0.076426  -0.05485  0  3.96496  0
S  S52  1  0.95097673  0.46528814  0.66064902  1  0  0.507681  1.085368  0  6.063478  0
S  S53  1  0.54902849  0.96528259  0.33935310  1  0  0.507691  1.085262  0  6.063539  0
S  S54  1  0.04902816  0.53470720  0.33935479  1  0  0.507632  1.085384  0  6.063166  0
S  S55  1  0.45097638  0.03471275  0.66064432  1  0  0.507675  1.085527  0  6.063234  0
Br  Br56  1  0.33414129  0.56983666  0.74893808  1  0  0.122647  0.03523  0  1.711885  0
Br  Br57  1  0.16584535  0.06982501  0.25106807  1  0  0.122634  0.035195  0  1.711849  0
Br  Br58  1  0.66585301  0.43017264  0.25107131  1  0  0.122637  0.035187  0  1.711882  0
Br  Br59  1  0.83414889  0.93017531  0.74892791  1  0  0.122649  0.035231  0  1.711925  0
N  N60  1  0.08953994  0.59536201  0.66437738  1  0  -0.404346  -0.591715  0  2.939526  0
N  N61  1  0.41045748  0.09535355  0.33562262  1  0  -0.404415  -0.59175  0  2.939491  0
N  N62  1  0.91046494  0.40463532  0.33562515  1  0  -0.404341  -0.591731  0  2.939514  0
N  N63  1  0.58953677  0.90463880  0.66437463  1  0  -0.404379  -0.591814  0  2.939579  0
Cl  Cl64  1  0.72201050  0.39991196  0.03036487  1  0  0.010255  -0.075931  0  1.672362  0
Cl  Cl65  1  0.77798813  0.89992277  0.96963084  1  0  0.010277  -0.075872  0  1.672271  0
Cl  Cl66  1  0.27798832  0.60009235  0.96963848  1  0  0.010292  -0.075882  0  1.672345  0
Cl  Cl67  1  0.22201521  0.10008952  0.03036391  1  0  0.010289  -0.075891  0  1.672338  0
O  O68  1  0.05043502  0.33996484  0.64350973  1  0  -0.446893  -0.649574  0  2.264665  0
O  O69  1  0.44955971  0.83995753  0.35648621  1  0  -0.44684  -0.649494  0  2.264586  0
O  O70  1  0.94957746  0.66003249  0.35649657  1  0  -0.446876  -0.649564  0  2.264543  0
O  O71  1  0.55042238  0.16003282  0.64350374  1  0  -0.446848  -0.649571  0  2.264702  0
O  O72  1  0.76781732  0.49868396  0.59818342  1  0  -0.425192  -0.619058  0  2.257674  0
O  O73  1  0.73218056  0.99867631  0.40181759  1  0  -0.425152  -0.618988  0  2.257925  0
O  O74  1  0.23219210  0.50131038  0.40181690  1  0  -0.425151  -0.619025  0  2.257577  0
O  O75  1  0.26781067  0.00131105  0.59818327  1  0  -0.425168  -0.619094  0  2.257595  0
O  O76  1  0.14364628  0.19946799  0.44537411  1  0  -0.708316  -0.833894  0  2.022264  0
O  O77  1  0.35635346  0.69946359  0.55462760  1  0  -0.708292  -0.833855  0  2.022247  0
O  O78  1  0.85634949  0.80052735  0.55462454  1  0  -0.70832  -0.833907  0  2.022237  0
O  O79  1  0.64365294  0.30052676  0.44537504  1  0  -0.708271  -0.833842  0  2.022284  0
