# generated using pymatgen
data_ErH36C36N7O16
_symmetry_space_group_name_H-M   'P 1'
_cell_length_a   10.13637493
_cell_length_b   12.07148624
_cell_length_c   19.14673061
_cell_angle_alpha   82.79703561
_cell_angle_beta   80.49849304
_cell_angle_gamma   66.51383193
_symmetry_Int_Tables_number   1
_chemical_formula_structural   ErH36C36N7O16
_chemical_formula_sum   'Er2 H72 C72 N14 O32'
_cell_volume   2114.64521808
_cell_formula_units_Z   2
loop_
 _symmetry_equiv_pos_site_id
 _symmetry_equiv_pos_as_xyz
  1  'x, y, z'
loop_
 _atom_site_type_symbol
 _atom_site_label
 _atom_site_symmetry_multiplicity
 _atom_site_fract_x
 _atom_site_fract_y
 _atom_site_fract_z
 _atom_site_occupancy
 _atom_site_pbe_bader_charge
 _atom_site_pbe_bader_spin_density
 _atom_site_pbe_cm5_charge
 _atom_site_pbe_ddec_charge
 _atom_site_pbe_ddec_spin_density
 _atom_site_pbe_ddec_sum_bond_order
 _atom_site_pbe_magmom
Er  Er0  1  0.67543127  0.70732715  0.28283952  1  2.153899  0  1.5327  1.970502  0  2.24839  0
Er  Er1  1  0.32456866  0.29267237  0.71715952  1  2.153938  0  1.532587  1.970635  0  2.248203  0
H  H2  1  0.27524785  0.94689968  0.11310979  1  0.50389  0  0.31293  0.260031  0  1.023831  0
H  H3  1  0.72474888  0.05310634  0.88689837  1  0.503448  0  0.312936  0.260004  0  1.023785  0
H  H4  1  0.89167256  0.32203710  0.44924520  1  0.511664  0  0.316378  0.267039  0  1.015326  0
H  H5  1  0.10833296  0.67797865  0.55075205  1  0.511548  0  0.316418  0.267202  0  1.015155  0
H  H6  1  0.48149148  0.60403915  0.24306497  1  0.622771  0  0.279718  0.344904  0  1.020385  0
H  H7  1  0.51850709  0.39595677  0.75693447  1  0.622811  0  0.279726  0.344953  0  1.02028  0
H  H8  1  0.59580074  0.49495680  0.28901479  1  0.621239  0  0.278496  0.3385  0  1.031381  0
H  H9  1  0.40419574  0.50503918  0.71098742  1  0.621253  0  0.278501  0.338478  0  1.031417  0
H  H10  1  0.97995741  0.28294803  0.20877741  1  0.122745  0  0.103531  0.116345  0  1.049458  0
H  H11  1  0.02003421  0.71705427  0.79122363  1  0.122803  0  0.103562  0.116366  0  1.049353  0
H  H12  1  0.08569439  0.35510982  0.29025637  1  0.058471  0  0.099537  0.097404  0  1.028344  0
H  H13  1  0.91429830  0.64490589  0.70973565  1  0.058573  0  0.099593  0.097459  0  1.028267  0
H  H14  1  0.32786438  0.22498932  0.32882679  1  0.075616  0  0.093167  0.091846  0  1.044956  0
H  H15  1  0.67212140  0.77503017  0.67117332  1  0.075756  0  0.093233  0.091864  0  1.044959  0
H  H16  1  0.45918919  0.01789043  0.28504969  1  0.106737  0  0.107853  0.106368  0  1.037606  0
H  H17  1  0.54079435  0.98212023  0.71496229  1  0.10617  0  0.10787  0.106412  0  1.037521  0
H  H18  1  0.99760005  0.22340896  0.09897894  1  0.08482  0  0.112452  0.09136  0  0.976987  0
H  H19  1  0.00241431  0.77659219  0.90101200  1  0.084898  0  0.112504  0.091355  0  0.976871  0
H  H20  1  0.88459047  0.15493448  0.15379603  1  0.0691  0  0.105362  0.078127  0  0.990852  0
H  H21  1  0.11541507  0.84507487  0.84619757  1  0.068977  0  0.105351  0.078037  0  0.990975  0
H  H22  1  0.79716852  0.03860005  0.09840154  1  0.089228  0  0.10605  0.119374  0  1.037111  0
H  H23  1  0.20283445  0.96140392  0.90159374  1  0.089123  0  0.106074  0.119355  0  1.037213  0
H  H24  1  0.39325256  0.97274148  0.94597539  1  0.063258  0  0.092728  0.085846  0  1.00042  0
H  H25  1  0.60675566  0.02725528  0.05402215  1  0.063255  0  0.092712  0.08583  0  1.00042  0
H  H26  1  0.39617831  0.11083121  0.96942294  1  0.053373  0  0.104541  0.109969  0  1.002394  0
H  H27  1  0.60382912  0.88916285  0.03057541  1  0.052512  0  0.104524  0.109932  0  1.002384  0
H  H28  1  0.29019344  0.11456857  0.90227201  1  0.08886  0  0.102921  0.121979  0  1.014799  0
H  H29  1  0.70981735  0.88542909  0.09772578  1  0.088868  0  0.102931  0.12202  0  1.014796  0
H  H30  1  0.53480937  0.71516732  0.12494368  1  0.153416  0  0.122837  0.11562  0  1.018449  0
H  H31  1  0.46518586  0.28484224  0.87505961  1  0.153383  0  0.122826  0.115575  0  1.018459  0
H  H32  1  0.44271970  0.77667455  0.04888291  1  0.013369  0  0.112621  0.091758  0  0.965441  0
H  H33  1  0.55727700  0.22334047  0.95112190  1  0.013236  0  0.11269  0.09185  0  0.965327  0
H  H34  1  0.19946815  0.76689391  0.04491008  1  0.091109  0  0.099738  0.104789  0  1.033936  0
H  H35  1  0.80053035  0.23311740  0.95509019  1  0.091299  0  0.099715  0.104825  0  1.033775  0
H  H36  1  0.05011842  0.64242462  0.08569850  1  0.101865  0  0.113147  0.114984  0  0.974  0
H  H37  1  0.94988982  0.35757660  0.91429606  1  0.101994  0  0.113098  0.114897  0  0.97403  0
H  H38  1  0.10727116  0.50005247  0.19467927  1  0.094285  0  0.107424  0.111691  0  1.036512  0
H  H39  1  0.89273886  0.49994059  0.80531373  1  0.094194  0  0.107407  0.111629  0  1.036631  0
H  H40  1  0.30716877  0.49182006  0.25851755  1  0.083846  0  0.111462  0.077981  0  1.008792  0
H  H41  1  0.69284255  0.50817215  0.74147907  1  0.083705  0  0.111434  0.077967  0  1.008846  0
H  H42  1  0.33425722  0.26395204  0.46966046  1  0.101657  0  0.107062  0.12051  0  1.034349  0
H  H43  1  0.66574292  0.73603392  0.53033862  1  0.101764  0  0.107052  0.120526  0  1.034531  0
H  H44  1  0.40421409  0.43817662  0.43324597  1  0.049189  0  0.100102  0.090945  0  1.03969  0
H  H45  1  0.59579114  0.56180669  0.56675761  1  0.049172  0  0.100116  0.090927  0  1.039611  0
H  H46  1  0.22990888  0.63163593  0.38373838  1  0.062017  0  0.104206  0.110916  0  1.0194  0
H  H47  1  0.77011395  0.36835270  0.61626283  1  0.061899  0  0.104217  0.110899  0  1.01926  0
H  H48  1  0.98216575  0.64880384  0.37058975  1  0.137589  0  0.113274  0.122252  0  1.02457  0
H  H49  1  0.01785299  0.35119639  0.62940196  1  0.137849  0  0.113329  0.122283  0  1.024634  0
H  H50  1  0.19465775  0.16096496  0.54000786  1  0.106926  0  0.111114  0.090958  0  1.003162  0
H  H51  1  0.80532727  0.83903647  0.45999379  1  0.106515  0  0.111097  0.090875  0  1.003313  0
H  H52  1  0.26949471  0.11228920  0.45203739  1  0.085873  0  0.10665  0.084165  0  1.001031  0
H  H53  1  0.73048281  0.88770682  0.54796374  1  0.085938  0  0.106681  0.084131  0  1.000964  0
H  H54  1  0.17731585  0.99995637  0.39377231  1  0.066834  0  0.104349  0.119908  0  1.035981  0
H  H55  1  0.82265930  0.00004693  0.60623050  1  0.066742  0  0.104359  0.119856  0  1.035966  0
H  H56  1  0.76195423  0.17354045  0.65757537  1  0.096094  0  0.095985  0.101835  0  1.020846  0
H  H57  1  0.23804103  0.82644926  0.34243059  1  0.096153  0  0.095956  0.101831  0  1.020794  0
H  H58  1  0.88200334  0.20280766  0.70595303  1  0.094701  0  0.103814  0.117075  0  1.014783  0
H  H59  1  0.11798464  0.79718033  0.29405627  1  0.094627  0  0.103869  0.117056  0  1.014885  0
H  H60  1  0.90472875  0.05071356  0.69738253  1  0.07254  0  0.093156  0.096563  0  1.021499  0
H  H61  1  0.09525623  0.94927445  0.30262701  1  0.07281  0  0.093213  0.096603  0  1.021617  0
H  H62  1  0.60466186  0.49729788  0.40852330  1  0.100462  0  0.126315  0.111509  0  0.995724  0
H  H63  1  0.39532944  0.50269182  0.59148141  1  0.100356  0  0.126293  0.111486  0  0.995725  0
H  H64  1  0.62858712  0.38677778  0.48215802  1  0.075424  0  0.113752  0.097316  0  0.970143  0
H  H65  1  0.37143435  0.61321363  0.51784672  1  0.075482  0  0.11377  0.097343  0  0.970156  0
H  H66  1  0.62583975  0.30642815  0.21568145  1  0.076131  0  0.11502  0.080181  0  0.979659  0
H  H67  1  0.37414198  0.69358241  0.78432442  1  0.076025  0  0.115093  0.080303  0  0.97966  0
H  H68  1  0.66664693  0.08961370  0.25580513  1  0.099314  0  0.106047  0.113349  0  1.031611  0
H  H69  1  0.33333962  0.91039314  0.74419595  1  0.099218  0  0.106058  0.113311  0  1.0316  0
H  H70  1  0.70512332  0.02047370  0.38226934  1  0.119172  0  0.110661  0.116967  0  1.005318  0
H  H71  1  0.29489371  0.97951484  0.61772556  1  0.119283  0  0.110662  0.116979  0  1.005189  0
H  H72  1  0.70755108  0.16769309  0.46313299  1  0.145597  0  0.103716  0.114573  0  1.040817  0
H  H73  1  0.29247899  0.83228193  0.53686717  1  0.145737  0  0.103693  0.114493  0  1.040895  0
C  C74  1  0.38329580  0.90918148  0.19745620  1  1.387547  0  0.263968  0.545863  0  4.051485  0
C  C75  1  0.61669472  0.09081830  0.80255558  1  1.388142  0  0.26424  0.546271  0  4.051061  0
C  C76  1  0.29670313  0.03322068  0.22135058  1  0.00374  0  -0.027148  -0.161781  0  3.975635  0
C  C77  1  0.70328729  0.96678174  0.77865682  1  0.003655  0  -0.027116  -0.161839  0  3.975624  0
C  C78  1  0.16013983  0.10902709  0.19940842  1  0.423342  0  0.092611  0.240524  0  4.03265  0
C  C79  1  0.83986068  0.89097973  0.80059363  1  0.423423  0  0.092577  0.240397  0  4.032978  0
C  C80  1  0.08491275  0.22411525  0.22494436  1  0.008259  0  -0.10877  -0.215158  0  3.987399  0
C  C81  1  0.91508202  0.77589334  0.77505487  1  0.008101  0  -0.108794  -0.215126  0  3.987398  0
C  C82  1  0.14587519  0.26493462  0.27121419  1  -0.071128  0  -0.082898  -0.030406  0  3.988799  0
C  C83  1  0.85411337  0.73508117  0.72878181  1  -0.07066  0  -0.082997  -0.030571  0  3.988909  0
C  C84  1  0.28059919  0.19197171  0.29305030  1  0.017777  0  -0.109324  -0.121997  0  4.036978  0
C  C85  1  0.71939032  0.80803962  0.70694965  1  0.017709  0  -0.109259  -0.12177  0  4.036932  0
C  C86  1  0.35407905  0.07653525  0.26871000  1  -0.08459  0  -0.084076  -0.07646  0  3.983763  0
C  C87  1  0.64590588  0.92347261  0.73129740  1  -0.084095  0  -0.084185  -0.076602  0  3.983568  0
C  C88  1  0.98588445  0.13731086  0.11754676  1  0.405553  0  -0.052618  0.007505  0  3.862118  0
C  C89  1  0.01412382  0.86269035  0.88244676  1  0.405556  0  -0.052651  0.007731  0  3.861893  0
C  C90  1  0.10859725  0.04328240  0.00195092  1  0.420308  0  0.07144  0.182424  0  4.060322  0
C  C91  1  0.89140832  0.95670711  0.99804534  1  0.420033  0  0.071499  0.182452  0  4.059867  0
C  C92  1  0.99125321  0.06769187  0.05669256  1  0.073896  0  -0.026428  -0.006255  0  3.996403  0
C  C93  1  0.00875801  0.93230488  0.94330474  1  0.074772  0  -0.026472  -0.006449  0  3.996491  0
C  C94  1  0.88403659  0.02341227  0.05436641  1  -0.053291  0  -0.108537  -0.252461  0  4.024504  0
C  C95  1  0.11597857  0.97658898  0.94563073  1  -0.053178  0  -0.108578  -0.252485  0  4.025053  0
C  C96  1  0.32873760  0.06978552  0.95280012  1  0.375468  0  -0.141119  -0.169788  0  3.885448  0
C  C97  1  0.67128181  0.93020662  0.04719376  1  0.376228  0  -0.141225  -0.169999  0  3.886008  0
C  C98  1  0.42782714  0.76355711  0.10706667  1  0.334685  0  -0.048095  -0.084527  0  3.907843  0
C  C99  1  0.57217361  0.23644699  0.89293558  1  0.334995  0  -0.048087  -0.084535  0  3.907687  0
C  C100  1  0.33372432  0.69117946  0.12951319  1  0.478828  0  0.119305  0.223915  0  3.950832  0
C  C101  1  0.66627611  0.30883187  0.87048901  1  0.478775  0  0.119314  0.224105  0  3.950533  0
C  C102  1  0.22153819  0.70346532  0.09152604  1  -0.020916  0  -0.08557  -0.171495  0  3.949067  0
C  C103  1  0.77846394  0.29654238  0.90847528  1  -0.021649  0  -0.085598  -0.171627  0  3.948816  0
C  C104  1  0.13828659  0.63450167  0.11435743  1  -0.000333  0  -0.064117  -0.016046  0  3.951074  0
C  C105  1  0.86171619  0.36550050  0.88563854  1  8.4e-05  0  -0.064065  -0.015921  0  3.951054  0
C  C106  1  0.16941475  0.55544247  0.17462974  1  -0.054925  0  -0.0818  -0.117366  0  3.967753  0
C  C107  1  0.83059093  0.44455785  0.82536406  1  -0.054838  0  -0.081803  -0.117402  0  3.968086  0
C  C108  1  0.28108138  0.55027515  0.21018573  1  0.484524  0  0.045598  0.089723  0  3.968745  0
C  C109  1  0.71892537  0.44972703  0.78981096  1  0.48439  0  0.045658  0.089847  0  3.969018  0
C  C110  1  0.86456865  0.48735854  0.40316608  1  1.386135  0  0.259612  0.536575  0  4.071868  0
C  C111  1  0.13543672  0.51265988  0.59682835  1  1.385564  0  0.259516  0.536302  0  4.071846  0
C  C112  1  0.01576706  0.46739782  0.41227449  1  -0.01963  0  -0.024841  -0.165411  0  3.956304  0
C  C113  1  0.98423838  0.53259625  0.58772349  1  -0.019424  0  -0.024794  -0.165102  0  3.95595  0
C  C114  1  0.11729623  0.35783551  0.44085766  1  0.463758  0  0.096793  0.248618  0  4.022198  0
C  C115  1  0.88270002  0.64216127  0.55913876  1  0.46301  0  0.096752  0.24847  0  4.02202  0
C  C116  1  0.25676347  0.34799363  0.44797882  1  -0.110141  0  -0.110178  -0.219908  0  3.988321  0
C  C117  1  0.74323995  0.65200494  0.55201792  1  -0.10967  0  -0.110148  -0.219904  0  3.988524  0
C  C118  1  0.29586045  0.44658582  0.42714075  1  -0.002481  0  -0.085489  -0.036228  0  4.016936  0
C  C119  1  0.70415422  0.55340550  0.57285776  1  -0.002319  0  -0.085451  -0.036174  0  4.016534  0
C  C120  1  0.19816564  0.55508866  0.39936290  1  -0.013943  0  -0.104985  -0.125378  0  4.030988  0
C  C121  1  0.80185545  0.44490174  0.60063569  1  -0.013727  0  -0.104981  -0.12531  0  4.030722  0
C  C122  1  0.05960802  0.56472942  0.39219878  1  -0.001039  0  -0.075673  -0.059406  0  3.948459  0
C  C123  1  0.94041253  0.43526453  0.60779590  1  -0.001792  0  -0.075774  -0.05949  0  3.948631  0
C  C124  1  0.16914279  0.14801144  0.48879893  1  0.349938  0  -0.057105  -0.003182  0  3.848289  0
C  C125  1  0.83083909  0.85198818  0.51120156  1  0.350026  0  -0.057078  -0.003133  0  3.848411  0
C  C126  1  0.98385178  0.07075801  0.55637496  1  0.467685  0  0.072697  0.186223  0  4.067343  0
C  C127  1  0.01612957  0.92923810  0.44363159  1  0.467549  0  0.072857  0.186432  0  4.06744  0
C  C128  1  0.08485169  0.06892500  0.49595320  1  0.013417  0  -0.028136  -0.009697  0  4.003404  0
C  C129  1  0.91512740  0.93107831  0.50405139  1  0.012729  0  -0.028286  -0.009899  0  4.003373  0
C  C130  1  0.09938837  0.99899348  0.44012654  1  0.005932  0  -0.107062  -0.244224  0  4.000135  0
C  C131  1  0.90058854  0.00100804  0.55987836  1  0.00608  0  -0.106984  -0.243998  0  3.999697  0
C  C132  1  0.87342471  0.14199352  0.67079394  1  0.309363  0  -0.149469  -0.184022  0  3.884216  0
C  C133  1  0.12656674  0.85799801  0.32921166  1  0.30946  0  -0.14936  -0.183737  0  3.884132  0
C  C134  1  0.67166361  0.40517645  0.42718569  1  0.300373  0  -0.046976  -0.088025  0  3.912358  0
C  C135  1  0.32834148  0.59482039  0.57281575  1  0.300351  0  -0.046979  -0.088079  0  3.912615  0
C  C136  1  0.67050856  0.31282351  0.38074811  1  0.516751  0  0.119076  0.217111  0  3.96278  0
C  C137  1  0.32950355  0.68716881  0.61925471  1  0.517584  0  0.119126  0.217071  0  3.962871  0
C  C138  1  0.64679448  0.27089062  0.26990563  1  0.391498  0  0.042327  0.077446  0  3.995958  0
C  C139  1  0.35320269  0.72910810  0.73009892  1  0.391524  0  0.042232  0.077198  0  3.996226  0
C  C140  1  0.66858585  0.15119761  0.29227052  1  0.036628  0  -0.084194  -0.131184  0  3.971925  0
C  C141  1  0.33141748  0.84880101  0.70772883  1  0.036801  0  -0.084164  -0.131068  0  3.971703  0
C  C142  1  0.69145514  0.11265715  0.36268619  1  -0.015671  0  -0.060175  0.000782  0  3.907692  0
C  C143  1  0.30856158  0.88733414  0.63731059  1  -0.015584  0  -0.060203  0.000709  0  3.907472  0
C  C144  1  0.69296783  0.19456119  0.40755372  1  -0.081109  0  -0.083688  -0.171632  0  3.93186  0
C  C145  1  0.30705343  0.80542652  0.59244664  1  -0.082029  0  -0.08365  -0.171437  0  3.931925  0
N  N146  1  0.36181974  0.88303960  0.13514573  1  -1.225  0  -0.411093  -0.334679  0  3.539732  0
N  N147  1  0.63817634  0.11697004  0.86486218  1  -1.224598  0  -0.411206  -0.334823  0  3.539804  0
N  N148  1  0.36158705  0.61655985  0.18844698  1  -1.238531  0  -0.302913  -0.27214  0  3.367932  0
N  N149  1  0.63841412  0.38344783  0.81155285  1  -1.238367  0  -0.302936  -0.27233  0  3.368083  0
N  N150  1  0.81768018  0.39856665  0.42727339  1  -1.231031  0  -0.409314  -0.325087  0  3.556251  0
N  N151  1  0.18232524  0.60144278  0.57272386  1  -1.230559  0  -0.4093  -0.325099  0  3.556593  0
N  N152  1  0.64764049  0.35006336  0.31297274  1  -1.230963  0  -0.30358  -0.265911  0  3.395413  0
N  N153  1  0.35236244  0.64993357  0.68703357  1  -1.231138  0  -0.30358  -0.265774  0  3.395488  0
N  N154  1  0.83491251  0.55028580  0.17084904  1  0.807098  0  0.079581  0.721826  0  4.424166  0
N  N155  1  0.16507876  0.44972117  0.82916053  1  0.807412  0  0.079658  0.72206  0  4.424033  0
N  N156  1  0.52970875  0.83977519  0.40672565  1  0.820627  0  0.080387  0.718524  0  4.427478  0
N  N157  1  0.47030918  0.16021598  0.59326477  1  0.81996  0  0.080342  0.718221  0  4.427656  0
N  N158  1  0.85100024  0.84470895  0.22982446  1  0.849671  0  0.083014  0.723984  0  4.403976  0
N  N159  1  0.14899040  0.15529402  0.77016303  1  0.847332  0  0.082843  0.723719  0  4.404761  0
O  O160  1  0.47572244  0.83313812  0.23414953  1  -1.198967  0  -0.392348  -0.613052  0  2.386438  0
O  O161  1  0.52425197  0.16685539  0.76586251  1  -1.199544  0  -0.392546  -0.613324  0  2.386375  0
O  O162  1  0.10704821  0.06134425  0.15519546  1  -1.071938  0  -0.171587  -0.203729  0  2.630147  0
O  O163  1  0.89295729  0.93866065  0.84480164  1  -1.072413  0  -0.171619  -0.203735  0  2.630301  0
O  O164  1  0.21125414  0.08700693  0.00891586  1  -1.089756  0  -0.193292  -0.168498  0  2.585077  0
O  O165  1  0.78875046  0.91298448  0.99108503  1  -1.089746  0  -0.193204  -0.168284  0  2.585415  0
O  O166  1  0.78285327  0.58602167  0.37484155  1  -1.203297  0  -0.399771  -0.639579  0  2.380077  0
O  O167  1  0.21715769  0.41399056  0.62516234  1  -1.203101  0  -0.399733  -0.639605  0  2.379908  0
O  O168  1  0.07342438  0.26438709  0.45946149  1  -1.077122  0  -0.169826  -0.207551  0  2.641924  0
O  O169  1  0.92656414  0.73562424  0.54053802  1  -1.076724  0  -0.169852  -0.207494  0  2.641724  0
O  O170  1  0.97348730  0.14255666  0.60843823  1  -1.082864  0  -0.189636  -0.162883  0  2.594299  0
O  O171  1  0.02650100  0.85743048  0.39157424  1  -1.0831  0  -0.189826  -0.163096  0  2.594144  0
O  O172  1  0.75074314  0.66212732  0.15929109  1  -0.586515  0  -0.252801  -0.546682  0  2.057668  0
O  O173  1  0.24924942  0.33787949  0.84070950  1  -0.586662  0  -0.252726  -0.546633  0  2.057622  0
O  O174  1  0.85744767  0.51732081  0.23574706  1  -0.568771  0  -0.230919  -0.508522  0  2.041266  0
O  O175  1  0.14254274  0.48269696  0.76425908  1  -0.568536  0  -0.230901  -0.508608  0  2.040965  0
O  O176  1  0.88954554  0.48023877  0.12273120  1  -0.468558  0  -0.163728  -0.384023  0  1.874655  0
O  O177  1  0.11043760  0.51975743  0.87728147  1  -0.468977  0  -0.163858  -0.384281  0  1.874895  0
O  O178  1  0.48622955  0.76296986  0.38798761  1  -0.567337  0  -0.23093  -0.512147  0  1.996483  0
O  O179  1  0.51381047  0.23700325  0.61200878  1  -0.567191  0  -0.230776  -0.512036  0  1.996306  0
O  O180  1  0.63828037  0.85353008  0.36625581  1  -0.588943  0  -0.250754  -0.540294  0  2.057224  0
O  O181  1  0.36172407  0.14647743  0.63373542  1  -0.588973  0  -0.250912  -0.54037  0  2.057133  0
O  O182  1  0.47269260  0.89786023  0.45997637  1  -0.483027  0  -0.144447  -0.371109  0  1.959812  0
O  O183  1  0.52730494  0.10213191  0.54001353  1  -0.482503  0  -0.144354  -0.370886  0  1.960129  0
O  O184  1  0.89907121  0.73958125  0.26314496  1  -0.586405  0  -0.243479  -0.532715  0  2.065075  0
O  O185  1  0.10091023  0.26042634  0.73684655  1  -0.586755  0  -0.243454  -0.532705  0  2.065127  0
O  O186  1  0.71704597  0.88518718  0.21938816  1  -0.584632  0  -0.235757  -0.530174  0  2.06128  0
O  O187  1  0.28294366  0.11481580  0.78059941  1  -0.584662  0  -0.235744  -0.530052  0  2.061451  0
O  O188  1  0.92822606  0.90249021  0.20905375  1  -0.490202  0  -0.139169  -0.36361  0  1.965678  0
O  O189  1  0.07176078  0.09751715  0.79092533  1  -0.487504  0  -0.139016  -0.363405  0  1.965915  0
O  O190  1  0.55402516  0.58651725  0.27800084  1  -1.282643  0  -0.68346  -0.882187  0  2.233843  0
O  O191  1  0.44597040  0.41347869  0.72199884  1  -1.282722  0  -0.683482  -0.882207  0  2.233832  0
