# generated using pymatgen
data_AgH6C8(NO)3
_symmetry_space_group_name_H-M   'P 1'
_cell_length_a   7.19567868
_cell_length_b   9.43728690
_cell_length_c   12.87565906
_cell_angle_alpha   89.99988485
_cell_angle_beta   89.99889247
_cell_angle_gamma   89.99953884
_symmetry_Int_Tables_number   1
_chemical_formula_structural   AgH6C8(NO)3
_chemical_formula_sum   'Ag4 H24 C32 N12 O12'
_cell_volume   874.35618745
_cell_formula_units_Z   4
loop_
 _symmetry_equiv_pos_site_id
 _symmetry_equiv_pos_as_xyz
  1  'x, y, z'
loop_
 _atom_site_type_symbol
 _atom_site_label
 _atom_site_symmetry_multiplicity
 _atom_site_fract_x
 _atom_site_fract_y
 _atom_site_fract_z
 _atom_site_occupancy
 _atom_site_hle17_bader_spin_density
 _atom_site_hle17_ddec_charge
 _atom_site_hle17_ddec_spin_density
 _atom_site_hle17_ddec_sum_bond_order
 _atom_site_hle17_magmom
 _atom_site_hse06_10hf_bader_spin_density
 _atom_site_hse06_10hf_ddec_charge
 _atom_site_hse06_10hf_ddec_spin_density
 _atom_site_hse06_10hf_ddec_sum_bond_order
 _atom_site_hse06_10hf_magmom
 _atom_site_hse06_bader_spin_density
 _atom_site_hse06_ddec_charge
 _atom_site_hse06_ddec_spin_density
 _atom_site_hse06_ddec_sum_bond_order
 _atom_site_hse06_magmom
 _atom_site_pbe_bader_spin_density
 _atom_site_pbe_cm5_charge
 _atom_site_pbe_ddec_charge
 _atom_site_pbe_ddec_spin_density
 _atom_site_pbe_ddec_sum_bond_order
 _atom_site_pbe_magmom
Ag  Ag0  1  0.99881482  0.94405547  0.66187547  1  0  0.535506  0  1.388769  0  0  0.391086  0  1.817949  0  0  0.419035  0  1.773796  0  0  0.475914  0.374089  0  1.846991  0
Ag  Ag1  1  0.50118377  0.05594333  0.16187639  1  0  0.535508  0  1.388801  0  0  0.391095  0  1.817975  0  0  0.419042  0  1.773826  0  0  0.475922  0.374105  0  1.847016  0
Ag  Ag2  1  0.49881691  0.55594485  0.33812643  1  0  0.53551  0  1.388861  0  0  0.391085  0  1.818034  0  0  0.419028  0  1.7739  0  0  0.475923  0.374092  0  1.847074  0
Ag  Ag3  1  0.00118503  0.44405655  0.83812453  1  0  0.535557  0  1.388878  0  0  0.391134  0  1.818048  0  0  0.419082  0  1.773907  0  0  0.475911  0.374133  0  1.847089  0
H  H4  1  0.15176414  0.68411267  0.61742184  1  0  0.105833  0  0.96597  0  0  0.115176  0  1.035444  0  0  0.119063  0  1.031541  0  0  0.101969  0.112417  0  1.038139  0
H  H5  1  0.34823862  0.31588616  0.11742414  1  0  0.105863  0  0.965882  0  0  0.115146  0  1.035437  0  0  0.119069  0  1.031492  0  0  0.101968  0.112388  0  1.038132  0
H  H6  1  0.65176350  0.81588661  0.38257675  1  0  0.105956  0  0.965903  0  0  0.115218  0  1.035483  0  0  0.119142  0  1.031534  0  0  0.102007  0.112462  0  1.038173  0
H  H7  1  0.84823844  0.18411582  0.88257853  1  0  0.105981  0  0.965908  0  0  0.115244  0  1.035477  0  0  0.11917  0  1.031529  0  0  0.101998  0.112484  0  1.038171  0
H  H8  1  0.32485217  0.15439629  0.65001071  1  0  0.097423  0  0.938467  0  0  0.105614  0  1.000106  0  0  0.107747  0  0.99848  0  0  0.123065  0.103737  0  1.00217  0
H  H9  1  0.17514527  0.84560033  0.15001252  1  0  0.097483  0  0.938416  0  0  0.105681  0  1.000055  0  0  0.107809  0  0.998441  0  0  0.123072  0.103807  0  1.002121  0
H  H10  1  0.82485237  0.34559842  0.34998522  1  0  0.097422  0  0.93825  0  0  0.10562  0  0.999933  0  0  0.107749  0  0.998316  0  0  0.123051  0.103748  0  1.001999  0
H  H11  1  0.67515211  0.65440199  0.84998583  1  0  0.097356  0  0.938363  0  0  0.105576  0  1.000011  0  0  0.107709  0  0.998387  0  0  0.123037  0.103699  0  1.002078  0
H  H12  1  0.32399705  0.46119113  0.58399368  1  0  0.109122  0  0.951484  0  0  0.117888  0  1.011166  0  0  0.120591  0  1.010244  0  0  0.105005  0.116043  0  1.012182  0
H  H13  1  0.17600550  0.53880674  0.08399437  1  0  0.109159  0  0.951469  0  0  0.117927  0  1.011148  0  0  0.12063  0  1.010225  0  0  0.105017  0.116086  0  1.012161  0
H  H14  1  0.82399258  0.03880783  0.41600382  1  0  0.109149  0  0.951674  0  0  0.1179  0  1.011358  0  0  0.120604  0  1.010436  0  0  0.10501  0.116058  0  1.01237  0
H  H15  1  0.67600263  0.96119452  0.91600862  1  0  0.109186  0  0.951583  0  0  0.117939  0  1.01126  0  0  0.120642  0  1.010337  0  0  0.105047  0.116096  0  1.012276  0
H  H16  1  0.67396314  0.15435283  0.64753287  1  0  0.095487  0  0.938652  0  0  0.103117  0  1.001254  0  0  0.105181  0  0.999706  0  0  0.122683  0.101298  0  1.003277  0
H  H17  1  0.82603736  0.84564495  0.14753308  1  0  0.095492  0  0.938675  0  0  0.103124  0  1.001278  0  0  0.105191  0  0.999726  0  0  0.122685  0.101307  0  1.003296  0
H  H18  1  0.17396029  0.34565129  0.35246311  1  0  0.095485  0  0.938717  0  0  0.103115  0  1.001297  0  0  0.105182  0  0.999745  0  0  0.122683  0.1013  0  1.003315  0
H  H19  1  0.32604393  0.65435114  0.85246367  1  0  0.095543  0  0.938677  0  0  0.103162  0  1.001289  0  0  0.105229  0  0.999738  0  0  0.122687  0.101343  0  1.003305  0
H  H20  1  0.67117908  0.46099297  0.58129528  1  0  0.108149  0  0.951445  0  0  0.11526  0  1.014039  0  0  0.118027  0  1.013075  0  0  0.103925  0.113308  0  1.015268  0
H  H21  1  0.82882236  0.53900394  0.08129668  1  0  0.108158  0  0.951393  0  0  0.115259  0  1.013993  0  0  0.118026  0  1.013032  0  0  0.103917  0.113305  0  1.015217  0
H  H22  1  0.17117711  0.03901011  0.41870384  1  0  0.108175  0  0.951213  0  0  0.115284  0  1.013822  0  0  0.118051  0  1.012864  0  0  0.103958  0.113336  0  1.015041  0
H  H23  1  0.32882060  0.96099637  0.91870625  1  0  0.108171  0  0.951254  0  0  0.115268  0  1.013853  0  0  0.118036  0  1.012892  0  0  0.10393  0.113319  0  1.015076  0
H  H24  1  0.84543750  0.68357013  0.61259977  1  0  0.106552  0  0.962393  0  0  0.116409  0  1.030811  0  0  0.120269  0  1.026993  0  0  0.102624  0.113729  0  1.033364  0
H  H25  1  0.65456283  0.31642669  0.11260179  1  0  0.106581  0  0.962331  0  0  0.116444  0  1.030756  0  0  0.120303  0  1.026944  0  0  0.102627  0.113749  0  1.033341  0
H  H26  1  0.34543234  0.81643008  0.38739832  1  0  0.106588  0  0.962377  0  0  0.116482  0  1.030761  0  0  0.120342  0  1.026947  0  0  0.102657  0.113784  0  1.033341  0
H  H27  1  0.15456509  0.18357331  0.88739983  1  0  0.106597  0  0.962408  0  0  0.116464  0  1.030828  0  0  0.120328  0  1.026997  0  0  0.102646  0.113771  0  1.033388  0
C  C28  1  0.59858842  0.81181218  0.62698394  1  0  0.15301  0  3.761101  0  0  0.155587  0  3.988393  0  0  0.157309  0  4.014352  0  0  0.109817  0.153764  0  3.970999  0
C  C29  1  0.90141140  0.18818460  0.12698741  1  0  0.152873  0  3.76152  0  0  0.155626  0  3.988509  0  0  0.157349  0  4.014468  0  0  0.109859  0.153794  0  3.971123  0
C  C30  1  0.09858511  0.68818320  0.37301289  1  0  0.153035  0  3.761321  0  0  0.155676  0  3.988396  0  0  0.157399  0  4.014358  0  0  0.109868  0.153848  0  3.971005  0
C  C31  1  0.40141143  0.31181705  0.87301392  1  0  0.15323  0  3.761245  0  0  0.155842  0  3.988357  0  0  0.157569  0  4.01432  0  0  0.109901  0.154012  0  3.970968  0
C  C32  1  0.39941191  0.81192299  0.62812047  1  0  0.153287  0  3.763769  0  0  0.155201  0  3.991649  0  0  0.15695  0  4.017753  0  0  0.108978  0.153428  0  3.974032  0
C  C33  1  0.10059047  0.18807581  0.12812403  1  0  0.153216  0  3.764004  0  0  0.155162  0  3.991705  0  0  0.156909  0  4.017818  0  0  0.108947  0.153397  0  3.974093  0
C  C34  1  0.89940605  0.68808642  0.37187782  1  0  0.152973  0  3.764211  0  0  0.155061  0  3.991744  0  0  0.156812  0  4.017851  0  0  0.108899  0.153285  0  3.974142  0
C  C35  1  0.60059072  0.31191816  0.87188050  1  0  0.153071  0  3.763933  0  0  0.155127  0  3.991547  0  0  0.156879  0  4.017653  0  0  0.108886  0.153348  0  3.973944  0
C  C36  1  0.30306194  0.68287880  0.61502660  1  0  -0.135829  0  3.737799  0  0  -0.160226  0  3.99543  0  0  -0.164498  0  4.017704  0  0  -0.088357  -0.156303  0  3.97991  0
C  C37  1  0.19694090  0.31712004  0.11502895  1  0  -0.135736  0  3.737781  0  0  -0.160107  0  3.995373  0  0  -0.164404  0  4.017632  0  0  -0.088349  -0.156191  0  3.979858  0
C  C38  1  0.80305009  0.81710895  0.38497038  1  0  -0.135598  0  3.737593  0  0  -0.159978  0  3.9951  0  0  -0.164281  0  4.017361  0  0  -0.088294  -0.156057  0  3.979584  0
C  C39  1  0.69694344  0.18289136  0.88497456  1  0  -0.135801  0  3.737734  0  0  -0.160185  0  3.995287  0  0  -0.164491  0  4.017548  0  0  -0.088312  -0.15626  0  3.979775  0
C  C40  1  0.40116249  0.05530826  0.64384293  1  0  0.111212  0  3.651521  0  0  0.076195  0  3.910059  0  0  0.083643  0  3.921238  0  0  0.064326  0.071357  0  3.901625  0
C  C41  1  0.09883795  0.94468838  0.14384540  1  0  0.111317  0  3.651536  0  0  0.076266  0  3.910123  0  0  0.083712  0  3.921302  0  0  0.064374  0.071423  0  3.901706  0
C  C42  1  0.90116004  0.44469975  0.35615608  1  0  0.111467  0  3.651685  0  0  0.076344  0  3.910363  0  0  0.083789  0  3.921544  0  0  0.064385  0.071498  0  3.901946  0
C  C43  1  0.59884422  0.55529852  0.85615764  1  0  0.111469  0  3.651788  0  0  0.076358  0  3.910416  0  0  0.083805  0  3.921598  0  0  0.064389  0.071515  0  3.901989  0
C  C44  1  0.39982097  0.55913216  0.59753115  1  0  -0.052041  0  3.752364  0  0  -0.070222  0  4.014135  0  0  -0.071703  0  4.034579  0  0  -0.085277  -0.06925  0  3.999563  0
C  C45  1  0.10018249  0.44086461  0.09753279  1  0  -0.052173  0  3.752556  0  0  -0.07038  0  4.014349  0  0  -0.071864  0  4.034805  0  0  -0.085315  -0.069411  0  3.999775  0
C  C46  1  0.89981971  0.94087407  0.40246791  1  0  -0.052317  0  3.752099  0  0  -0.070505  0  4.013891  0  0  -0.071987  0  4.034344  0  0  -0.08534  -0.069536  0  3.999323  0
C  C47  1  0.60017181  0.05912831  0.90247252  1  0  -0.052162  0  3.751987  0  0  -0.070365  0  4.013759  0  0  -0.071845  0  4.034212  0  0  -0.085326  -0.0694  0  3.999197  0
C  C48  1  0.59753037  0.05519428  0.64269321  1  0  0.110319  0  3.653095  0  0  0.076476  0  3.91166  0  0  0.083784  0  3.923067  0  0  0.064552  0.07167  0  3.903165  0
C  C49  1  0.90247029  0.94480458  0.14269401  1  0  0.110233  0  3.6532  0  0  0.076376  0  3.911798  0  0  0.083685  0  3.923206  0  0  0.064535  0.07157  0  3.903302  0
C  C50  1  0.09752908  0.44479760  0.35730514  1  0  0.110138  0  3.652514  0  0  0.076329  0  3.911111  0  0  0.083644  0  3.922513  0  0  0.064468  0.071521  0  3.902621  0
C  C51  1  0.40247496  0.55520800  0.85730581  1  0  0.110294  0  3.652277  0  0  0.076446  0  3.910864  0  0  0.083769  0  3.922269  0  0  0.064568  0.07164  0  3.902368  0
C  C52  1  0.59623332  0.55903089  0.59605213  1  0  -0.052738  0  3.751759  0  0  -0.070145  0  4.01415  0  0  -0.07173  0  4.03455  0  0  -0.085305  -0.069197  0  3.999733  0
C  C53  1  0.90377176  0.44096704  0.09605365  1  0  -0.052641  0  3.751692  0  0  -0.070022  0  4.014092  0  0  -0.071612  0  4.034498  0  0  -0.085235  -0.069066  0  3.999656  0
C  C54  1  0.09623183  0.94095708  0.40394395  1  0  -0.052618  0  3.752059  0  0  -0.069994  0  4.014471  0  0  -0.07159  0  4.034887  0  0  -0.085313  -0.069045  0  4.000038  0
C  C55  1  0.40376501  0.05904096  0.90394844  1  0  -0.052701  0  3.751874  0  0  -0.070035  0  4.014247  0  0  -0.071631  0  4.034659  0  0  -0.085304  -0.069084  0  3.999816  0
C  C56  1  0.69407305  0.68266885  0.61242583  1  0  -0.13356  0  3.735155  0  0  -0.15769  0  3.990654  0  0  -0.1619  0  4.012976  0  0  -0.087237  -0.153876  0  3.975228  0
C  C57  1  0.80593145  0.31732691  0.11242857  1  0  -0.133521  0  3.735221  0  0  -0.157759  0  3.990741  0  0  -0.161967  0  4.01306  0  0  -0.087255  -0.153946  0  3.97531  0
C  C58  1  0.19406509  0.81733865  0.38757309  1  0  -0.133613  0  3.735481  0  0  -0.157892  0  3.991119  0  0  -0.162088  0  4.01342  0  0  -0.087301  -0.154073  0  3.975703  0
C  C59  1  0.30593094  0.18266262  0.88757456  1  0  -0.133638  0  3.735361  0  0  -0.157882  0  3.990917  0  0  -0.162082  0  4.013236  0  0  -0.087294  -0.154056  0  3.975505  0
N  N60  1  0.99608404  0.29340138  0.61763434  1  0  0.682025  0  4.154918  0  0  0.716708  0  4.442745  0  0  0.745395  0  4.449188  0  0  0.088751  0.709944  0  4.422085  0
N  N61  1  0.50391611  0.70660073  0.11763506  1  0  0.681668  0  4.155208  0  0  0.716386  0  4.443026  0  0  0.745071  0  4.44947  0  0  0.088698  0.709729  0  4.422231  0
N  N62  1  0.49608438  0.20659969  0.38236677  1  0  0.681724  0  4.155367  0  0  0.716463  0  4.443143  0  0  0.745149  0  4.449587  0  0  0.088665  0.709784  0  4.422385  0
N  N63  1  0.00391461  0.79339947  0.88236510  1  0  0.681777  0  4.155219  0  0  0.716496  0  4.443017  0  0  0.745183  0  4.449462  0  0  0.088755  0.709802  0  4.422276  0
N  N64  1  0.30333674  0.93669642  0.63917197  1  0  -0.278627  0  3.267783  0  0  -0.201681  0  3.540625  0  0  -0.215859  0  3.554322  0  0  -0.316704  -0.191491  0  3.530682  0
N  N65  1  0.19666387  0.06330129  0.13917548  1  0  -0.278742  0  3.267971  0  0  -0.201816  0  3.540816  0  0  -0.215993  0  3.554512  0  0  -0.316756  -0.191625  0  3.530879  0
N  N66  1  0.80333813  0.56329239  0.36082734  1  0  -0.278725  0  3.2681  0  0  -0.201799  0  3.540902  0  0  -0.215978  0  3.554599  0  0  -0.316692  -0.191601  0  3.530967  0
N  N67  1  0.69666736  0.43671010  0.86082881  1  0  -0.278733  0  3.268053  0  0  -0.201819  0  3.540879  0  0  -0.215999  0  3.554575  0  0  -0.3167  -0.191618  0  3.530934  0
N  N68  1  0.69517056  0.93656912  0.63706670  1  0  -0.278153  0  3.268712  0  0  -0.202059  0  3.542133  0  0  -0.216068  0  3.555697  0  0  -0.317149  -0.192023  0  3.532406  0
N  N69  1  0.80483030  0.06342763  0.13706905  1  0  -0.278088  0  3.268909  0  0  -0.202026  0  3.542259  0  0  -0.216039  0  3.555824  0  0  -0.317169  -0.191984  0  3.532528  0
N  N70  1  0.19517169  0.56343944  0.36293143  1  0  -0.278063  0  3.268537  0  0  -0.201986  0  3.54193  0  0  -0.216006  0  3.555502  0  0  -0.317122  -0.191939  0  3.532191  0
N  N71  1  0.30482938  0.43655978  0.86293098  1  0  -0.278443  0  3.268581  0  0  -0.202308  0  3.541954  0  0  -0.216345  0  3.55554  0  0  -0.317235  -0.192261  0  3.532217  0
O  O72  1  0.00517576  0.21733267  0.70036707  1  0  -0.513878  0  1.824642  0  0  -0.488224  0  2.078406  0  0  -0.507504  0  2.068161  0  0  -0.211626  -0.480277  0  2.081443  0
O  O73  1  0.49482408  0.78266806  0.20036868  1  0  -0.513679  0  1.824619  0  0  -0.488065  0  2.07839  0  0  -0.507351  0  2.068158  0  0  -0.211557  -0.480156  0  2.081391  0
O  O74  1  0.50517561  0.28267037  0.29963304  1  0  -0.513732  0  1.82475  0  0  -0.488088  0  2.07847  0  0  -0.507375  0  2.068244  0  0  -0.211544  -0.480172  0  2.081486  0
O  O75  1  0.99482370  0.71733123  0.79963093  1  0  -0.513748  0  1.824714  0  0  -0.488124  0  2.078467  0  0  -0.507415  0  2.068245  0  0  -0.211587  -0.480203  0  2.081486  0
O  O76  1  0.98572273  0.23443967  0.53018649  1  0  -0.458207  0  1.739579  0  0  -0.452076  0  1.959566  0  0  -0.468256  0  1.954549  0  0  -0.18734  -0.446764  0  1.959254  0
O  O77  1  0.51427495  0.76556374  0.03018701  1  0  -0.458105  0  1.739662  0  0  -0.451993  0  1.959655  0  0  -0.468172  0  1.954639  0  0  -0.187377  -0.446719  0  1.959307  0
O  O78  1  0.48572492  0.26556253  0.46981473  1  0  -0.458072  0  1.739687  0  0  -0.451975  0  1.95968  0  0  -0.468161  0  1.95468  0  0  -0.187324  -0.446692  0  1.959344  0
O  O79  1  0.01427377  0.73443640  0.96981304  1  0  -0.458109  0  1.739641  0  0  -0.451992  0  1.959622  0  0  -0.468174  0  1.954612  0  0  -0.187361  -0.446707  0  1.959287  0
O  O80  1  0.99730753  0.42728624  0.62649514  1  0  -0.464909  0  1.768673  0  0  -0.442397  0  1.991886  0  0  -0.459471  0  1.985564  0  0  -0.192626  -0.435602  0  1.991643  0
O  O81  1  0.50269370  0.57271584  0.12649529  1  0  -0.464864  0  1.768912  0  0  -0.442306  0  1.992068  0  0  -0.459375  0  1.985747  0  0  -0.192601  -0.435548  0  1.991787  0
O  O82  1  0.49730680  0.07271377  0.37350596  1  0  -0.464862  0  1.768801  0  0  -0.442355  0  1.992  0  0  -0.459427  0  1.985684  0  0  -0.192621  -0.435589  0  1.991723  0
O  O83  1  0.00269389  0.92728542  0.87350488  1  0  -0.46491  0  1.768817  0  0  -0.442363  0  1.991978  0  0  -0.459437  0  1.98566  0  0  -0.192654  -0.435596  0  1.991707  0
