# generated using pymatgen
data_AlH7C14ClO5
_symmetry_space_group_name_H-M   'P 1'
_cell_length_a   6.62996213
_cell_length_b   13.43362565
_cell_length_c   17.90266529
_cell_angle_alpha   89.89695399
_cell_angle_beta   77.65937937
_cell_angle_gamma   72.02152574
_symmetry_Int_Tables_number   1
_chemical_formula_structural   AlH7C14ClO5
_chemical_formula_sum   'Al2 H14 C28 Cl2 O10'
_cell_volume   1478.05563645
_cell_formula_units_Z   2
loop_
 _symmetry_equiv_pos_site_id
 _symmetry_equiv_pos_as_xyz
  1  'x, y, z'
loop_
 _atom_site_type_symbol
 _atom_site_label
 _atom_site_symmetry_multiplicity
 _atom_site_fract_x
 _atom_site_fract_y
 _atom_site_fract_z
 _atom_site_occupancy
 _atom_site_pbe_bader_charge
 _atom_site_pbe_bader_spin_density
 _atom_site_pbe_cm5_charge
 _atom_site_pbe_ddec_charge
 _atom_site_pbe_ddec_spin_density
 _atom_site_pbe_ddec_sum_bond_order
 _atom_site_pbe_magmom
Al  Al0  1  0.00010567  0.49987089  0.49998917  1  2.501085  0  0.395615  1.642731  0  2.570417  0
Al  Al1  1  0.50014034  0.49982755  0.49997344  1  2.500167  0  0.389735  1.648296  0  2.572031  0
H  H2  1  0.16062032  0.55854571  0.59314102  1  0.647026  0  0.33167  0.407958  0  0.905453  0
H  H3  1  0.83936706  0.44124447  0.40683099  1  0.64743  0  0.331223  0.407704  0  0.905832  0
H  H4  1  0.04397903  0.58975619  0.27792348  1  0.094689  0  0.114216  0.119701  0  0.984445  0
H  H5  1  0.10118789  0.59061559  0.13577410  1  0.093345  0  0.109225  0.115626  0  0.983112  0
H  H6  1  0.78330322  0.42392085  0.11606210  1  0.096017  0  0.11054  0.126948  0  0.988988  0
H  H7  1  0.21662707  0.57647690  0.88388469  1  0.093045  0  0.110519  0.126706  0  0.989904  0
H  H8  1  0.95593993  0.41061577  0.72219990  1  0.096711  0  0.113942  0.119128  0  0.985309  0
H  H9  1  0.89870578  0.41012684  0.86435463  1  0.087077  0  0.109161  0.115162  0  0.983303  0
H  H10  1  0.86690132  0.82120894  0.46880447  1  0.093176  0  0.111307  0.120544  0  0.995547  0
H  H11  1  0.21638550  0.81112215  0.55262733  1  0.106257  0  0.108621  0.11747  0  0.997803  0
H  H12  1  0.06980369  0.00672579  0.55747360  1  0.055172  0  0.10264  0.103757  0  1.008203  0
H  H13  1  0.13302192  0.17850916  0.53109225  1  0.092516  0  0.11127  0.120574  0  0.995043  0
H  H14  1  0.78363121  0.18856617  0.44741852  1  0.111099  0  0.108908  0.117541  0  0.99711  0
H  H15  1  0.93022320  0.99297663  0.44252047  1  0.052759  0  0.102641  0.10367  0  1.008379  0
C  C16  1  0.63401147  0.68923078  0.50849967  1  1.579343  0  0.26387  0.63577  0  4.105896  0
C  C17  1  0.67013729  0.48601415  0.63694286  1  1.592953  0  0.269224  0.653232  0  4.095044  0
C  C18  1  0.36607055  0.31044540  0.49144248  1  1.583318  0  0.264169  0.636935  0  4.104382  0
C  C19  1  0.32995519  0.51384723  0.36303262  1  1.590847  0  0.269155  0.653619  0  4.095295  0
C  C20  1  0.37891303  0.51122044  0.27752121  1  0.027671  0  -0.013067  -0.097628  0  3.934566  0
C  C21  1  0.20593431  0.55534863  0.24154247  1  -0.023099  0  -0.075733  -0.074131  0  3.998593  0
C  C22  1  0.23732267  0.55543450  0.16246742  1  -0.004589  0  -0.082894  -0.134414  0  3.949835  0
C  C23  1  0.44694100  0.50786414  0.11587900  1  0.014652  0  0.005943  0.163263  0  4.114857  0
C  C24  1  0.62145217  0.46248298  0.15117581  1  -0.011246  0  -0.088676  -0.199848  0  3.925069  0
C  C25  1  0.58793736  0.46474541  0.23072242  1  0.105688  0  0.023552  0.139183  0  4.025981  0
C  C26  1  0.48348087  0.50312984  0.03497058  1  0.193754  0  -0.040232  -0.101611  0  4.10067  0
C  C27  1  0.51632263  0.49753918  0.96510553  1  -0.453115  0  -0.040524  -0.100541  0  4.100529  0
C  C28  1  0.55288593  0.49274321  0.88419661  1  0.010299  0  0.005229  0.161221  0  4.116346  0
C  C29  1  0.37853017  0.53802752  0.84881988  1  0.0704  0  -0.088254  -0.198454  0  3.925412  0
C  C30  1  0.41209995  0.53551062  0.76927547  1  0.026737  0  0.023246  0.138392  0  4.026562  0
C  C31  1  0.62104891  0.48882659  0.72250387  1  0.027742  0  -0.01301  -0.097424  0  3.933294  0
C  C32  1  0.79391809  0.44485670  0.75857062  1  -0.021447  0  -0.075656  -0.073397  0  3.997036  0
C  C33  1  0.76250270  0.44510372  0.83766668  1  0.003181  0  -0.082578  -0.133607  0  3.949564  0
C  C34  1  0.69292937  0.86268846  0.48719663  1  -0.010557  0  -0.076352  -0.136679  0  3.920659  0
C  C35  1  0.32344156  0.85835908  0.53507216  1  -0.046105  0  -0.085683  -0.099514  0  3.993393  0
C  C36  1  0.24361547  0.96602771  0.53721910  1  -0.03389  0  -0.089648  -0.135776  0  4.000916  0
C  C37  1  0.38523108  0.02637018  0.51282329  1  -0.0395  0  -0.00445  0.077377  0  3.99936  0
C  C38  1  0.30702185  0.13698118  0.51270413  1  -0.000267  0  -0.075176  -0.135284  0  3.921297  0
C  C39  1  0.67649459  0.14133586  0.46490207  1  -0.049942  0  -0.086084  -0.099339  0  3.992427  0
C  C40  1  0.75642587  0.03367175  0.46275938  1  -0.036991  0  -0.08987  -0.135946  0  3.999802  0
C  C41  1  0.61481238  0.97331426  0.48711274  1  0.014181  0  -0.003378  0.078711  0  3.997752  0
C  C42  1  0.55043445  0.80597839  0.51011188  1  -0.067117  0  -0.016106  -0.040374  0  3.989174  0
C  C43  1  0.44953189  0.19369269  0.48982682  1  -0.071053  0  -0.016553  -0.041461  0  3.990199  0
Cl  Cl44  1  0.81302164  0.40124976  0.26728933  1  -0.199191  0  0.021577  -0.057603  0  1.518389  0
Cl  Cl45  1  0.18695979  0.59870258  0.73261751  1  -0.199311  0  0.021531  -0.057698  0  1.518248  0
O  O46  1  0.83938123  0.64573029  0.49612568  1  -1.2466  0  -0.23956  -0.590064  0  2.336382  0
O  O47  1  0.53312032  0.46940823  0.60283092  1  -1.252255  0  -0.233648  -0.587336  0  2.358275  0
O  O48  1  0.50826710  0.35804572  0.47956181  1  -1.271322  0  -0.238579  -0.59958  0  2.361919  0
O  O49  1  0.15134020  0.49934379  0.39508376  1  -1.250762  0  -0.229623  -0.583018  0  2.333472  0
O  O50  1  0.16071583  0.35398705  0.50386121  1  -1.247346  0  -0.239768  -0.591011  0  2.335779  0
O  O51  1  0.46695514  0.53041757  0.39716862  1  -1.250884  0  -0.233564  -0.58766  0  2.35759  0
O  O52  1  0.49185208  0.64160585  0.52044709  1  -1.270845  0  -0.238776  -0.599704  0  2.362205  0
O  O53  1  0.84877330  0.50047660  0.60487887  1  -1.251087  0  -0.22939  -0.582712  0  2.333897  0
O  O54  1  0.20173841  0.54199589  0.53811755  1  -1.44971  0  -0.451222  -0.989693  0  2.216277  0
O  O55  1  0.79822788  0.45772903  0.46186689  1  -1.450103  0  -0.450674  -0.989712  0  2.216516  0
