# generated using pymatgen
data_FeH14C20(N5Cl)2
_symmetry_space_group_name_H-M   'P 1'
_cell_length_a   7.46794790
_cell_length_b   7.99248498
_cell_length_c   9.14477009
_cell_angle_alpha   112.93473145
_cell_angle_beta   96.61512100
_cell_angle_gamma   103.87560804
_symmetry_Int_Tables_number   1
_chemical_formula_structural   FeH14C20(N5Cl)2
_chemical_formula_sum   'Fe1 H14 C20 N10 Cl2'
_cell_volume   474.53613118
_cell_formula_units_Z   1
loop_
 _symmetry_equiv_pos_site_id
 _symmetry_equiv_pos_as_xyz
  1  'x, y, z'
loop_
 _atom_site_type_symbol
 _atom_site_label
 _atom_site_symmetry_multiplicity
 _atom_site_fract_x
 _atom_site_fract_y
 _atom_site_fract_z
 _atom_site_occupancy
 _atom_site_hle17_bader_spin_density
 _atom_site_hle17_ddec_charge
 _atom_site_hle17_ddec_spin_density
 _atom_site_hle17_ddec_sum_bond_order
 _atom_site_hle17_magmom
 _atom_site_hse06_10hf_bader_spin_density
 _atom_site_hse06_10hf_ddec_charge
 _atom_site_hse06_10hf_ddec_spin_density
 _atom_site_hse06_10hf_ddec_sum_bond_order
 _atom_site_hse06_10hf_magmom
 _atom_site_hse06_bader_spin_density
 _atom_site_hse06_ddec_charge
 _atom_site_hse06_ddec_spin_density
 _atom_site_hse06_ddec_sum_bond_order
 _atom_site_hse06_magmom
 _atom_site_pbe_bader_spin_density
 _atom_site_pbe_cm5_charge
 _atom_site_pbe_ddec_charge
 _atom_site_pbe_ddec_spin_density
 _atom_site_pbe_ddec_sum_bond_order
 _atom_site_pbe_magmom
Fe  Fe0  1  0.00001348  0.50003151  0.50000227  1  0  0.424961  0  3.107145  0  0  0.410445  0  3.562192  0  0  0.446198  0  3.519757  0  0  0.615579  0.393503  0  3.582229  0
H  H1  1  0.59982751  0.71747541  0.33243910  1  0  0.088234  0  0.964493  0  0  0.092441  0  1.033  0  0  0.096329  0  1.030833  0  0  0.106896  0.089002  0  1.036011  0
H  H2  1  0.40014269  0.28255608  0.66751807  1  0  0.087991  0  0.964669  0  0  0.092235  0  1.033124  0  0  0.096109  0  1.030964  0  0  0.106843  0.088796  0  1.036135  0
H  H3  1  0.40505098  0.57190105  0.48134627  1  0  0.094752  0  0.962612  0  0  0.098354  0  1.033432  0  0  0.102777  0  1.027864  0  0  0.113142  0.095011  0  1.037696  0
H  H4  1  0.59494842  0.42809873  0.51859911  1  0  0.09466  0  0.962578  0  0  0.09828  0  1.033385  0  0  0.102701  0  1.02782  0  0  0.113253  0.094947  0  1.037644  0
H  H5  1  0.98966651  0.80717063  0.39486206  1  0  0.100112  0  1.014877  0  0  0.096003  0  1.094236  0  0  0.100645  0  1.088799  0  0  0.119528  0.09243  0  1.098795  0
H  H6  1  0.01034723  0.19290020  0.60522098  1  0  0.099943  0  1.015085  0  0  0.096147  0  1.094119  0  0  0.100791  0  1.08868  0  0  0.119462  0.092571  0  1.098688  0
H  H7  1  0.06610318  0.45319530  0.12596814  1  0  0.124723  0  0.962899  0  0  0.134231  0  1.021001  0  0  0.13732  0  1.020745  0  0  0.109289  0.132387  0  1.020551  0
H  H8  1  0.93405880  0.54686929  0.87400227  1  0  0.124602  0  0.962941  0  0  0.134083  0  1.021106  0  0  0.137171  0  1.02085  0  0  0.109228  0.132237  0  1.020659  0
H  H9  1  0.20473701  0.34161750  0.88269979  1  0  0.096618  0  0.972843  0  0  0.106381  0  1.036566  0  0  0.110069  0  1.033755  0  0  0.095722  0.103686  0  1.038781  0
H  H10  1  0.79535721  0.65830211  0.11725993  1  0  0.096849  0  0.972447  0  0  0.106453  0  1.036354  0  0  0.110146  0  1.033533  0  0  0.095758  0.103757  0  1.038568  0
H  H11  1  0.33363751  0.06284474  0.82409338  1  0  0.117816  0  0.966948  0  0  0.120828  0  1.036686  0  0  0.124401  0  1.034714  0  0  0.107159  0.117948  0  1.039035  0
H  H12  1  0.66626651  0.93694930  0.17586314  1  0  0.117889  0  0.966864  0  0  0.121008  0  1.036508  0  0  0.124579  0  1.034534  0  0  0.107238  0.118122  0  1.038871  0
H  H13  1  0.32694446  0.90788696  0.01528737  1  0  0.105551  0  0.957065  0  0  0.110198  0  1.028153  0  0  0.113579  0  1.025247  0  0  0.120699  0.107697  0  1.030361  0
H  H14  1  0.67293137  0.09199822  0.98474523  1  0  0.105255  0  0.957235  0  0  0.109908  0  1.028348  0  0  0.113286  0  1.025442  0  0  0.120567  0.107396  0  1.030586  0
C  C15  1  0.46625679  0.74628374  0.35015887  1  0  0.077173  0  3.706177  0  0  0.054282  0  3.969585  0  0  0.055031  0  3.981407  0  0  0.042983  0.053399  0  3.962606  0
C  C16  1  0.53371877  0.25373855  0.64982752  1  0  0.077602  0  3.705438  0  0  0.054742  0  3.968837  0  0  0.055507  0  3.980654  0  0  0.043262  0.053854  0  3.961865  0
C  C17  1  0.35671512  0.65907244  0.42959810  1  0  0.059603  0  3.631176  0  0  0.021644  0  3.899772  0  0  0.033553  0  3.903927  0  0  0.03748  0.013172  0  3.897882  0
C  C18  1  0.64327691  0.34094127  0.57037853  1  0  0.059713  0  3.630839  0  0  0.021696  0  3.899506  0  0  0.033596  0  3.903671  0  0  0.037379  0.013184  0  3.8976  0
C  C19  1  0.12863694  0.79193073  0.38505885  1  0  0.035689  0  3.619006  0  0  -0.005327  0  3.880293  0  0  0.003657  0  3.88658  0  0  0.043421  -0.010788  0  3.876298  0
C  C20  1  0.87136389  0.20812505  0.61498248  1  0  0.036127  0  3.618953  0  0  -0.005186  0  3.880254  0  0  0.003785  0  3.886564  0  0  0.043545  -0.010681  0  3.876235  0
C  C21  1  0.24990091  0.89436023  0.32200701  1  0  0.110215  0  3.828286  0  0  0.115349  0  4.082848  0  0  0.117119  0  4.098544  0  0  0.118308  0.112947  0  4.07204  0
C  C22  1  0.75007947  0.10568576  0.67802418  1  0  0.109955  0  3.828345  0  0  0.11502  0  4.083133  0  0  0.116786  0  4.098842  0  0  0.118277  0.112623  0  4.072319  0
C  C23  1  0.19503031  0.04632651  0.29677223  1  0  0.194166  0  3.757761  0  0  0.160478  0  4.031849  0  0  0.166575  0  4.049821  0  0  0.218946  0.157163  0  4.019437  0
C  C24  1  0.80493445  0.95370944  0.70326242  1  0  0.194174  0  3.757993  0  0  0.160515  0  4.031999  0  0  0.166624  0  4.049971  0  0  0.219077  0.157195  0  4.01958  0
C  C25  1  0.13617267  0.25450224  0.20927373  1  0  0.282564  0  3.712598  0  0  0.260233  0  3.967317  0  0  0.273847  0  3.983256  0  0  0.219005  0.251581  0  3.956599  0
C  C26  1  0.86384673  0.74553111  0.79072382  1  0  0.282308  0  3.712529  0  0  0.259839  0  3.967308  0  0  0.273451  0  3.983252  0  0  0.218756  0.251186  0  3.9566  0
C  C27  1  0.13004790  0.33927770  0.10054514  1  0  -0.172042  0  3.732267  0  0  -0.193236  0  3.987397  0  0  -0.200933  0  4.005922  0  0  -0.085505  -0.188446  0  3.974876  0
C  C28  1  0.87005053  0.66073394  0.89942695  1  0  -0.171942  0  3.732036  0  0  -0.1931  0  3.987138  0  0  -0.200793  0  4.005668  0  0  -0.085526  -0.188309  0  3.974619  0
C  C29  1  0.20347284  0.27282112  0.96505723  1  0  -0.019882  0  3.706493  0  0  -0.039384  0  3.961058  0  0  -0.034049  0  3.976781  0  0  -0.081823  -0.043253  0  3.951063  0
C  C30  1  0.79658504  0.72709448  0.03489791  1  0  -0.020123  0  3.705736  0  0  -0.039492  0  3.960364  0  0  -0.034157  0  3.976075  0  0  -0.081914  -0.043359  0  3.950365  0
C  C31  1  0.27674403  0.11665920  0.93157421  1  0  -0.103884  0  3.725182  0  0  -0.123493  0  3.991086  0  0  -0.129583  0  4.009989  0  0  -0.089282  -0.119515  0  3.979271  0
C  C32  1  0.72322964  0.88321326  0.06840651  1  0  -0.104024  0  3.725363  0  0  -0.123749  0  3.991174  0  0  -0.129845  0  4.01009  0  0  -0.089221  -0.119769  0  3.979359  0
C  C33  1  0.27848108  0.03113827  0.03492067  1  0  0.076635  0  3.621299  0  0  0.032454  0  3.886522  0  0  0.040968  0  3.899398  0  0  0.0402  0.026703  0  3.878022  0
C  C34  1  0.72145914  0.96878123  0.96510395  1  0  0.07709  0  3.621506  0  0  0.032987  0  3.886618  0  0  0.041504  0  3.899495  0  0  0.040267  0.027236  0  3.878104  0
N  N35  1  0.41592793  0.86514546  0.29509088  1  0  -0.289581  0  3.031897  0  0  -0.260741  0  3.29357  0  0  -0.261401  0  3.303305  0  0  -0.302589  -0.259954  0  3.287576  0
N  N36  1  0.58404875  0.13490071  0.70493227  1  0  -0.289603  0  3.03154  0  0  -0.260749  0  3.293235  0  0  -0.26142  0  3.302977  0  0  -0.30275  -0.259956  0  3.287234  0
N  N37  1  0.12074736  0.15930046  0.40337925  1  0  -0.216277  0  3.020063  0  0  -0.192747  0  3.298237  0  0  -0.196954  0  3.313852  0  0  -0.196377  -0.190402  0  3.289375  0
N  N38  1  0.87923219  0.84076293  0.59664686  1  0  -0.216374  0  3.020513  0  0  -0.192769  0  3.298472  0  0  -0.196988  0  3.314096  0  0  -0.196363  -0.190411  0  3.289604  0
N  N39  1  0.08380421  0.28872670  0.35331110  1  0  -0.206268  0  3.260215  0  0  -0.171119  0  3.551086  0  0  -0.190338  0  3.567732  0  0  -0.242919  -0.159488  0  3.539625  0
N  N40  1  0.91620021  0.71133122  0.64668872  1  0  -0.206211  0  3.260241  0  0  -0.170852  0  3.550903  0  0  -0.190066  0  3.567552  0  0  -0.242901  -0.159236  0  3.539461  0
N  N41  1  0.21159533  0.10251468  0.17304148  1  0  -0.112154  0  3.564775  0  0  -0.026421  0  3.770468  0  0  -0.04022  0  3.794093  0  0  -0.199948  -0.017285  0  3.754264  0
N  N42  1  0.78839282  0.89750535  0.82698719  1  0  -0.111842  0  3.564556  0  0  -0.026078  0  3.770198  0  0  -0.039883  0  3.793826  0  0  -0.19972  -0.016938  0  3.75399  0
N  N43  1  0.18022867  0.67192295  0.43954937  1  0  -0.169494  0  3.356656  0  0  -0.113528  0  3.618937  0  0  -0.125671  0  3.630425  0  0  -0.330981  -0.107084  0  3.611348  0
N  N44  1  0.81976797  0.32811312  0.56046612  1  0  -0.169835  0  3.356525  0  0  -0.113818  0  3.618895  0  0  -0.125965  0  3.630388  0  0  -0.331029  -0.107267  0  3.611201  0
Cl  Cl45  1  0.23772172  0.56244001  0.71871562  1  0  -0.486714  0  1.008616  0  0  -0.482225  0  1.272354  0  0  -0.519921  0  1.262908  0  0  -0.271189  -0.45379  0  1.27686  0
Cl  Cl46  1  0.76229577  0.43760047  0.28128743  1  0  -0.486719  0  1.008557  0  0  -0.48222  0  1.272279  0  0  -0.519913  0  1.262815  0  0  -0.27123  -0.453802  0  1.276822  0
