# generated using pymatgen
data_Ni3H20C32(N2O7)2
_symmetry_space_group_name_H-M   'P 1'
_cell_length_a   12.25569232
_cell_length_b   14.36271793
_cell_length_c   14.36609831
_cell_angle_alpha   99.94540073
_cell_angle_beta   90.83224913
_cell_angle_gamma   90.84262391
_symmetry_Int_Tables_number   1
_chemical_formula_structural   Ni3H20C32(N2O7)2
_chemical_formula_sum   'Ni6 H40 C64 N8 O28'
_cell_volume   2490.14922905
_cell_formula_units_Z   2
loop_
 _symmetry_equiv_pos_site_id
 _symmetry_equiv_pos_as_xyz
  1  'x, y, z'
loop_
 _atom_site_type_symbol
 _atom_site_label
 _atom_site_symmetry_multiplicity
 _atom_site_fract_x
 _atom_site_fract_y
 _atom_site_fract_z
 _atom_site_occupancy
 _atom_site_pbe_bader_charge
 _atom_site_pbe_bader_spin_density
 _atom_site_pbe_cm5_charge
 _atom_site_pbe_ddec_charge
 _atom_site_pbe_ddec_spin_density
 _atom_site_pbe_ddec_sum_bond_order
 _atom_site_pbe_magmom
Ni  Ni0  1  0.26284318  0.57935572  0.02483051  1  1.272985  0.79014  0.73297  0.918165  0.978981  2.862314  0.775
Ni  Ni1  1  0.23719810  0.97522803  0.42074862  1  1.272979  0.790284  0.733384  0.918017  0.979311  2.862791  0.775
Ni  Ni2  1  0.73720712  0.42061861  0.97516028  1  1.272451  0.790033  0.732569  0.917841  0.978828  2.861376  0.775
Ni  Ni3  1  0.76282704  0.02480303  0.57926990  1  1.272644  0.790282  0.733332  0.917813  0.979277  2.862771  0.775
Ni  Ni4  1  0.50002985  0.49998022  0.99998354  1  1.393442  0.945942  0.780611  1.137113  1.18335  2.836534  0.927
Ni  Ni5  1  0.99994083  0.00001950  0.50002848  1  1.394446  0.945873  0.780781  1.137178  1.183267  2.837518  0.927
H  H6  1  0.08688710  0.52410249  0.15524197  1  0.130487  -0.000198  0.131183  0.106592  -0.000215  1.006317  0.0
H  H7  1  0.09232739  0.56722481  0.87769155  1  0.175926  -0.000116  0.136778  0.118717  -0.00016  0.987039  0.0
H  H8  1  0.39913173  0.15046901  0.23739047  1  0.065617  0.000249  0.100784  0.103954  0.000128  1.005177  0.0
H  H9  1  0.24755909  0.80343680  0.05793970  1  0.1663  0.002405  0.133112  0.116964  0.001077  0.980383  0.002
H  H10  1  0.45164393  0.27913150  0.14676236  1  0.138422  0.000193  0.110797  0.1248  0.000124  1.012027  0.0
H  H11  1  0.13805058  0.40437178  0.20212391  1  0.049623  0.000181  0.094648  0.087067  7.4e-05  1.047986  0.0
H  H12  1  0.08743175  0.27853528  0.29460634  1  0.128417  0.000312  0.105119  0.109509  0.000193  1.021082  0.0
H  H13  1  0.45001601  0.31575110  0.73999547  1  0.088901  0.000444  0.105585  0.11091  0.000244  1.00036  0.0
H  H14  1  0.12068202  0.38904613  0.81349711  1  0.050985  0.000641  0.093724  0.088667  0.000374  1.058083  0.0
H  H15  1  0.25265956  0.61574073  0.24653169  1  0.136148  0.002357  0.129444  0.11226  0.001027  0.995658  0.002
H  H16  1  0.41310492  0.84473933  0.47580887  1  0.130551  -0.000198  0.131028  0.106705  -0.000216  1.006185  0.0
H  H17  1  0.40759500  0.12246856  0.43303241  1  0.176253  -0.000118  0.136873  0.118894  -0.000161  0.986882  0.0
H  H18  1  0.10092309  0.76304497  0.84985847  1  0.083016  0.000247  0.100456  0.102836  0.000128  1.006264  0.0
H  H19  1  0.25256707  0.94241107  0.19696714  1  0.16498  0.002408  0.133412  0.117304  0.001076  0.980066  0.002
H  H20  1  0.04841547  0.85364378  0.72120008  1  0.135332  0.000195  0.110791  0.124873  0.000125  1.011256  0.0
H  H21  1  0.36175583  0.79780511  0.59563966  1  0.051053  0.000181  0.094685  0.087255  7.4e-05  1.048051  0.0
H  H22  1  0.41240522  0.70539558  0.72150614  1  0.13065  0.000312  0.105041  0.109557  0.000193  1.021181  0.0
H  H23  1  0.04999822  0.26034325  0.68404424  1  0.088422  0.000444  0.105523  0.110549  0.000245  1.00011  0.0
H  H24  1  0.37932666  0.18619330  0.61140121  1  0.092432  0.000622  0.093628  0.08859  0.000374  1.058113  0.0
H  H25  1  0.24690689  0.75360685  0.38444556  1  0.134785  0.002359  0.12946  0.112453  0.001027  0.995577  0.002
H  H26  1  0.91313655  0.47588271  0.84475780  1  0.130485  -0.000197  0.131134  0.106607  -0.000215  1.006651  0.0
H  H27  1  0.90769921  0.43275117  0.12230524  1  0.17622  -0.000116  0.136828  0.118858  -0.00016  0.986725  0.0
H  H28  1  0.60083332  0.84950962  0.76263246  1  0.065649  0.000249  0.10082  0.104015  0.000128  1.00506  0.0
H  H29  1  0.75243435  0.19656305  0.94204458  1  0.166524  0.002406  0.13309  0.116982  0.001078  0.980524  0.002
H  H30  1  0.54834472  0.72080405  0.85321090  1  0.13786  0.000193  0.110745  0.124808  0.000124  1.012055  0.0
H  H31  1  0.86195415  0.59560983  0.79782463  1  0.049274  0.000181  0.09475  0.08738  7.4e-05  1.04772  0.0
H  H32  1  0.91255913  0.72148648  0.70538739  1  0.128944  0.000312  0.105129  0.10954  0.000193  1.021094  0.0
H  H33  1  0.55001147  0.68424407  0.25999296  1  0.089283  0.000443  0.105603  0.110815  0.000244  1.000379  0.0
H  H34  1  0.87935715  0.61095485  0.18654069  1  0.051143  0.000641  0.09368  0.088559  0.000374  1.058129  0.0
H  H35  1  0.74724061  0.38425803  0.75346337  1  0.136452  0.002359  0.129471  0.112451  0.001028  0.995691  0.002
H  H36  1  0.58688005  0.15532973  0.52421135  1  0.1296  -0.000199  0.130978  0.106645  -0.000216  1.006047  0.0
H  H37  1  0.59237511  0.87759920  0.56699488  1  0.176032  -0.000118  0.136948  0.118901  -0.000161  0.987125  0.0
H  H38  1  0.89911055  0.23692383  0.15013928  1  0.083006  0.000247  0.100551  0.102887  0.000128  1.006756  0.0
H  H39  1  0.74743708  0.05759286  0.80302161  1  0.165035  0.002409  0.133403  0.117347  0.001076  0.980098  0.002
H  H40  1  0.95159673  0.14637597  0.27883419  1  0.135243  0.000195  0.110738  0.124687  0.000125  1.011604  0.0
H  H41  1  0.63821687  0.20219802  0.40432243  1  0.051124  0.00018  0.094647  0.087174  7.4e-05  1.048151  0.0
H  H42  1  0.58760031  0.29457698  0.27842129  1  0.130412  0.000313  0.104932  0.10959  0.000194  1.021111  0.0
H  H43  1  0.95002036  0.73965442  0.31599664  1  0.088399  0.000444  0.105518  0.110463  0.000245  1.000271  0.0
H  H44  1  0.62067046  0.81380422  0.38860223  1  0.092213  0.000622  0.093597  0.088626  0.000374  1.057972  0.0
H  H45  1  0.75301888  0.24639801  0.61554565  1  0.134636  0.002361  0.129483  0.112454  0.001028  0.995507  0.002
C  C46  1  0.04743217  0.51368755  0.08590416  1  0.512268  -0.002362  0.066191  0.048845  -0.002771  3.891582  -0.001
C  C47  1  0.05048476  0.53707503  0.93206903  1  0.507275  -0.002356  0.070499  0.068433  -0.002728  3.871495  -0.001
C  C48  1  0.34204429  0.20615330  0.22917668  1  -0.068706  2.1e-05  -0.090153  -0.111106  -0.0002  3.988456  0.0
C  C49  1  0.32977144  0.42944148  0.86612519  1  1.59073  -0.000337  0.228542  0.588548  -0.000714  4.145339  -0.003
C  C50  1  0.32942408  0.42307718  0.11200698  1  1.532191  0.000178  0.231791  0.588476  -0.00019  4.108668  -0.001
C  C51  1  0.28902332  0.35953695  0.78319307  1  -0.043951  0.016794  -0.008639  -0.013308  0.010931  3.945809  0.013
C  C52  1  0.29806064  0.34877468  0.16849263  1  -0.008843  0.009454  -0.013478  -0.024769  0.006219  3.953147  0.007
C  C53  1  0.20150079  0.13697455  0.33196307  1  1.562767  -0.001672  0.205566  0.545657  -0.002179  4.19228  -0.003
C  C54  1  0.24895545  0.79306044  0.13141528  1  0.438473  0.003873  0.0736  0.062099  0.002205  3.866865  0.003
C  C55  1  0.37156074  0.27694049  0.17841108  1  -0.026022  0.001853  -0.077416  -0.083799  0.001113  3.934671  0.001
C  C56  1  0.23924387  0.20665163  0.27078638  1  -0.020386  0.008333  -0.014674  -0.021921  0.005329  3.961839  0.006
C  C57  1  0.19523264  0.34891680  0.20988218  1  -0.096378  0.002413  -0.093028  -0.103164  0.00141  4.013994  0.002
C  C58  1  0.16624259  0.27874223  0.26057462  1  -0.011035  0.000889  -0.087242  -0.099967  0.000478  3.990128  0.001
C  C59  1  0.36288749  0.30372182  0.72583650  1  0.016607  0.001954  -0.081196  -0.090113  0.001019  3.974193  0.002
C  C60  1  0.17642167  0.34538435  0.76728473  1  -0.042968  0.001785  -0.088782  -0.098161  0.000991  3.99012  0.001
C  C61  1  0.25014325  0.68897926  0.23568461  1  0.466475  0.004036  0.063244  0.047489  0.002499  3.904042  0.003
C  C62  1  0.45256297  0.91408715  0.48625155  1  0.499378  -0.00238  0.065978  0.048479  -0.002779  3.892066  -0.001
C  C63  1  0.44948540  0.06802991  0.46306183  1  0.505435  -0.002368  0.070622  0.068603  -0.002741  3.870827  -0.001
C  C64  1  0.15797988  0.77116174  0.79411103  1  -0.038594  1.3e-05  -0.089126  -0.109834  -0.000196  3.98807  0.0
C  C65  1  0.17021242  0.13388687  0.57068854  1  1.591925  -0.00033  0.228668  0.588796  -0.000696  4.145611  -0.003
C  C66  1  0.17050925  0.88804341  0.57702767  1  1.531804  0.000197  0.231709  0.588803  -0.000175  4.109402  -0.001
C  C67  1  0.21099270  0.21681374  0.64059633  1  -0.042489  0.016786  -0.008758  -0.012826  0.010925  3.945697  0.013
C  C68  1  0.20188105  0.83166731  0.65139413  1  -0.011675  0.009474  -0.013936  -0.025585  0.006232  3.953405  0.007
C  C69  1  0.29850853  0.66829048  0.86322728  1  1.56644  -0.001679  0.206026  0.547966  -0.002188  4.191923  -0.003
C  C70  1  0.25105395  0.86888833  0.20726555  1  0.527062  0.003607  0.072012  0.060963  0.002182  3.865303  0.003
C  C71  1  0.12846245  0.82189819  0.72331959  1  -0.022376  0.001841  -0.077899  -0.084081  0.001105  3.934536  0.001
C  C72  1  0.26071631  0.72943632  0.79354557  1  -0.071476  0.0083  -0.014499  -0.021298  0.005295  3.960382  0.006
C  C73  1  0.30465257  0.79016454  0.65117112  1  -0.091579  0.002398  -0.092495  -0.102476  0.001403  4.013557  0.002
C  C74  1  0.33365226  0.73951574  0.72136996  1  -0.014566  0.000887  -0.087676  -0.101008  0.000476  3.990586  0.001
C  C75  1  0.13713153  0.27438448  0.69619081  1  0.012792  0.001944  -0.081262  -0.089999  0.00101  3.973341  0.002
C  C76  1  0.32359561  0.23257267  0.65489524  1  -0.085865  0.001799  -0.0889  -0.098547  0.000987  3.990435  0.001
C  C77  1  0.24955263  0.76449559  0.31123359  1  0.546081  0.003783  0.062972  0.046519  0.002486  3.903679  0.003
C  C78  1  0.95258809  0.48628931  0.91408219  1  0.498703  -0.002377  0.066294  0.048879  -0.002775  3.892167  -0.001
C  C79  1  0.94954189  0.46290167  0.06792580  1  0.493406  -0.002372  0.070474  0.068427  -0.002734  3.870766  -0.001
C  C80  1  0.65793017  0.79382751  0.77082529  1  -0.069281  1.9e-05  -0.089961  -0.11089  -0.000203  3.988311  0.0
C  C81  1  0.67026838  0.57054136  0.13387872  1  1.591004  -0.000345  0.228644  0.588484  -0.000718  4.145462  -0.003
C  C82  1  0.67058717  0.57689629  0.88797366  1  1.531621  0.000174  0.231636  0.588173  -0.000194  4.109162  -0.001
C  C83  1  0.71101038  0.64045590  0.21680901  1  -0.043026  0.016795  -0.008512  -0.013149  0.010934  3.945549  0.013
C  C84  1  0.70193327  0.65118848  0.83147460  1  -0.008837  0.009437  -0.013457  -0.024375  0.006208  3.95292  0.007
C  C85  1  0.79849509  0.86307149  0.66808390  1  1.56369  -0.001676  0.205566  0.546025  -0.002182  4.192483  -0.003
C  C86  1  0.75101490  0.20693540  0.86857399  1  0.438261  0.003869  0.073701  0.062325  0.0022  3.866869  0.003
C  C87  1  0.62842958  0.72301977  0.82156947  1  -0.02527  0.001855  -0.077493  -0.084135  0.001115  3.93488  0.001
C  C88  1  0.76073570  0.79335880  0.72922314  1  -0.020231  0.008345  -0.014758  -0.021757  0.005336  3.961353  0.006
C  C89  1  0.80476113  0.65106406  0.79008615  1  -0.096725  0.002414  -0.093099  -0.103733  0.001411  4.013861  0.002
C  C90  1  0.83374031  0.72125987  0.73941050  1  -0.010778  0.000888  -0.087344  -0.10011  0.000477  3.990026  0.001
C  C91  1  0.63713569  0.69627328  0.27416504  1  0.015738  0.001955  -0.081237  -0.089945  0.001019  3.973814  0.002
C  C92  1  0.82360466  0.65461899  0.23274483  1  -0.042792  0.001779  -0.088869  -0.098248  0.000988  3.990548  0.001
C  C93  1  0.74978153  0.31102066  0.76430568  1  0.466619  0.004032  0.063111  0.047205  0.002497  3.904513  0.003
C  C94  1  0.54742315  0.08596709  0.51376185  1  0.500262  -0.002374  0.066006  0.048463  -0.002774  3.89215  -0.001
C  C95  1  0.55050158  0.93202849  0.53695931  1  0.507258  -0.002362  0.070529  0.068507  -0.002734  3.871317  -0.001
C  C96  1  0.84205044  0.22882137  0.20587460  1  -0.038227  1.3e-05  -0.089215  -0.110039  -0.000195  3.988745  0.0
C  C97  1  0.82978648  0.86612320  0.42933669  1  1.591582  -0.00034  0.228563  0.588573  -0.000709  4.145402  -0.003
C  C98  1  0.82948628  0.11198025  0.42298671  1  1.531649  0.000185  0.231642  0.588525  -0.000189  4.10898  -0.001
C  C99  1  0.78901755  0.78319477  0.35943029  1  -0.046491  0.016786  -0.008753  -0.012814  0.01092  3.945476  0.013
C  C100  1  0.79811031  0.16834803  0.34860542  1  -0.012323  0.009487  -0.013803  -0.025413  0.00624  3.953359  0.007
C  C101  1  0.70150756  0.33167249  0.13673070  1  1.565061  -0.001678  0.206048  0.547891  -0.002189  4.191495  -0.003
C  C102  1  0.74893530  0.13111082  0.79272407  1  0.527215  0.003612  0.07207  0.060928  0.002186  3.865242  0.003
C  C103  1  0.87155349  0.17810469  0.27669432  1  -0.022229  0.00184  -0.077773  -0.083675  0.001104  3.93461  0.001
C  C104  1  0.73930709  0.27053141  0.20642667  1  -0.071344  0.008288  -0.014326  -0.021161  0.005288  3.960543  0.006
C  C105  1  0.69533696  0.20983614  0.34880486  1  -0.089472  0.002394  -0.092421  -0.102306  0.001401  4.013731  0.002
C  C106  1  0.66635388  0.26046295  0.27858574  1  -0.015803  0.000887  -0.087779  -0.101255  0.000477  3.990662  0.001
C  C107  1  0.86287986  0.72561474  0.30384391  1  0.016513  0.001929  -0.08123  -0.089804  0.001009  3.973722  0.002
C  C108  1  0.67641452  0.76742676  0.34511652  1  -0.085383  0.001795  -0.088849  -0.098691  0.000984  3.99005  0.001
C  C109  1  0.75038375  0.23550915  0.68875716  1  0.546046  0.003785  0.06287  0.046388  0.002489  3.904078  0.003
N  N110  1  0.24886747  0.70319244  0.14575996  1  -1.172231  0.068916  -0.272891  -0.170515  0.04338  3.455513  0.06
N  N111  1  0.09847831  0.55016608  0.01810940  1  -1.178549  -0.007123  -0.296944  -0.154467  -0.007172  3.536861  -0.004
N  N112  1  0.25101514  0.85445809  0.29708318  1  -1.175424  0.069056  -0.273047  -0.170057  0.043485  3.455696  0.06
N  N113  1  0.40148682  0.98195948  0.44991478  1  -1.177826  -0.007131  -0.296661  -0.154344  -0.007175  3.536949  -0.004
N  N114  1  0.75108571  0.29680012  0.85422273  1  -1.171845  0.068965  -0.272852  -0.170572  0.043416  3.455758  0.06
N  N115  1  0.90154656  0.44980640  0.98188463  1  -1.177807  -0.007113  -0.296937  -0.154694  -0.00716  3.536766  -0.004
N  N116  1  0.74895970  0.14555110  0.70291347  1  -1.176307  0.069085  -0.273016  -0.169918  0.043497  3.455923  0.06
N  N117  1  0.59850274  0.01809827  0.55009656  1  -1.177943  -0.007149  -0.296655  -0.154182  -0.007198  3.536922  -0.004
O  O118  1  0.25524118  0.46743911  0.92042168  1  -1.105209  0.119619  -0.290502  -0.531848  0.070712  2.431037  0.109
O  O119  1  0.26898684  0.49709297  0.12101766  1  -1.091132  0.036866  -0.291221  -0.534081  0.02242  2.406294  0.034
O  O120  1  0.26408741  0.06317117  0.33232523  1  -1.076038  0.047147  -0.305961  -0.543156  0.0283  2.321136  0.043
O  O121  1  0.43194389  0.44127742  0.87657475  1  -1.05684  0.065494  -0.262421  -0.460472  0.039359  2.347416  0.059
O  O122  1  0.40607039  0.59516863  0.02838759  1  -0.621053  0.235271  -0.39541  -0.556293  0.135273  1.866076  0.201
O  O123  1  0.41041203  0.40635701  0.05931194  1  -1.056967  0.085099  -0.256975  -0.456275  0.050671  2.349106  0.077
O  O124  1  0.11762915  0.15497407  0.37758958  1  -1.117452  0.034976  -0.276039  -0.461373  0.02033  2.20168  0.031
O  O125  1  0.24472836  0.07955567  0.53270431  1  -1.105718  0.119189  -0.290514  -0.531948  0.070444  2.431301  0.108
O  O126  1  0.23097817  0.87898800  0.50304594  1  -1.090491  0.037124  -0.291522  -0.534618  0.022574  2.406285  0.034
O  O127  1  0.23592085  0.66787725  0.93701259  1  -1.077466  0.046782  -0.306242  -0.543844  0.028103  2.321267  0.043
O  O128  1  0.06804458  0.12348775  0.55882183  1  -1.057124  0.065599  -0.262593  -0.460827  0.039413  2.347595  0.06
O  O129  1  0.09395903  0.97167263  0.40489565  1  -0.622135  0.234769  -0.395467  -0.55632  0.134923  1.866439  0.201
O  O130  1  0.08949141  0.94070889  0.59366968  1  -1.057779  0.085002  -0.256635  -0.456165  0.050605  2.349813  0.077
O  O131  1  0.38241663  0.62269484  0.84524059  1  -1.117132  0.035018  -0.276132  -0.462821  0.020356  2.202758  0.031
O  O132  1  0.74479851  0.53252521  0.07959559  1  -1.105209  0.119596  -0.290518  -0.531913  0.070703  2.430971  0.109
O  O133  1  0.73102852  0.50288810  0.87897977  1  -1.090749  0.036755  -0.291089  -0.533941  0.022355  2.406281  0.034
O  O134  1  0.73589015  0.93685825  0.66770367  1  -1.076859  0.047201  -0.305945  -0.543132  0.028335  2.321076  0.043
O  O135  1  0.56809202  0.55872957  0.12342646  1  -1.057288  0.065505  -0.262441  -0.460317  0.03936  2.347086  0.059
O  O136  1  0.59390082  0.40483138  0.97160941  1  -0.621174  0.235341  -0.395461  -0.556242  0.13533  1.8662  0.201
O  O137  1  0.58960298  0.59363263  0.94067728  1  -1.056983  0.08513  -0.256842  -0.456051  0.050689  2.349394  0.077
O  O138  1  0.88240052  0.84511379  0.62248941  1  -1.117248  0.034995  -0.276017  -0.461908  0.020341  2.202171  0.031
O  O139  1  0.75527815  0.92044569  0.46733486  1  -1.105628  0.119092  -0.290678  -0.532115  0.070395  2.431605  0.108
O  O140  1  0.76902208  0.12102926  0.49696392  1  -1.090763  0.037125  -0.291552  -0.534653  0.022576  2.406705  0.034
O  O141  1  0.76410210  0.33209553  0.06294872  1  -1.076901  0.046698  -0.30628  -0.543889  0.028053  2.321717  0.043
O  O142  1  0.93195917  0.87654278  0.44120582  1  -1.057267  0.0657  -0.262309  -0.46041  0.039473  2.346837  0.06
O  O143  1  0.90606298  0.02835715  0.59511073  1  -0.621298  0.234687  -0.395747  -0.556268  0.1349  1.868526  0.201
O  O144  1  0.91051199  0.05930967  0.40635024  1  -1.056994  0.085111  -0.256604  -0.455982  0.050666  2.34957  0.077
O  O145  1  0.61758435  0.37725213  0.15470440  1  -1.117164  0.035036  -0.276181  -0.462771  0.020365  2.202639  0.031
