# generated using pymatgen
data_GdCuH22C18IN5O9
_symmetry_space_group_name_H-M   'P 1'
_cell_length_a   10.87890693
_cell_length_b   12.77866703
_cell_length_c   14.54800105
_cell_angle_alpha   92.31739690
_cell_angle_beta   95.45584754
_cell_angle_gamma   120.79235188
_symmetry_Int_Tables_number   1
_chemical_formula_structural   GdCuH22C18IN5O9
_chemical_formula_sum   'Gd2 Cu2 H44 C36 I2 N10 O18'
_cell_volume   1720.04128489
_cell_formula_units_Z   2
loop_
 _symmetry_equiv_pos_site_id
 _symmetry_equiv_pos_as_xyz
  1  'x, y, z'
loop_
 _atom_site_type_symbol
 _atom_site_label
 _atom_site_symmetry_multiplicity
 _atom_site_fract_x
 _atom_site_fract_y
 _atom_site_fract_z
 _atom_site_occupancy
 _atom_site_hle17_bader_spin_density
 _atom_site_hle17_ddec_charge
 _atom_site_hle17_ddec_spin_density
 _atom_site_hle17_ddec_sum_bond_order
 _atom_site_hle17_magmom
 _atom_site_hse06_10hf_bader_spin_density
 _atom_site_hse06_10hf_ddec_charge
 _atom_site_hse06_10hf_ddec_spin_density
 _atom_site_hse06_10hf_ddec_sum_bond_order
 _atom_site_hse06_10hf_magmom
 _atom_site_hse06_bader_spin_density
 _atom_site_hse06_ddec_charge
 _atom_site_hse06_ddec_spin_density
 _atom_site_hse06_ddec_sum_bond_order
 _atom_site_hse06_magmom
 _atom_site_pbe_bader_spin_density
 _atom_site_pbe_cm5_charge
 _atom_site_pbe_ddec_charge
 _atom_site_pbe_ddec_spin_density
 _atom_site_pbe_ddec_sum_bond_order
 _atom_site_pbe_magmom
Gd  Gd0  1  0.77878589  0.37621799  0.96407029  1  0  2.160922  0  1.837  0  0  2.063913  0  2.212386  0  0  2.124095  0  2.148389  0  0  1.483252  2.016732  0  2.264636  0
Gd  Gd1  1  0.22121255  0.62377043  0.03592721  1  0  2.160663  0  1.837414  0  0  2.063858  0  2.212413  0  0  2.124008  0  2.148511  0  0  1.483237  2.016733  0  2.264584  0
Cu  Cu2  1  0.01112666  0.99668656  0.58759492  1  0  0.304478  0  2.216892  0  0  0.205024  0  2.717179  0  0  0.201465  0  2.672777  0  0  0.367237  0.211934  0  2.74201  0
Cu  Cu3  1  0.98884711  0.00330070  0.41239918  1  0  0.304539  0  2.216983  0  0  0.205073  0  2.717257  0  0  0.201596  0  2.672881  0  0  0.36731  0.21197  0  2.74207  0
H  H4  1  0.23516003  0.79726791  0.77638986  1  0  0.101584  0  0.954029  0  0  0.111516  0  1.016019  0  0  0.114954  0  1.013876  0  0  0.106933  0.108997  0  1.017776  0
H  H5  1  0.76483738  0.20273900  0.22362677  1  0  0.101555  0  0.953979  0  0  0.111486  0  1.015961  0  0  0.114922  0  1.013814  0  0  0.106921  0.108965  0  1.017721  0
H  H6  1  0.30091215  0.35102164  0.83984879  1  0  0.11743  0  0.950103  0  0  0.124623  0  1.01513  0  0  0.128708  0  1.012735  0  0  0.11003  0.121411  0  1.017558  0
H  H7  1  0.69906201  0.64894335  0.16014800  1  0  0.11761  0  0.950072  0  0  0.124675  0  1.015217  0  0  0.12876  0  1.012825  0  0  0.11003  0.121474  0  1.017625  0
H  H8  1  0.77250932  0.61348720  0.75273478  1  0  0.112435  0  0.957227  0  0  0.120318  0  1.021597  0  0  0.1237  0  1.020326  0  0  0.110634  0.117819  0  1.022875  0
H  H9  1  0.22747733  0.38650857  0.24727372  1  0  0.112412  0  0.957352  0  0  0.120313  0  1.021689  0  0  0.123693  0  1.020416  0  0  0.110652  0.117821  0  1.022962  0
H  H10  1  0.84213880  0.21105460  0.79851021  1  0  0.128762  0  0.950707  0  0  0.137784  0  1.011692  0  0  0.141963  0  1.008478  0  0  0.118655  0.134636  0  1.014447  0
H  H11  1  0.15785056  0.78895211  0.20148377  1  0  0.128696  0  0.950757  0  0  0.137794  0  1.011654  0  0  0.141952  0  1.008464  0  0  0.118707  0.134645  0  1.014415  0
H  H12  1  0.26069208  0.20389542  0.70515385  1  0  0.083825  0  0.971957  0  0  0.08698  0  1.044733  0  0  0.090633  0  1.041425  0  0  0.102583  0.084303  0  1.047175  0
H  H13  1  0.73927805  0.79608366  0.29483830  1  0  0.083692  0  0.972033  0  0  0.086872  0  1.044817  0  0  0.090521  0  1.041515  0  0  0.102487  0.084203  0  1.047254  0
H  H14  1  0.22769361  0.93479437  0.65905521  1  0  0.08194  0  0.952277  0  0  0.087467  0  1.01837  0  0  0.091619  0  1.014527  0  0  0.103984  0.084295  0  1.021401  0
H  H15  1  0.77231384  0.06521218  0.34095741  1  0  0.081904  0  0.952487  0  0  0.087584  0  1.018425  0  0  0.091733  0  1.014584  0  0  0.104063  0.084411  0  1.021468  0
H  H16  1  0.81963383  0.06473328  0.66822787  1  0  0.08021  0  0.960511  0  0  0.085489  0  1.027144  0  0  0.089635  0  1.023365  0  0  0.101871  0.082467  0  1.029879  0
H  H17  1  0.18035938  0.93527364  0.33176368  1  0  0.080005  0  0.960441  0  0  0.085304  0  1.027115  0  0  0.089451  0  1.023339  0  0  0.101756  0.082275  0  1.029852  0
H  H18  1  0.67402695  0.34978428  0.18830518  1  0  0.044655  0  0.92022  0  0  0.052651  0  0.989197  0  0  0.055002  0  0.983291  0  0  0.127845  0.05075  0  0.993564  0
H  H19  1  0.32595791  0.65020970  0.81169486  1  0  0.044771  0  0.920526  0  0  0.052726  0  0.989519  0  0  0.055068  0  0.983614  0  0  0.127929  0.050828  0  0.993885  0
H  H20  1  0.78350663  0.76151551  0.63804386  1  0  0.070851  0  0.98061  0  0  0.074261  0  1.054655  0  0  0.078592  0  1.050292  0  0  0.096464  0.071141  0  1.057723  0
H  H21  1  0.21649710  0.23849263  0.36196852  1  0  0.070933  0  0.980562  0  0  0.074254  0  1.054676  0  0  0.078582  0  1.050317  0  0  0.096444  0.071139  0  1.057733  0
H  H22  1  0.60478226  0.09734994  0.07173601  1  0  0.039952  0  0.926621  0  0  0.048583  0  0.99694  0  0  0.050782  0  0.991488  0  0  0.126854  0.046724  0  1.001008  0
H  H23  1  0.39516805  0.90260686  0.92824964  1  0  0.039913  0  0.926838  0  0  0.048552  0  0.997141  0  0  0.050759  0  0.991691  0  0  0.126846  0.04669  0  1.001218  0
H  H24  1  0.61183481  0.43125875  0.29213332  1  0  0.109319  0  0.920198  0  0  0.131441  0  0.976266  0  0  0.13221  0  0.976343  0  0  0.116342  0.130694  0  0.976397  0
H  H25  1  0.38815167  0.56874256  0.70785130  1  0  0.10935  0  0.920298  0  0  0.131443  0  0.976381  0  0  0.132209  0  0.97646  0  0  0.116346  0.130697  0  0.976512  0
H  H26  1  0.42083794  0.34716754  0.29087407  1  0  0.101033  0  0.939214  0  0  0.122673  0  0.999468  0  0  0.123304  0  0.99942  0  0  0.105665  0.122096  0  0.999462  0
H  H27  1  0.57915868  0.65284220  0.70911922  1  0  0.10105  0  0.939267  0  0  0.122643  0  0.999583  0  0  0.123276  0  0.999528  0  0  0.105679  0.122068  0  0.999576  0
H  H28  1  0.50844864  0.49786992  0.25414863  1  0  0.117058  0  0.947977  0  0  0.131732  0  1.017314  0  0  0.133264  0  1.016238  0  0  0.109589  0.130421  0  1.018331  0
H  H29  1  0.49154489  0.50213257  0.74584142  1  0  0.116996  0  0.947911  0  0  0.131754  0  1.017157  0  0  0.133266  0  1.016099  0  0  0.109577  0.130444  0  1.018177  0
H  H30  1  0.59041743  0.94896652  0.14530487  1  0  0.110589  0  0.927053  0  0  0.132039  0  0.985692  0  0  0.132828  0  0.98567  0  0  0.114954  0.131304  0  0.985878  0
H  H31  1  0.40957962  0.05100941  0.85468795  1  0  0.110705  0  0.92684  0  0  0.132163  0  0.985464  0  0  0.132951  0  0.985445  0  0  0.11503  0.131436  0  0.985647  0
H  H32  1  0.75709199  0.95134058  0.16006317  1  0  0.096002  0  0.946571  0  0  0.114123  0  1.01286  0  0  0.114312  0  1.014202  0  0  0.101257  0.113845  0  1.012025  0
H  H33  1  0.24289478  0.04864893  0.83994924  1  0  0.095984  0  0.946368  0  0  0.114089  0  1.012687  0  0  0.114272  0  1.014037  0  0  0.10123  0.113809  0  1.011859  0
H  H34  1  0.60713161  0.83742535  0.07954178  1  0  0.115595  0  0.961113  0  0  0.129058  0  1.033471  0  0  0.13076  0  1.032653  0  0  0.109534  0.127774  0  1.034114  0
H  H35  1  0.39289064  0.16257755  0.92046021  1  0  0.115646  0  0.961016  0  0  0.129091  0  1.033393  0  0  0.130792  0  1.03258  0  0  0.109548  0.127806  0  1.034035  0
H  H36  1  0.39347418  0.32966916  0.02306961  1  0  0.120159  0  0.937832  0  0  0.140916  0  0.996566  0  0  0.14275  0  0.995172  0  0  0.116005  0.139429  0  0.997795  0
H  H37  1  0.60652182  0.67032456  0.97691963  1  0  0.120283  0  0.937849  0  0  0.140991  0  0.996582  0  0  0.142835  0  0.995175  0  0  0.116058  0.1395  0  0.997815  0
H  H38  1  0.38150864  0.43908849  0.09657419  1  0  0.125895  0  0.952931  0  0  0.143233  0  1.018615  0  0  0.144545  0  1.017759  0  0  0.114514  0.142112  0  1.019507  0
H  H39  1  0.61848614  0.56090261  0.90340111  1  0  0.125891  0  0.953068  0  0  0.143206  0  1.018732  0  0  0.144516  0  1.01788  0  0  0.114455  0.142083  0  1.019626  0
H  H40  1  0.27123523  0.28008270  0.10836327  1  0  0.088043  0  0.937731  0  0  0.107096  0  1.004516  0  0  0.107097  0  1.005006  0  0  0.100192  0.106975  0  1.004211  0
H  H41  1  0.72875199  0.71992313  0.89161813  1  0  0.088155  0  0.937699  0  0  0.107183  0  1.004477  0  0  0.107183  0  1.004969  0  0  0.100324  0.107069  0  1.004163  0
H  H42  1  0.85091958  0.07530486  0.93367579  1  0  0.117868  0  0.953811  0  0  0.13419  0  1.019083  0  0  0.135297  0  1.019081  0  0  0.113806  0.133293  0  1.019204  0
H  H43  1  0.14915866  0.92477953  0.06638238  1  0  0.118061  0  0.953308  0  0  0.134356  0  1.018638  0  0  0.135466  0  1.018631  0  0  0.113816  0.133445  0  1.018783  0
H  H44  1  0.75501134  0.91280898  0.93898669  1  0  0.09914  0  0.937421  0  0  0.121322  0  0.997705  0  0  0.121616  0  0.997896  0  0  0.107215  0.121026  0  0.997567  0
H  H45  1  0.24514483  0.08727494  0.06104679  1  0  0.099109  0  0.937408  0  0  0.121267  0  0.99773  0  0  0.121562  0  0.997919  0  0  0.107168  0.120974  0  0.997583  0
H  H46  1  0.90318383  0.01089422  0.02608327  1  0  0.093182  0  0.929789  0  0  0.116415  0  0.987682  0  0  0.11673  0  0.987871  0  0  0.106942  0.116185  0  0.987452  0
H  H47  1  0.09691764  0.98921001  0.97397334  1  0  0.093008  0  0.929838  0  0  0.116264  0  0.987725  0  0  0.116572  0  0.987914  0  0  0.106879  0.116033  0  0.987489  0
C  C48  1  0.00382548  0.69766521  0.77614444  1  0  -0.020486  0  3.723339  0  0  -0.003946  0  3.953433  0  0  -0.005174  0  3.971584  0  0  -0.005809  -0.002974  0  3.941155  0
C  C49  1  0.99617625  0.30233229  0.22385159  1  0  -0.020506  0  3.722986  0  0  -0.003956  0  3.953129  0  0  -0.005193  0  3.971272  0  0  -0.005862  -0.002982  0  3.940855  0
C  C50  1  0.13301743  0.78713240  0.74760561  1  0  -0.123941  0  3.738576  0  0  -0.145197  0  3.985241  0  0  -0.150121  0  4.005642  0  0  -0.083427  -0.142196  0  3.971807  0
C  C51  1  0.86698352  0.21286582  0.25240551  1  0  -0.123898  0  3.738415  0  0  -0.145132  0  3.98509  0  0  -0.150052  0  4.005487  0  0  -0.08341  -0.142132  0  3.97166  0
C  C52  1  0.09358182  0.38378298  0.90650776  1  0  0.704256  0  3.860202  0  0  0.659929  0  4.15127  0  0  0.696605  0  4.137446  0  0  0.227958  0.634642  0  4.159948  0
C  C53  1  0.90640585  0.61619780  0.09348930  1  0  0.704202  0  3.860212  0  0  0.659897  0  4.151228  0  0  0.696571  0  4.137409  0  0  0.227945  0.63461  0  4.159907  0
C  C54  1  0.00261819  0.61982673  0.85109714  1  0  0.715007  0  3.848387  0  0  0.67249  0  4.137441  0  0  0.709317  0  4.122837  0  0  0.233443  0.64718  0  4.146778  0
C  C55  1  0.99737289  0.38015337  0.14889466  1  0  0.715226  0  3.848317  0  0  0.67258  0  4.137578  0  0  0.70943  0  4.122947  0  0  0.233534  0.647275  0  4.146927  0
C  C56  1  0.07382477  0.29212319  0.83046194  1  0  -0.031184  0  3.738201  0  0  -0.01464  0  3.970942  0  0  -0.01701  0  3.990064  0  0  -0.005718  -0.013017  0  3.9581  0
C  C57  1  0.92616667  0.70786582  0.16953159  1  0  -0.031308  0  3.738206  0  0  -0.014707  0  3.970856  0  0  -0.017076  0  3.98997  0  0  -0.00569  -0.01308  0  3.958015  0
C  C58  1  0.19243330  0.28898895  0.80375847  1  0  -0.123289  0  3.71618  0  0  -0.144355  0  3.962662  0  0  -0.149159  0  3.982955  0  0  -0.082316  -0.141252  0  3.949471  0
C  C59  1  0.80755292  0.71099718  0.19622903  1  0  -0.123398  0  3.716502  0  0  -0.144353  0  3.962985  0  0  -0.149155  0  3.983276  0  0  -0.082295  -0.141246  0  3.949793  0
C  C60  1  0.87505353  0.68545905  0.73468853  1  0  -0.121828  0  3.727584  0  0  -0.142762  0  3.971483  0  0  -0.147081  0  3.9908  0  0  -0.081243  -0.140087  0  3.958828  0
C  C61  1  0.12494551  0.31454714  0.26531721  1  0  -0.121806  0  3.727485  0  0  -0.142749  0  3.971369  0  0  -0.147062  0  3.990675  0  0  -0.081276  -0.140072  0  3.958714  0
C  C62  1  0.93695592  0.21034201  0.78133589  1  0  -0.114409  0  3.698365  0  0  -0.135235  0  3.940645  0  0  -0.138963  0  3.959085  0  0  -0.074363  -0.132969  0  3.9288  0
C  C63  1  0.06303381  0.78966031  0.21865384  1  0  -0.114201  0  3.698478  0  0  -0.135114  0  3.940748  0  0  -0.138825  0  3.959198  0  0  -0.074435  -0.132857  0  3.928907  0
C  C64  1  0.17033852  0.20601298  0.72999171  1  0  0.102383  0  3.688607  0  0  0.076136  0  3.937233  0  0  0.081348  0  3.952633  0  0  0.032704  0.072241  0  3.928037  0
C  C65  1  0.82964077  0.79396746  0.26999710  1  0  0.102466  0  3.68904  0  0  0.076127  0  3.93767  0  0  0.081334  0  3.953075  0  0  0.032773  0.072201  0  3.928514  0
C  C66  1  0.12973857  0.86368222  0.68352119  1  0  0.10714  0  3.693566  0  0  0.081715  0  3.939817  0  0  0.08764  0  3.954338  0  0  0.035004  0.077745  0  3.93055  0
C  C67  1  0.87024900  0.13631358  0.31648876  1  0  0.107055  0  3.693948  0  0  0.081488  0  3.940183  0  0  0.087414  0  3.954706  0  0  0.034877  0.077514  0  3.930922  0
C  C68  1  0.92379860  0.12922765  0.70913313  1  0  0.11037  0  3.685558  0  0  0.086228  0  3.928118  0  0  0.091387  0  3.942933  0  0  0.036869  0.08241  0  3.919205  0
C  C69  1  0.07618630  0.87077090  0.29085264  1  0  0.110427  0  3.685673  0  0  0.086202  0  3.928242  0  0  0.09135  0  3.943062  0  0  0.036938  0.08241  0  3.919282  0
C  C70  1  0.58512812  0.33038776  0.13366373  1  0  0.417265  0  3.818868  0  0  0.339449  0  4.116881  0  0  0.368542  0  4.115685  0  0  0.183423  0.319964  0  4.116981  0
C  C71  1  0.41484367  0.66960568  0.86632494  1  0  0.417101  0  3.818417  0  0  0.339326  0  4.116447  0  0  0.368432  0  4.115229  0  0  0.183291  0.31984  0  4.116553  0
C  C72  1  0.88061049  0.76608293  0.67176432  1  0  0.107512  0  3.699969  0  0  0.080806  0  3.946632  0  0  0.086597  0  3.960744  0  0  0.032834  0.076461  0  3.938361  0
C  C73  1  0.11938920  0.23391443  0.32823704  1  0  0.107443  0  3.699823  0  0  0.080815  0  3.94649  0  0  0.086606  0  3.960609  0  0  0.032897  0.076454  0  3.938233  0
C  C74  1  0.67399303  0.09492182  0.02191962  1  0  0.415955  0  3.818628  0  0  0.337394  0  4.122283  0  0  0.365699  0  4.122137  0  0  0.185045  0.318444  0  4.121558  0
C  C75  1  0.32599991  0.90506817  0.97807200  1  0  0.415926  0  3.819449  0  0  0.337295  0  4.123149  0  0  0.365581  0  4.123015  0  0  0.184998  0.318344  0  4.122421  0
C  C76  1  0.50911060  0.41221175  0.25456200  1  0  -0.17765  0  3.648159  0  0  -0.276881  0  3.891834  0  0  -0.274097  0  3.902781  0  0  -0.124887  -0.278346  0  3.884401  0
C  C77  1  0.49087863  0.58779141  0.74543047  1  0  -0.177704  0  3.648318  0  0  -0.276917  0  3.891933  0  0  -0.274111  0  3.902911  0  0  -0.124887  -0.278376  0  3.884478  0
C  C78  1  0.66482012  0.93328654  0.10970910  1  0  -0.18355  0  3.652999  0  0  -0.288163  0  3.909397  0  0  -0.285989  0  3.921295  0  0  -0.132003  -0.28923  0  3.90126  0
C  C79  1  0.33518132  0.06669297  0.89030689  1  0  -0.18374  0  3.652741  0  0  -0.288285  0  3.909055  0  0  -0.286107  0  3.920958  0  0  -0.132042  -0.289362  0  3.900913  0
C  C80  1  0.37767257  0.35157472  0.09278937  1  0  -0.172327  0  3.618248  0  0  -0.274024  0  3.864848  0  0  -0.270273  0  3.873493  0  0  -0.131282  -0.276193  0  3.859235  0
C  C81  1  0.62232349  0.64841901  0.90719782  1  0  -0.172584  0  3.618598  0  0  -0.274172  0  3.865107  0  0  -0.270426  0  3.873747  0  0  -0.131395  -0.276344  0  3.85949  0
C  C82  1  0.81176109  0.00278971  0.98010306  1  0  -0.162402  0  3.643584  0  0  -0.258913  0  3.879213  0  0  -0.255092  0  3.88903  0  0  -0.126787  -0.261199  0  3.87247  0
C  C83  1  0.18835459  0.99728331  0.01993572  1  0  -0.162287  0  3.643315  0  0  -0.258785  0  3.879011  0  0  -0.254957  0  3.88882  0  0  -0.126659  -0.261064  0  3.872264  0
I  I84  1  0.25077198  0.09710518  0.50736918  1  0  -0.510227  0  1.257735  0  0  -0.463955  0  1.592771  0  0  -0.485733  0  1.564457  0  0  -0.276341  -0.447698  0  1.610476  0
I  I85  1  0.74918389  0.90287426  0.49260328  1  0  -0.51027  0  1.257499  0  0  -0.46404  0  1.592548  0  0  -0.485819  0  1.564235  0  0  -0.276402  -0.447775  0  1.61024  0
N  N86  1  0.00600607  0.85655210  0.64787674  1  0  -0.24781  0  3.345582  0  0  -0.177088  0  3.630359  0  0  -0.183754  0  3.636193  0  0  -0.356784  -0.173574  0  3.626311  0
N  N87  1  0.99398656  0.14344757  0.35212688  1  0  -0.247728  0  3.345679  0  0  -0.176996  0  3.630458  0  0  -0.183681  0  3.636342  0  0  -0.356755  -0.173471  0  3.626395  0
N  N88  1  0.03796493  0.12582161  0.68333374  1  0  -0.247182  0  3.351679  0  0  -0.177203  0  3.638923  0  0  -0.18397  0  3.645272  0  0  -0.355949  -0.173613  0  3.634381  0
N  N89  1  0.96201830  0.87417063  0.31665098  1  0  -0.247147  0  3.351617  0  0  -0.177018  0  3.638721  0  0  -0.18378  0  3.645091  0  0  -0.355941  -0.173418  0  3.634165  0
N  N90  1  0.49277085  0.36114255  0.15959177  1  0  -0.077461  0  3.493279  0  0  0.027807  0  3.727396  0  0  0.007921  0  3.752429  0  0  -0.272435  0.041059  0  3.709961  0
N  N91  1  0.50721024  0.63884951  0.84040309  1  0  -0.077314  0  3.492956  0  0  0.02791  0  3.727033  0  0  0.00802  0  3.75207  0  0  -0.272406  0.041163  0  3.709603  0
N  N92  1  0.58914585  0.32572623  0.79327967  1  0  0.719525  0  4.11319  0  0  0.739758  0  4.427993  0  0  0.768372  0  4.432895  0  0  0.080239  0.720423  0  4.423725  0
N  N93  1  0.41083806  0.67426770  0.20672030  1  0  0.719645  0  4.112953  0  0  0.739839  0  4.427822  0  0  0.768448  0  4.432723  0  0  0.080296  0.720503  0  4.423561  0
N  N94  1  0.71491753  0.01403892  0.03654239  1  0  -0.079276  0  3.492557  0  0  0.026501  0  3.725122  0  0  0.006295  0  3.75112  0  0  -0.274854  0.040022  0  3.707072  0
N  N95  1  0.28512043  0.98596456  0.96348013  1  0  -0.079306  0  3.493527  0  0  0.026523  0  3.725979  0  0  0.006327  0  3.751971  0  0  -0.274826  0.04004  0  3.707928  0
O  O96  1  0.88062950  0.54081488  0.87226992  1  0  -0.712273  0  2.074652  0  0  -0.672254  0  2.321334  0  0  -0.698456  0  2.311092  0  0  -0.384553  -0.653583  0  2.328422  0
O  O97  1  0.11936414  0.45915822  0.12772115  1  0  -0.712371  0  2.07472  0  0  -0.672304  0  2.321387  0  0  -0.698521  0  2.311155  0  0  -0.384608  -0.653647  0  2.32848  0
O  O98  1  0.98227457  0.38230166  0.92891419  1  0  -0.773998  0  2.160126  0  0  -0.730932  0  2.420455  0  0  -0.758266  0  2.407596  0  0  -0.410903  -0.710826  0  2.429014  0
O  O99  1  0.01772281  0.61769473  0.07108282  1  0  -0.773899  0  2.160089  0  0  -0.730884  0  2.420384  0  0  -0.758218  0  2.407536  0  0  -0.410879  -0.710783  0  2.428937  0
O  O100  1  0.12506743  0.64168316  0.88915898  1  0  -0.738528  0  2.082213  0  0  -0.695858  0  2.332329  0  0  -0.723174  0  2.321955  0  0  -0.392721  -0.6762  0  2.339179  0
O  O101  1  0.87492768  0.35831930  0.11084494  1  0  -0.738642  0  2.082069  0  0  -0.69592  0  2.332282  0  0  -0.723219  0  2.321841  0  0  -0.392743  -0.676247  0  2.339118  0
O  O102  1  0.22078751  0.46218316  0.94480709  1  0  -0.683512  0  1.992583  0  0  -0.63941  0  2.228957  0  0  -0.664971  0  2.219438  0  0  -0.371977  -0.62131  0  2.235317  0
O  O103  1  0.77920761  0.53780248  0.05518455  1  0  -0.683564  0  1.992607  0  0  -0.639403  0  2.228928  0  0  -0.664969  0  2.219405  0  0  -0.371989  -0.621302  0  2.235294  0
O  O104  1  0.70821414  0.16311352  0.95760074  1  0  -0.614  0  2.110858  0  0  -0.571048  0  2.371435  0  0  -0.595737  0  2.364587  0  0  -0.366464  -0.553283  0  2.375736  0
O  O105  1  0.29181270  0.83689760  0.04240329  1  0  -0.61397  0  2.110752  0  0  -0.571068  0  2.371375  0  0  -0.595744  0  2.364528  0  0  -0.366508  -0.553309  0  2.375678  0
O  O106  1  0.57676083  0.28364624  0.05368390  1  0  -0.628948  0  2.120896  0  0  -0.584886  0  2.384809  0  0  -0.609923  0  2.377843  0  0  -0.370744  -0.566904  0  2.389069  0
O  O107  1  0.42322717  0.71634343  0.94631624  1  0  -0.628935  0  2.120617  0  0  -0.584842  0  2.384371  0  0  -0.609867  0  2.377396  0  0  -0.370745  -0.566874  0  2.388653  0
O  O108  1  0.67818195  0.28794681  0.80052832  1  0  -0.528651  0  1.760248  0  0  -0.524873  0  1.984022  0  0  -0.541389  0  1.974733  0  0  -0.240243  -0.513034  0  1.990637  0
O  O109  1  0.32181072  0.71206094  0.19946802  1  0  -0.52867  0  1.760179  0  0  -0.524825  0  1.983868  0  0  -0.541333  0  1.974581  0  0  -0.240251  -0.512993  0  1.990482  0
O  O110  1  0.56993580  0.36592484  0.87088587  1  0  -0.572161  0  1.778033  0  0  -0.56194  0  2.014175  0  0  -0.580035  0  2.006109  0  0  -0.254832  -0.54862  0  2.019788  0
O  O111  1  0.43004671  0.63406816  0.12911120  1  0  -0.572184  0  1.777911  0  0  -0.562067  0  2.014104  0  0  -0.580185  0  2.006085  0  0  -0.254924  -0.548752  0  2.019717  0
O  O112  1  0.52535554  0.32448115  0.71826199  1  0  -0.375086  0  1.733504  0  0  -0.36746  0  1.930643  0  0  -0.377208  0  1.923838  0  0  -0.143192  -0.360822  0  1.935369  0
O  O113  1  0.47462574  0.67549136  0.28172807  1  0  -0.375149  0  1.733613  0  0  -0.367445  0  1.930715  0  0  -0.37717  0  1.923894  0  0  -0.143159  -0.360808  0  1.935444  0
