# generated using pymatgen
data_CuH4C5BrN
_symmetry_space_group_name_H-M   'P 1'
_cell_length_a   3.89948469
_cell_length_b   15.34946929
_cell_length_c   18.92510006
_cell_angle_alpha   90.00027492
_cell_angle_beta   86.90564532
_cell_angle_gamma   90.00048276
_symmetry_Int_Tables_number   1
_chemical_formula_structural   CuH4C5BrN
_chemical_formula_sum   'Cu8 H32 C40 Br8 N8'
_cell_volume   1131.11067722
_cell_formula_units_Z   8
loop_
 _symmetry_equiv_pos_site_id
 _symmetry_equiv_pos_as_xyz
  1  'x, y, z'
loop_
 _atom_site_type_symbol
 _atom_site_label
 _atom_site_symmetry_multiplicity
 _atom_site_fract_x
 _atom_site_fract_y
 _atom_site_fract_z
 _atom_site_occupancy
 _atom_site_hle17_bader_spin_density
 _atom_site_hle17_ddec_charge
 _atom_site_hle17_ddec_spin_density
 _atom_site_hle17_ddec_sum_bond_order
 _atom_site_hle17_magmom
 _atom_site_hse06_10hf_bader_spin_density
 _atom_site_hse06_10hf_ddec_charge
 _atom_site_hse06_10hf_ddec_spin_density
 _atom_site_hse06_10hf_ddec_sum_bond_order
 _atom_site_hse06_10hf_magmom
 _atom_site_hse06_bader_spin_density
 _atom_site_hse06_ddec_charge
 _atom_site_hse06_ddec_spin_density
 _atom_site_hse06_ddec_sum_bond_order
 _atom_site_hse06_magmom
 _atom_site_pbe_bader_spin_density
 _atom_site_pbe_cm5_charge
 _atom_site_pbe_ddec_charge
 _atom_site_pbe_ddec_spin_density
 _atom_site_pbe_ddec_sum_bond_order
 _atom_site_pbe_magmom
Cu  Cu0  1  0.96646594  0.35124997  0.30260849  1  0  0.339729  0  2.056995  0  0  0.232904  0  2.557554  0  0  0.240366  0  2.502692  0  0  0.374919  0.231229  0  2.592432  0
Cu  Cu1  1  0.53354757  0.85125082  0.19738862  1  0  0.339649  0  2.057111  0  0  0.232831  0  2.557672  0  0  0.240294  0  2.502811  0  0  0.374879  0.23116  0  2.59255  0
Cu  Cu2  1  0.03352992  0.64875019  0.69739120  1  0  0.339638  0  2.057123  0  0  0.232798  0  2.557692  0  0  0.240263  0  2.502828  0  0  0.374902  0.231126  0  2.592559  0
Cu  Cu3  1  0.46646171  0.14874870  0.80260731  1  0  0.339646  0  2.057026  0  0  0.232811  0  2.557563  0  0  0.240274  0  2.502708  0  0  0.374897  0.23114  0  2.592432  0
Cu  Cu4  1  0.68761509  0.26259932  0.40756950  1  0  0.319051  0  1.943211  0  0  0.214009  0  2.457686  0  0  0.244935  0  2.384402  0  0  0.191308  0.193355  0  2.5081  0
Cu  Cu5  1  0.81240322  0.76260739  0.09242937  1  0  0.319106  0  1.943104  0  0  0.214046  0  2.4576  0  0  0.244981  0  2.384316  0  0  0.191315  0.193404  0  2.508013  0
Cu  Cu6  1  0.31238318  0.73739758  0.59243125  1  0  0.319139  0  1.943155  0  0  0.214094  0  2.457623  0  0  0.245002  0  2.384329  0  0  0.191352  0.193447  0  2.508039  0
Cu  Cu7  1  0.18761848  0.23739408  0.90756915  1  0  0.319086  0  1.943189  0  0  0.214036  0  2.457674  0  0  0.244957  0  2.384385  0  0  0.191323  0.193387  0  2.508103  0
H  H8  1  0.10244038  0.43157592  0.44632938  1  0  0.063075  0  0.991021  0  0  0.068978  0  1.065979  0  0  0.071997  0  1.062437  0  0  0.098762  0.066662  0  1.068751  0
H  H9  1  0.39757970  0.93158201  0.05366779  1  0  0.063142  0  0.991002  0  0  0.069007  0  1.065955  0  0  0.072035  0  1.062411  0  0  0.098778  0.066691  0  1.068723  0
H  H10  1  0.89755283  0.56842359  0.55367085  1  0  0.063095  0  0.991033  0  0  0.069014  0  1.065949  0  0  0.072032  0  1.062411  0  0  0.098771  0.066702  0  1.068718  0
H  H11  1  0.60246039  0.06842727  0.94632801  1  0  0.063116  0  0.991141  0  0  0.069038  0  1.06604  0  0  0.072053  0  1.062504  0  0  0.098791  0.066727  0  1.068806  0
H  H12  1  0.36775848  0.57224505  0.48491774  1  0  0.092029  0  0.980792  0  0  0.101799  0  1.047365  0  0  0.104384  0  1.046587  0  0  0.098163  0.099757  0  1.048383  0
H  H13  1  0.13224531  0.07225025  0.01508289  1  0  0.091971  0  0.980769  0  0  0.101788  0  1.04731  0  0  0.104376  0  1.046527  0  0  0.098158  0.099748  0  1.048326  0
H  H14  1  0.63222909  0.42775446  0.51508569  1  0  0.092013  0  0.980769  0  0  0.101842  0  1.047279  0  0  0.104427  0  1.046502  0  0  0.098194  0.099799  0  1.048299  0
H  H15  1  0.86779658  0.92776099  0.98491766  1  0  0.091974  0  0.980715  0  0  0.101798  0  1.047232  0  0  0.104385  0  1.046449  0  0  0.098167  0.099757  0  1.04825  0
H  H16  1  0.59543476  0.67596591  0.39258287  1  0  0.094639  0  0.959349  0  0  0.103028  0  1.024688  0  0  0.106536  0  1.021288  0  0  0.095389  0.10033  0  1.027384  0
H  H17  1  0.90458756  0.17596381  0.10742305  1  0  0.0947  0  0.959325  0  0  0.103115  0  1.024618  0  0  0.106595  0  1.02125  0  0  0.095411  0.100418  0  1.027303  0
H  H18  1  0.40456324  0.32403491  0.60741946  1  0  0.09472  0  0.959273  0  0  0.103095  0  1.024618  0  0  0.106617  0  1.021203  0  0  0.095409  0.100394  0  1.027315  0
H  H19  1  0.09544613  0.82403832  0.89258071  1  0  0.094682  0  0.959318  0  0  0.103075  0  1.024653  0  0  0.106578  0  1.021258  0  0  0.095398  0.100375  0  1.027354  0
H  H20  1  0.54004893  0.63852249  0.26560628  1  0  0.102339  0  1.009368  0  0  0.111191  0  1.073889  0  0  0.114276  0  1.073342  0  0  0.086389  0.108822  0  1.074637  0
H  H21  1  0.95997075  0.13851994  0.23439316  1  0  0.102407  0  1.009414  0  0  0.11124  0  1.073935  0  0  0.114325  0  1.073388  0  0  0.086384  0.108868  0  1.074683  0
H  H22  1  0.45993881  0.36147572  0.73439609  1  0  0.102402  0  1.009247  0  0  0.111192  0  1.073854  0  0  0.114276  0  1.073307  0  0  0.086404  0.108823  0  1.074599  0
H  H23  1  0.04003786  0.86147501  0.76560701  1  0  0.102323  0  1.009431  0  0  0.111181  0  1.07394  0  0  0.114265  0  1.073396  0  0  0.086393  0.108811  0  1.07469  0
H  H24  1  0.46570308  0.60508057  0.16341024  1  0  0.100876  0  0.981672  0  0  0.107305  0  1.052869  0  0  0.111263  0  1.050075  0  0  0.092724  0.10421  0  1.055284  0
H  H25  1  0.03430902  0.10507890  0.33659260  1  0  0.100978  0  0.981614  0  0  0.107409  0  1.052793  0  0  0.111369  0  1.050001  0  0  0.09275  0.104309  0  1.055216  0
H  H26  1  0.53425925  0.39492351  0.83659066  1  0  0.100942  0  0.981684  0  0  0.107392  0  1.052846  0  0  0.111352  0  1.050054  0  0  0.092791  0.104297  0  1.055265  0
H  H27  1  0.96572467  0.89491605  0.66341116  1  0  0.100948  0  0.981697  0  0  0.107434  0  1.052815  0  0  0.111395  0  1.050022  0  0  0.092799  0.104337  0  1.055233  0
H  H28  1  0.37420783  0.55196167  0.04315698  1  0  0.087428  0  0.96856  0  0  0.098032  0  1.032971  0  0  0.10065  0  1.031094  0  0  0.097631  0.096118  0  1.034344  0
H  H29  1  0.12577715  0.05195374  0.45684524  1  0  0.08754  0  0.968504  0  0  0.09812  0  1.032943  0  0  0.100739  0  1.031066  0  0  0.097673  0.096206  0  1.034318  0
H  H30  1  0.62571805  0.44804697  0.95684725  1  0  0.087505  0  0.968544  0  0  0.098149  0  1.032922  0  0  0.100741  0  1.03107  0  0  0.097679  0.096226  0  1.034293  0
H  H31  1  0.87427262  0.94803405  0.54315422  1  0  0.087535  0  0.968512  0  0  0.098056  0  1.033003  0  0  0.100646  0  1.031157  0  0  0.097698  0.096141  0  1.034379  0
H  H32  1  0.08768608  0.40451124  0.02791400  1  0  0.097656  0  0.973125  0  0  0.105223  0  1.041355  0  0  0.108532  0  1.039753  0  0  0.095003  0.10264  0  1.042965  0
H  H33  1  0.41228437  0.90450151  0.47208381  1  0  0.097647  0  0.973031  0  0  0.105172  0  1.041306  0  0  0.108481  0  1.039702  0  0  0.094965  0.102585  0  1.042914  0
H  H34  1  0.91223560  0.59549935  0.97208443  1  0  0.097663  0  0.973138  0  0  0.105171  0  1.041428  0  0  0.10848  0  1.039828  0  0  0.09495  0.102581  0  1.043038  0
H  H35  1  0.58775589  0.09548758  0.52791093  1  0  0.097722  0  0.973101  0  0  0.105266  0  1.041365  0  0  0.10858  0  1.039764  0  0  0.095024  0.102671  0  1.042974  0
H  H36  1  0.89009302  0.32285494  0.13649057  1  0  0.074505  0  0.937721  0  0  0.080548  0  1.007319  0  0  0.083792  0  1.004261  0  0  0.105721  0.078027  0  1.009792  0
H  H37  1  0.60988920  0.82284779  0.36350445  1  0  0.07444  0  0.937793  0  0  0.080488  0  1.007372  0  0  0.083735  0  1.004308  0  0  0.105697  0.077968  0  1.009848  0
H  H38  1  0.10986468  0.67714978  0.86350717  1  0  0.074505  0  0.93778  0  0  0.080527  0  1.007368  0  0  0.083776  0  1.004301  0  0  0.105722  0.078006  0  1.009844  0
H  H39  1  0.39013094  0.17714130  0.63648773  1  0  0.074452  0  0.93781  0  0  0.080557  0  1.007324  0  0  0.083801  0  1.004264  0  0  0.105742  0.078035  0  1.009798  0
C  C40  1  0.19412539  0.48053918  0.40806673  1  0  0.107668  0  3.715862  0  0  0.080955  0  3.962736  0  0  0.086578  0  3.980561  0  0  0.034894  0.077089  0  3.951393  0
C  C41  1  0.30589081  0.98054071  0.09193171  1  0  0.107539  0  3.715661  0  0  0.080878  0  3.962553  0  0  0.08649  0  3.980379  0  0  0.03492  0.076985  0  3.951277  0
C  C42  1  0.80586517  0.51946099  0.59193404  1  0  0.107575  0  3.715866  0  0  0.080844  0  3.962751  0  0  0.086466  0  3.980587  0  0  0.034871  0.076953  0  3.951454  0
C  C43  1  0.69414099  0.01946401  0.90806783  1  0  0.107519  0  3.715769  0  0  0.080809  0  3.962633  0  0  0.086429  0  3.980471  0  0  0.034821  0.076915  0  3.951331  0
C  C44  1  0.34581867  0.55769192  0.42907670  1  0  -0.115882  0  3.742724  0  0  -0.125543  0  3.983142  0  0  -0.13357  0  4.008185  0  0  -0.08825  -0.120479  0  3.966746  0
C  C45  1  0.15419497  0.05769554  0.07092383  1  0  -0.115735  0  3.742808  0  0  -0.125458  0  3.983202  0  0  -0.133485  0  4.008239  0  0  -0.088288  -0.120396  0  3.966793  0
C  C46  1  0.65418182  0.44230629  0.57092615  1  0  -0.115844  0  3.742914  0  0  -0.125532  0  3.98331  0  0  -0.133564  0  4.008361  0  0  -0.08829  -0.120463  0  3.966907  0
C  C47  1  0.84581895  0.94230723  0.92907526  1  0  -0.115802  0  3.742727  0  0  -0.125485  0  3.983118  0  0  -0.133511  0  4.008162  0  0  -0.088246  -0.120412  0  3.966706  0
C  C48  1  0.47033367  0.61585680  0.37736847  1  0  0.006862  0  3.705764  0  0  -0.011529  0  3.952593  0  0  -0.006745  0  3.969624  0  0  -0.071604  -0.014734  0  3.941517  0
C  C49  1  0.02969158  0.11585520  0.12263434  1  0  0.006763  0  3.706059  0  0  -0.011613  0  3.952823  0  0  -0.00681  0  3.969868  0  0  -0.071572  -0.014814  0  3.941744  0
C  C50  1  0.52966168  0.38414532  0.62263440  1  0  0.006766  0  3.705909  0  0  -0.011629  0  3.952721  0  0  -0.006858  0  3.969752  0  0  -0.071614  -0.014832  0  3.94164  0
C  C51  1  0.97032448  0.88414496  0.87736738  1  0  0.006763  0  3.705934  0  0  -0.011651  0  3.952752  0  0  -0.006865  0  3.969792  0  0  -0.071625  -0.014853  0  3.941672  0
C  C52  1  0.43765365  0.59474247  0.30667263  1  0  -0.126382  0  3.687771  0  0  -0.145054  0  3.932398  0  0  -0.151944  0  3.952668  0  0  -0.08684  -0.140871  0  3.919364  0
C  C53  1  0.06237322  0.09474136  0.19333221  1  0  -0.126489  0  3.68809  0  0  -0.145142  0  3.932699  0  0  -0.152037  0  3.952946  0  0  -0.086873  -0.140957  0  3.919662  0
C  C54  1  0.56234676  0.40525834  0.69333074  1  0  -0.126371  0  3.687747  0  0  -0.144944  0  3.932369  0  0  -0.151841  0  3.952634  0  0  -0.086822  -0.140759  0  3.919334  0
C  C55  1  0.93763763  0.90525620  0.80667006  1  0  -0.126323  0  3.6878  0  0  -0.14495  0  3.932397  0  0  -0.151852  0  3.952659  0  0  -0.086787  -0.140772  0  3.919369  0
C  C56  1  0.27617961  0.51703401  0.28887732  1  0  0.176617  0  3.713124  0  0  0.170458  0  3.954897  0  0  0.17876  0  3.971376  0  0  0.112186  0.164799  0  3.944282  0
C  C57  1  0.22383541  0.01702947  0.21112305  1  0  0.176622  0  3.713228  0  0  0.170442  0  3.95504  0  0  0.178771  0  3.971482  0  0  0.11219  0.164785  0  3.944415  0
C  C58  1  0.72380308  0.48296876  0.71112455  1  0  0.176517  0  3.713174  0  0  0.170257  0  3.955006  0  0  0.178589  0  3.971452  0  0  0.112119  0.164596  0  3.944388  0
C  C59  1  0.77618380  0.98297005  0.78887496  1  0  0.176611  0  3.713226  0  0  0.170344  0  3.955071  0  0  0.178682  0  3.971517  0  0  0.112159  0.164687  0  3.944447  0
C  C60  1  0.22995457  0.49143025  0.21462631  1  0  0.171471  0  3.731367  0  0  0.16941  0  3.96835  0  0  0.174926  0  3.987448  0  0  0.112466  0.16551  0  3.956056  0
C  C61  1  0.27004861  0.99142629  0.28537540  1  0  0.171527  0  3.731252  0  0  0.16945  0  3.968286  0  0  0.174959  0  3.987378  0  0  0.112523  0.165549  0  3.955988  0
C  C62  1  0.77003061  0.50857448  0.78537608  1  0  0.171566  0  3.731209  0  0  0.169585  0  3.968093  0  0  0.175082  0  3.987199  0  0  0.112553  0.165683  0  3.955803  0
C  C63  1  0.72997566  0.00856867  0.71462311  1  0  0.171424  0  3.731649  0  0  0.169445  0  3.96854  0  0  0.174936  0  3.987665  0  0  0.112423  0.165548  0  3.956241  0
C  C64  1  0.34065007  0.54248540  0.15647166  1  0  -0.125047  0  3.693207  0  0  -0.142196  0  3.935545  0  0  -0.148825  0  3.957627  0  0  -0.082122  -0.138027  0  3.921237  0
C  C65  1  0.15934996  0.04247886  0.34353099  1  0  -0.125169  0  3.693313  0  0  -0.142296  0  3.935614  0  0  -0.148929  0  3.957701  0  0  -0.082143  -0.138127  0  3.921306  0
C  C66  1  0.65930431  0.45752193  0.84353086  1  0  -0.125197  0  3.693422  0  0  -0.142375  0  3.935714  0  0  -0.149004  0  3.957799  0  0  -0.082223  -0.138206  0  3.921411  0
C  C67  1  0.84068929  0.95751479  0.65647011  1  0  -0.125305  0  3.693607  0  0  -0.142525  0  3.935874  0  0  -0.149154  0  3.95796  0  0  -0.082283  -0.138362  0  3.921575  0
C  C68  1  0.28990913  0.51209517  0.08849357  1  0  -0.019319  0  3.734466  0  0  -0.033248  0  3.976555  0  0  -0.030867  0  3.996327  0  0  -0.075123  -0.034825  0  3.963427  0
C  C69  1  0.21006725  0.01208848  0.41150695  1  0  -0.019454  0  3.734647  0  0  -0.033374  0  3.976708  0  0  -0.030997  0  3.996482  0  0  -0.075151  -0.034952  0  3.963577  0
C  C70  1  0.70999647  0.48791346  0.91150916  1  0  -0.019323  0  3.734536  0  0  -0.033301  0  3.976622  0  0  -0.030897  0  3.996405  0  0  -0.07514  -0.034865  0  3.963484  0
C  C71  1  0.78998286  0.98789996  0.58849040  1  0  -0.01934  0  3.734321  0  0  -0.033178  0  3.976396  0  0  -0.030776  0  3.996181  0  0  -0.075204  -0.034759  0  3.963272  0
C  C72  1  0.12995939  0.43177622  0.07988122  1  0  -0.118788  0  3.739519  0  0  -0.131434  0  3.987496  0  0  -0.138013  0  4.010248  0  0  -0.087825  -0.127312  0  3.972567  0
C  C73  1  0.37000132  0.93176805  0.42011833  1  0  -0.118722  0  3.739447  0  0  -0.13132  0  3.987403  0  0  -0.137901  0  4.010154  0  0  -0.087821  -0.127192  0  3.972469  0
C  C74  1  0.86995648  0.56823241  0.92012146  1  0  -0.118837  0  3.73938  0  0  -0.13143  0  3.987347  0  0  -0.138012  0  4.010092  0  0  -0.087785  -0.1273  0  3.97241  0
C  C75  1  0.63002841  0.06821974  0.57987805  1  0  -0.118817  0  3.739195  0  0  -0.131451  0  3.987139  0  0  -0.138034  0  4.009884  0  0  -0.087838  -0.12731  0  3.972194  0
C  C76  1  0.02283492  0.38520723  0.14031378  1  0  0.138046  0  3.69411  0  0  0.107548  0  3.948354  0  0  0.113457  0  3.965233  0  0  0.044813  0.103612  0  3.937433  0
C  C77  1  0.47714242  0.88519701  0.35968552  1  0  0.138069  0  3.694084  0  0  0.1076  0  3.948328  0  0  0.11351  0  3.965209  0  0  0.044804  0.103664  0  3.937403  0
C  C78  1  0.97711193  0.61480206  0.85968772  1  0  0.137976  0  3.694056  0  0  0.107542  0  3.94824  0  0  0.11345  0  3.965119  0  0  0.04471  0.103605  0  3.937324  0
C  C79  1  0.52288269  0.11479078  0.64030770  1  0  0.138061  0  3.694078  0  0  0.10751  0  3.948351  0  0  0.113422  0  3.965224  0  0  0.044826  0.103574  0  3.937427  0
Br  Br80  1  0.51653347  0.25032409  0.28929036  1  0  -0.393778  0  1.722098  0  0  -0.310198  0  2.1742  0  0  -0.329672  0  2.128079  0  0  -0.195924  -0.29633  0  2.205073  0
Br  Br81  1  0.98347081  0.75032802  0.21071381  1  0  -0.393769  0  1.72204  0  0  -0.310174  0  2.174072  0  0  -0.329649  0  2.127957  0  0  -0.195916  -0.296322  0  2.204981  0
Br  Br82  1  0.48346223  0.74967281  0.71071039  1  0  -0.393768  0  1.722134  0  0  -0.310212  0  2.174266  0  0  -0.329682  0  2.128143  0  0  -0.19596  -0.296343  0  2.205121  0
Br  Br83  1  0.01654003  0.24967344  0.78928846  1  0  -0.393757  0  1.722067  0  0  -0.310181  0  2.174154  0  0  -0.329654  0  2.128038  0  0  -0.195927  -0.296322  0  2.205039  0
Br  Br84  1  0.14758477  0.24995416  0.48153550  1  0  -0.463627  0  1.454116  0  0  -0.378901  0  1.872605  0  0  -0.404377  0  1.826639  0  0  -0.246197  -0.360154  0  1.904975  0
Br  Br85  1  0.35242168  0.74996060  0.01846527  1  0  -0.463636  0  1.454154  0  0  -0.37891  0  1.872645  0  0  -0.40439  0  1.826679  0  0  -0.246196  -0.360164  0  1.905029  0
Br  Br86  1  0.85241349  0.75004470  0.51846524  1  0  -0.463668  0  1.454143  0  0  -0.378927  0  1.872595  0  0  -0.404388  0  1.826607  0  0  -0.246195  -0.360186  0  1.904976  0
Br  Br87  1  0.64758487  0.25004283  0.98153174  1  0  -0.463637  0  1.45415  0  0  -0.378922  0  1.872675  0  0  -0.404387  0  1.826688  0  0  -0.246212  -0.360176  0  1.905055  0
N  N88  1  0.15496026  0.46051740  0.33970470  1  0  -0.305631  0  3.371992  0  0  -0.234039  0  3.660745  0  0  -0.246046  0  3.667685  0  0  -0.358895  -0.226814  0  3.656002  0
N  N89  1  0.34504749  0.96051746  0.16029475  1  0  -0.305539  0  3.372044  0  0  -0.233934  0  3.660763  0  0  -0.245953  0  3.667706  0  0  -0.358903  -0.226708  0  3.656003  0
N  N90  1  0.84502517  0.53948407  0.66029610  1  0  -0.305508  0  3.371831  0  0  -0.233877  0  3.660608  0  0  -0.24588  0  3.667507  0  0  -0.358861  -0.226646  0  3.655854  0
N  N91  1  0.65497173  0.03948336  0.83970325  1  0  -0.305492  0  3.371833  0  0  -0.23389  0  3.660641  0  0  -0.245895  0  3.667542  0  0  -0.358866  -0.226659  0  3.655885  0
N  N92  1  0.07168759  0.41394593  0.20580469  1  0  -0.303553  0  3.301723  0  0  -0.239277  0  3.580685  0  0  -0.250425  0  3.590131  0  0  -0.347583  -0.232634  0  3.574761  0
N  N93  1  0.42831881  0.91394239  0.29419459  1  0  -0.303551  0  3.301643  0  0  -0.239327  0  3.580678  0  0  -0.250477  0  3.590128  0  0  -0.347575  -0.232682  0  3.57475  0
N  N94  1  0.92829270  0.58605880  0.79419613  1  0  -0.303478  0  3.301424  0  0  -0.239252  0  3.580415  0  0  -0.250401  0  3.589875  0  0  -0.347534  -0.232611  0  3.574491  0
N  N95  1  0.57170588  0.08605257  0.70580127  1  0  -0.303434  0  3.301493  0  0  -0.239154  0  3.580417  0  0  -0.2503  0  3.589878  0  0  -0.347493  -0.232512  0  3.574486  0
