# generated using pymatgen
data_AgH9C13(NO)2
_symmetry_space_group_name_H-M   'P 1'
_cell_length_a   3.83685001
_cell_length_b   11.99233093
_cell_length_c   12.73748388
_cell_angle_alpha   75.47319391
_cell_angle_beta   87.59166444
_cell_angle_gamma   85.47252674
_symmetry_Int_Tables_number   1
_chemical_formula_structural   AgH9C13(NO)2
_chemical_formula_sum   'Ag2 H18 C26 N4 O4'
_cell_volume   565.42968644
_cell_formula_units_Z   2
loop_
 _symmetry_equiv_pos_site_id
 _symmetry_equiv_pos_as_xyz
  1  'x, y, z'
loop_
 _atom_site_type_symbol
 _atom_site_label
 _atom_site_symmetry_multiplicity
 _atom_site_fract_x
 _atom_site_fract_y
 _atom_site_fract_z
 _atom_site_occupancy
 _atom_site_hle17_bader_spin_density
 _atom_site_hle17_ddec_charge
 _atom_site_hle17_ddec_spin_density
 _atom_site_hle17_ddec_sum_bond_order
 _atom_site_hle17_magmom
 _atom_site_hse06_10hf_bader_spin_density
 _atom_site_hse06_10hf_ddec_charge
 _atom_site_hse06_10hf_ddec_spin_density
 _atom_site_hse06_10hf_ddec_sum_bond_order
 _atom_site_hse06_10hf_magmom
 _atom_site_hse06_bader_spin_density
 _atom_site_hse06_ddec_charge
 _atom_site_hse06_ddec_spin_density
 _atom_site_hse06_ddec_sum_bond_order
 _atom_site_hse06_magmom
 _atom_site_pbe_bader_spin_density
 _atom_site_pbe_cm5_charge
 _atom_site_pbe_ddec_charge
 _atom_site_pbe_ddec_spin_density
 _atom_site_pbe_ddec_sum_bond_order
 _atom_site_pbe_magmom
Ag  Ag0  1  0.18157015  0.92557467  0.59718065  1  0  0.592938  0  1.421455  0  0  0.46045  0  1.871641  0  0  0.492325  0  1.819243  0  0  0.444702  0.438801  0  1.907833  0
Ag  Ag1  1  0.81838167  0.07441154  0.40282577  1  0  0.592977  0  1.421524  0  0  0.460507  0  1.871687  0  0  0.492377  0  1.819297  0  0  0.444732  0.43887  0  1.907879  0
H  H2  1  0.58986157  0.00037552  0.22333116  1  0  0.096049  0  0.973384  0  0  0.102143  0  1.050036  0  0  0.105885  0  1.046419  0  0  0.099988  0.099409  0  1.052699  0
H  H3  1  0.41014145  0.99963031  0.77666508  1  0  0.096045  0  0.973403  0  0  0.102138  0  1.050042  0  0  0.105888  0  1.046409  0  0  0.100009  0.0994  0  1.052706  0
H  H4  1  0.17938778  0.78544393  0.04559506  1  0  0.093023  0  0.975113  0  0  0.098237  0  1.048879  0  0  0.101468  0  1.046574  0  0  0.100936  0.095923  0  1.050584  0
H  H5  1  0.82066182  0.21457097  0.95441234  1  0  0.092984  0  0.975229  0  0  0.098294  0  1.048851  0  0  0.101523  0  1.04655  0  0  0.100994  0.095951  0  1.050579  0
H  H6  1  0.07711472  0.61218403  0.19754962  1  0  0.072102  0  0.989459  0  0  0.081509  0  1.057153  0  0  0.084034  0  1.056816  0  0  0.091088  0.07975  0  1.057445  0
H  H7  1  0.92294535  0.38782912  0.80245483  1  0  0.072113  0  0.989469  0  0  0.081473  0  1.057213  0  0  0.083947  0  1.056929  0  0  0.091089  0.079713  0  1.057507  0
H  H8  1  0.73374319  0.63553278  0.36338151  1  0  0.106975  0  0.925341  0  0  0.117993  0  0.980638  0  0  0.122083  0  0.977439  0  0  0.110114  0.115017  0  0.983005  0
H  H9  1  0.26627747  0.36446425  0.63662346  1  0  0.106909  0  0.925472  0  0  0.117927  0  0.980759  0  0  0.122018  0  0.977557  0  0  0.110093  0.114952  0  0.983126  0
H  H10  1  0.96084628  0.86882346  0.84361563  1  0  0.072054  0  0.983254  0  0  0.07235  0  1.06467  0  0  0.075325  0  1.06109  0  0  0.10866  0.070129  0  1.067351  0
H  H11  1  0.03913736  0.13117215  0.15638096  1  0  0.072  0  0.983248  0  0  0.072308  0  1.064676  0  0  0.075278  0  1.061086  0  0  0.108656  0.070086  0  1.067356  0
H  H12  1  0.71172006  0.71235596  0.98106307  1  0  0.096818  0  0.985604  0  0  0.109904  0  1.044935  0  0  0.112213  0  1.045392  0  0  0.102845  0.108283  0  1.04473  0
H  H13  1  0.28829809  0.28763517  0.01893229  1  0  0.096766  0  0.985543  0  0  0.109808  0  1.044936  0  0  0.112116  0  1.045397  0  0  0.102813  0.10819  0  1.044723  0
H  H14  1  0.56619044  0.54054029  0.72633495  1  0  0.109474  0  0.935859  0  0  0.125293  0  0.986041  0  0  0.127909  0  0.986096  0  0  0.112651  0.123395  0  0.986209  0
H  H15  1  0.43379887  0.45945438  0.27366567  1  0  0.109562  0  0.935879  0  0  0.125314  0  0.986123  0  0  0.127929  0  0.986181  0  0  0.112688  0.123418  0  0.986289  0
H  H16  1  0.84228261  0.70379698  0.59801611  1  0  0.106025  0  0.943584  0  0  0.114043  0  1.004386  0  0  0.117321  0  1.00074  0  0  0.121907  0.111461  0  1.007318  0
H  H17  1  0.15767709  0.29620220  0.40198171  1  0  0.106078  0  0.943558  0  0  0.113986  0  1.004469  0  0  0.1173  0  1.000781  0  0  0.121876  0.11141  0  1.0074  0
H  H18  1  0.37733339  0.44732838  0.91013694  1  0  0.088129  0  0.962072  0  0  0.100545  0  1.025398  0  0  0.102986  0  1.024684  0  0  0.101785  0.09879  0  1.026003  0
H  H19  1  0.62267638  0.55266877  0.08986271  1  0  0.088145  0  0.96199  0  0  0.100555  0  1.025328  0  0  0.102998  0  1.024612  0  0  0.101758  0.098784  0  1.025952  0
C  C20  1  0.64333281  0.81888514  0.30439316  1  0  -0.039872  0  3.728401  0  0  -0.011834  0  3.951829  0  0  -0.019302  0  3.975645  0  0  -0.011345  -0.007412  0  3.936505  0
C  C21  1  0.35663470  0.18111568  0.69560728  1  0  -0.039604  0  3.728351  0  0  -0.011753  0  3.951978  0  0  -0.019247  0  3.975847  0  0  -0.011433  -0.007334  0  3.936649  0
C  C22  1  0.69579525  0.91480660  0.21826141  1  0  -0.122054  0  3.675614  0  0  -0.153151  0  3.921932  0  0  -0.154507  0  3.943497  0  0  -0.075747  -0.152066  0  3.907483  0
C  C23  1  0.30419326  0.08519409  0.78174021  1  0  -0.122068  0  3.675379  0  0  -0.153085  0  3.921731  0  0  -0.154439  0  3.943289  0  0  -0.075726  -0.152006  0  3.907303  0
C  C24  1  0.88132373  0.90276954  0.12405501  1  0  0.15101  0  3.813646  0  0  0.157957  0  4.062679  0  0  0.155357  0  4.089184  0  0  0.081105  0.15965  0  4.044692  0
C  C25  1  0.11866055  0.09724151  0.87594513  1  0  0.150838  0  3.813577  0  0  0.157736  0  4.062619  0  0  0.155142  0  4.08912  0  0  0.080945  0.159427  0  4.044621  0
C  C26  1  0.02239364  0.79286193  0.11703779  1  0  -0.122377  0  3.729415  0  0  -0.143892  0  3.976039  0  0  -0.144833  0  3.997898  0  0  -0.086146  -0.143044  0  3.961095  0
C  C27  1  0.97763779  0.20715052  0.88296659  1  0  -0.122364  0  3.729411  0  0  -0.143897  0  3.975942  0  0  -0.144835  0  3.997775  0  0  -0.086149  -0.14302  0  3.961004  0
C  C28  1  0.96632457  0.69736973  0.20229558  1  0  -0.085255  0  3.802345  0  0  -0.09568  0  4.057918  0  0  -0.100288  0  4.080804  0  0  -0.09688  -0.092513  0  4.042215  0
C  C29  1  0.03375410  0.30264242  0.79771108  1  0  -0.085085  0  3.802244  0  0  -0.095507  0  4.057797  0  0  -0.100068  0  4.080693  0  0  -0.096888  -0.092341  0  4.042086  0
C  C30  1  0.77613311  0.70951017  0.29539952  1  0  -0.035341  0  3.687546  0  0  -0.062133  0  3.934665  0  0  -0.060706  0  3.953396  0  0  -0.069723  -0.062997  0  3.922031  0
C  C31  1  0.22390515  0.29048938  0.70460138  1  0  -0.035389  0  3.687896  0  0  -0.062113  0  3.93504  0  0  -0.060682  0  3.953756  0  0  -0.069586  -0.062976  0  3.922407  0
C  C32  1  0.45037747  0.83108535  0.40685780  1  0  0.638923  0  3.916748  0  0  0.58764  0  4.204515  0  0  0.621418  0  4.200745  0  0  0.196335  0.564654  0  4.206137  0
C  C33  1  0.54958465  0.16891384  0.59313762  1  0  0.638747  0  3.916666  0  0  0.587541  0  4.204422  0  0  0.621322  0  4.200646  0  0  0.196287  0.564557  0  4.206042  0
C  C34  1  0.87371535  0.79424208  0.82012536  1  0  0.112549  0  3.731605  0  0  0.084346  0  3.984339  0  0  0.090653  0  4.004282  0  0  0.035477  0.080034  0  3.971207  0
C  C35  1  0.12627613  0.20575265  0.17986971  1  0  0.112514  0  3.731469  0  0  0.084291  0  3.984223  0  0  0.090606  0  4.004162  0  0  0.035467  0.079956  0  3.971155  0
C  C36  1  0.73412167  0.70532558  0.89748520  1  0  -0.161787  0  3.706527  0  0  -0.177416  0  3.943403  0  0  -0.186314  0  3.966943  0  0  -0.087409  -0.171573  0  3.927589  0
C  C37  1  0.26585409  0.29466924  0.10250937  1  0  -0.161597  0  3.70646  0  0  -0.17718  0  3.943383  0  0  -0.186079  0  3.966923  0  0  -0.087398  -0.171336  0  3.927551  0
C  C38  1  0.62628401  0.60856519  0.86737879  1  0  0.125741  0  3.822878  0  0  0.141434  0  4.05268  0  0  0.146803  0  4.075481  0  0  0.002334  0.138074  0  4.037049  0
C  C39  1  0.37370595  0.39142517  0.13262200  1  0  0.125693  0  3.823068  0  0  0.141313  0  4.052932  0  0  0.146681  0  4.075747  0  0  0.002335  0.137962  0  4.037287  0
C  C40  1  0.65697775  0.61031709  0.75658034  1  0  -0.156552  0  3.676816  0  0  -0.172969  0  3.920894  0  0  -0.18122  0  3.941582  0  0  -0.079947  -0.167736  0  3.907154  0
C  C41  1  0.34300319  0.38968023  0.24341827  1  0  -0.156546  0  3.676918  0  0  -0.172873  0  3.920952  0  0  -0.181129  0  3.941658  0  0  -0.07994  -0.167637  0  3.90721  0
C  C42  1  0.80549595  0.70183094  0.68367004  1  0  0.133239  0  3.687964  0  0  0.099545  0  3.944953  0  0  0.108745  0  3.959701  0  0  0.048238  0.093355  0  3.935326  0
C  C43  1  0.19448321  0.29816206  0.31633115  1  0  0.133191  0  3.688046  0  0  0.099587  0  3.944996  0  0  0.108762  0  3.959728  0  0  0.048351  0.093394  0  3.935374  0
C  C44  1  0.49259275  0.50978855  0.94542103  1  0  -0.098003  0  3.713769  0  0  -0.118187  0  3.964061  0  0  -0.120431  0  3.98358  0  0  -0.081043  -0.116725  0  3.9508  0
C  C45  1  0.50743698  0.49019899  0.05458198  1  0  -0.097966  0  3.713597  0  0  -0.118122  0  3.963909  0  0  -0.120367  0  3.983431  0  0  -0.080941  -0.116655  0  3.95066  0
N  N46  1  0.92275902  0.00612954  0.04343579  1  0  -0.154763  0  3.018541  0  0  -0.127408  0  3.29958  0  0  -0.126588  0  3.308002  0  0  -0.149073  -0.127859  0  3.293858  0
N  N47  1  0.07726089  0.99387433  0.95657235  1  0  -0.154825  0  3.018372  0  0  -0.127404  0  3.29936  0  0  -0.126591  0  3.307787  0  0  -0.149034  -0.127853  0  3.293644  0
N  N48  1  0.91552650  0.79256413  0.71468211  1  0  -0.319162  0  3.351735  0  0  -0.236558  0  3.64215  0  0  -0.256296  0  3.657631  0  0  -0.346519  -0.223222  0  3.631474  0
N  N49  1  0.08446565  0.20742881  0.28531806  1  0  -0.31919  0  3.351696  0  0  -0.236589  0  3.642076  0  0  -0.25633  0  3.657566  0  0  -0.346584  -0.223258  0  3.631399  0
O  O50  1  0.41773177  0.93483643  0.42241565  1  0  -0.69786  0  2.224799  0  0  -0.598438  0  2.520938  0  0  -0.632904  0  2.504588  0  0  -0.354853  -0.574104  0  2.531187  0
O  O51  1  0.58222416  0.06516799  0.57757713  1  0  -0.697817  0  2.224703  0  0  -0.598414  0  2.520827  0  0  -0.632874  0  2.504469  0  0  -0.354847  -0.574079  0  2.531072  0
O  O52  1  0.33308432  0.74443764  0.47023428  1  0  -0.602057  0  1.898813  0  0  -0.555782  0  2.119582  0  0  -0.581189  0  2.11267  0  0  -0.319538  -0.537524  0  2.123485  0
O  O53  1  0.66688196  0.25556421  0.52975259  1  0  -0.602077  0  1.898775  0  0  -0.555785  0  2.119474  0  0  -0.581191  0  2.112567  0  0  -0.319508  -0.537527  0  2.123379  0
