# generated using pymatgen
data_CuH32C24S2(N2O)4
_symmetry_space_group_name_H-M   'P 1'
_cell_length_a   7.36777339
_cell_length_b   9.34848642
_cell_length_c   10.35954374
_cell_angle_alpha   79.64809928
_cell_angle_beta   89.69355078
_cell_angle_gamma   75.39495715
_symmetry_Int_Tables_number   1
_chemical_formula_structural   CuH32C24S2(N2O)4
_chemical_formula_sum   'Cu1 H32 C24 S2 N8 O4'
_cell_volume   678.64515303
_cell_formula_units_Z   1
loop_
 _symmetry_equiv_pos_site_id
 _symmetry_equiv_pos_as_xyz
  1  'x, y, z'
loop_
 _atom_site_type_symbol
 _atom_site_label
 _atom_site_symmetry_multiplicity
 _atom_site_fract_x
 _atom_site_fract_y
 _atom_site_fract_z
 _atom_site_occupancy
 _atom_site_hle17_ddec_charge
 _atom_site_hle17_ddec_spin_density
 _atom_site_hle17_ddec_sum_bond_order
 _atom_site_hle17_magmom
 _atom_site_hse06_10hf_ddec_charge
 _atom_site_hse06_10hf_ddec_spin_density
 _atom_site_hse06_10hf_ddec_sum_bond_order
 _atom_site_hse06_10hf_magmom
 _atom_site_hse06_ddec_charge
 _atom_site_hse06_ddec_spin_density
 _atom_site_hse06_ddec_sum_bond_order
 _atom_site_hse06_magmom
 _atom_site_pbe_cm5_charge
 _atom_site_pbe_ddec_charge
 _atom_site_pbe_ddec_spin_density
 _atom_site_pbe_ddec_sum_bond_order
 _atom_site_pbe_magmom
Cu  Cu0  1  0.99999891  0.50000161  0.99999963  1  0.906398  0.727447  1.918897  0.541  0.873191  0.791211  2.32011  0.639  0.949564  0.851738  2.258371  0.714  0.821956  0.824889  0.745375  2.364077  0.585
H  H1  1  0.77322400  0.72364895  0.52839678  1  0.269503  0.000391  0.953655  0.0  0.247724  0.000218  1.031521  0.0  0.254182  0.000123  1.02795  0.0  0.285958  0.242482  0.000181  1.035153  0.0
H  H2  1  0.22676559  0.27635161  0.47160358  1  0.269471  0.000391  0.953701  0.0  0.247749  0.000218  1.031495  0.0  0.254205  0.000123  1.027927  0.0  0.285978  0.242507  0.000181  1.035125  0.0
H  H3  1  0.05977681  0.59364230  0.25002270  1  0.112306  0.001543  0.984318  0.002  0.111612  0.001209  1.058563  0.002  0.114646  0.000798  1.054971  0.001  0.12142  0.109428  0.001611  1.060938  0.002
H  H4  1  0.94022882  0.40634575  0.74998439  1  0.112344  0.001542  0.984302  0.002  0.111634  0.001209  1.058555  0.002  0.114666  0.000797  1.054967  0.001  0.121407  0.109451  0.001611  1.060933  0.002
H  H5  1  0.61386079  0.49799770  0.07165738  1  0.0874  0.001268  0.960143  0.002  0.092986  0.001023  1.027506  0.001  0.094002  0.000697  1.027065  0.001  0.11677  0.092031  0.00134  1.028342  0.002
H  H6  1  0.38614891  0.50199487  0.92834127  1  0.087481  0.001269  0.960005  0.002  0.093052  0.001023  1.02738  0.001  0.094071  0.000697  1.026934  0.001  0.116773  0.092094  0.00134  1.028217  0.002
H  H7  1  0.40188781  0.56651392  0.25548625  1  0.124877  0.000859  0.955358  0.001  0.131346  0.00069  1.017188  0.001  0.134087  0.000467  1.016112  0.001  0.11223  0.129497  0.000946  1.017944  0.001
H  H8  1  0.59811508  0.43347874  0.74450855  1  0.12493  0.000857  0.955319  0.001  0.131377  0.00069  1.017162  0.001  0.134116  0.000467  1.016088  0.001  0.112244  0.129531  0.000946  1.017922  0.001
H  H9  1  0.52668965  0.65683623  0.43901226  1  0.116403  0.00042  0.944256  0.001  0.122171  5e-06  1.011697  0.0  0.125764  -6e-05  1.008807  0.0  0.109466  0.119322  4.9e-05  1.014402  0.0
H  H10  1  0.47330471  0.34316211  0.56098167  1  0.116552  0.000419  0.94418  0.001  0.122319  4e-06  1.011613  0.0  0.125911  -6e-05  1.008722  0.0  0.109513  0.11947  4.9e-05  1.014316  0.0
H  H11  1  0.20015501  0.72327332  0.64600420  1  0.098735  -4.1e-05  0.964647  0.0  0.10938  -6.3e-05  1.035886  0.0  0.110721  -6.9e-05  1.03701  0.0  0.091527  0.108071  -6.6e-05  1.035477  0.0
H  H12  1  0.79983796  0.27673393  0.35399703  1  0.098743  -4.3e-05  0.964616  0.0  0.10937  -6.3e-05  1.03588  0.0  0.110727  -6.9e-05  1.036957  0.0  0.091522  0.108054  -6.6e-05  1.03549  0.0
H  H13  1  0.95303749  0.79268860  0.65714530  1  0.091289  -0.000133  0.969607  0.0  0.104924  -7.6e-05  1.034022  0.0  0.106052  -7.7e-05  1.034704  0.0  0.090899  0.104061  -7e-05  1.033734  0.0
H  H14  1  0.04695956  0.20731861  0.34285786  1  0.091302  -0.000137  0.969649  0.0  0.104915  -7.6e-05  1.034069  0.0  0.106038  -7.7e-05  1.034756  0.0  0.090909  0.104053  -7e-05  1.033777  0.0
H  H15  1  0.12243521  0.99660935  0.62118569  1  0.059979  -3.6e-05  0.940299  0.0  0.077835  -2.5e-05  1.003451  0.0  0.078688  -2.4e-05  1.003872  0.0  0.083134  0.077076  -2.7e-05  1.003414  0.0
H  H16  1  0.87756389  0.00339562  0.37881395  1  0.059916  -3.3e-05  0.940271  0.0  0.077772  -2.4e-05  1.003433  0.0  0.078624  -2.4e-05  1.003854  0.0  0.0831  0.077013  -2.7e-05  1.003395  0.0
H  H17  1  0.20931013  0.94253620  0.47359460  1  0.069849  -1.2e-05  0.932007  0.0  0.088222  -1.6e-05  0.992755  0.0  0.089524  -2.1e-05  0.992833  0.0  0.085933  0.08678  -8e-06  0.993658  0.0
H  H18  1  0.79068488  0.05746882  0.52640312  1  0.06981  -1e-05  0.932031  0.0  0.08817  -1.5e-05  0.992788  0.0  0.08947  -2.1e-05  0.992869  0.0  0.085917  0.086732  -8e-06  0.993693  0.0
H  H19  1  0.74154924  0.18876859  0.13096816  1  0.022492  -9.1e-05  0.958938  0.0  0.028976  -6.1e-05  1.037853  0.0  0.030867  -5.9e-05  1.033293  0.0  0.106077  0.027569  -4.7e-05  1.040977  0.0
H  H20  1  0.25845085  0.81124204  0.86902384  1  0.02244  -9.3e-05  0.958791  0.0  0.028927  -6.1e-05  1.03775  0.0  0.030814  -5.9e-05  1.033175  0.0  0.106057  0.027516  -4.7e-05  1.04089  0.0
H  H21  1  0.67118321  0.02493784  0.80344607  1  0.086434  -1.3e-05  0.970652  0.0  0.103653  -4.9e-05  1.042728  0.0  0.103915  -4.9e-05  1.043552  0.0  0.092231  0.10304  -3.6e-05  1.042916  0.0
H  H22  1  0.32882717  0.97505247  0.19655389  1  0.086427  -1.1e-05  0.970649  0.0  0.103648  -4.9e-05  1.042721  0.0  0.103909  -4.9e-05  1.043547  0.0  0.092204  0.103035  -3.6e-05  1.04291  0.0
H  H23  1  0.91764129  0.97143105  0.83510446  1  0.088683  5e-06  0.945516  0.0  0.112672  3e-06  1.005854  0.0  0.111962  0.0  1.007073  0.0  0.098552  0.113179  4e-06  1.004953  0.0
H  H24  1  0.08236763  0.02858170  0.16489298  1  0.088732  9e-06  0.945559  0.0  0.112718  3e-06  1.005908  0.0  0.112009  0.0  1.007124  0.0  0.098565  0.113223  4e-06  1.005005  0.0
H  H25  1  0.79880991  0.16653156  0.78724811  1  0.118332  3.6e-05  0.975147  0.0  0.133803  2.5e-05  1.041555  0.0  0.136136  2.7e-05  1.040054  0.0  0.107343  0.132055  2.2e-05  1.042696  0.0
H  H26  1  0.20118102  0.83347352  0.21274768  1  0.11839  3.6e-05  0.975161  0.0  0.133834  2.5e-05  1.041588  0.0  0.136168  2.7e-05  1.040086  0.0  0.107338  0.132083  2.2e-05  1.042721  0.0
H  H27  1  0.62391297  0.89696996  0.03217389  1  0.10215  -5.4e-05  0.944017  0.0  0.122595  -3.5e-05  1.005113  0.0  0.123147  -3.6e-05  1.006132  0.0  0.102209  0.122142  -3.9e-05  1.004374  0.0
H  H28  1  0.37608339  0.10303954  0.96782215  1  0.102077  -5.2e-05  0.944058  0.0  0.122562  -3.5e-05  1.005127  0.0  0.123114  -3.6e-05  1.006145  0.0  0.102208  0.122111  -3.9e-05  1.004391  0.0
H  H29  1  0.69756255  0.96835841  0.16636624  1  0.089566  -3.6e-05  0.96806  0.0  0.104521  -6.1e-05  1.04391  0.0  0.105701  -5.6e-05  1.043387  0.0  0.097047  0.103568  -3.2e-05  1.044425  0.0
H  H30  1  0.30242972  0.03165114  0.83362788  1  0.089547  -3.3e-05  0.968029  0.0  0.104497  -6.1e-05  1.043902  0.0  0.105676  -5.6e-05  1.043383  0.0  0.097025  0.103545  -3.2e-05  1.044422  0.0
H  H31  1  0.86540374  0.84824076  0.08076704  1  0.102742  -0.000129  0.963542  0.0  0.119945  -9e-05  1.030981  0.0  0.120119  -8.8e-05  1.0324  0.0  0.100268  0.11956  -9.2e-05  1.030417  0.0
H  H32  1  0.13458856  0.15176425  0.91923552  1  0.102738  -0.000125  0.963606  0.0  0.119966  -8.9e-05  1.031012  0.0  0.120138  -8.9e-05  1.032436  0.0  0.100281  0.119584  -9.2e-05  1.03045  0.0
C  C33  1  0.30194371  0.28571438  0.20204065  1  0.297892  -0.014137  4.022292  -0.004  0.292474  -0.001506  4.322599  0.005  0.317597  -0.003853  4.333832  0.003  0.15106  0.275116  -0.000177  4.314142  0.007
C  C34  1  0.69805679  0.71428156  0.79796618  1  0.297971  -0.014134  4.022192  -0.004  0.292548  -0.001508  4.322497  0.005  0.317668  -0.003853  4.333731  0.003  0.151184  0.27519  -0.000179  4.31405  0.006
C  C35  1  0.80423095  0.63414349  0.35952572  1  0.217671  0.011129  3.775628  0.013  0.216538  0.004294  4.015859  0.005  0.220493  0.003821  4.037519  0.005  0.105607  0.213163  0.004755  4.0017  0.006
C  C36  1  0.19577024  0.36585022  0.64047856  1  0.217815  0.011136  3.77536  0.013  0.216696  0.004295  4.015544  0.005  0.220649  0.003823  4.037203  0.005  0.105609  0.213325  0.004755  4.001401  0.006
C  C37  1  0.91414482  0.58964433  0.25538740  1  0.014646  -0.013537  3.641286  -0.01  -0.021448  -0.00289  3.904907  -0.002  -0.015474  -0.004884  3.922616  -0.004  0.035398  -0.025152  -0.001343  3.893031  -0.001
C  C38  1  0.08585537  0.41034379  0.74461776  1  0.014682  -0.013541  3.64126  -0.01  -0.021351  -0.00289  3.904789  -0.002  -0.015375  -0.004886  3.922492  -0.004  0.035505  -0.025058  -0.001343  3.892933  -0.001
C  C39  1  0.66173545  0.53597092  0.15553401  1  0.099875  -0.013335  3.701266  -0.009  0.069203  -0.002969  3.960686  -0.002  0.075639  -0.005131  3.982784  -0.003  0.038715  0.065099  -0.001364  3.946415  0.0
C  C40  1  0.33827323  0.46402053  0.84446578  1  0.099846  -0.013344  3.701137  -0.009  0.069213  -0.002969  3.960507  -0.002  0.075649  -0.005132  3.982601  -0.003  0.038729  0.065134  -0.001364  3.946214  0.0
C  C41  1  0.54647303  0.57409652  0.25750244  1  -0.094899  0.01219  3.74013  0.013  -0.109661  0.004448  3.994851  0.005  -0.114979  0.003961  4.016466  0.005  -0.081931  -0.106162  0.005075  3.980417  0.006
C  C42  1  0.45352884  0.42589501  0.74249447  1  -0.095012  0.012196  3.740362  0.013  -0.109754  0.004449  3.995056  0.005  -0.115075  0.003962  4.016675  0.005  -0.081923  -0.106259  0.005075  3.980639  0.006
C  C43  1  0.61696414  0.62462791  0.35978742  1  -0.092909  -0.01688  3.653467  -0.011  -0.114911  -0.005598  3.898423  -0.003  -0.11413  -0.006343  3.914983  -0.004  -0.065606  -0.115716  -0.005109  3.888256  -0.003
C  C44  1  0.38303977  0.37536586  0.64020719  1  -0.093027  -0.016878  3.653428  -0.011  -0.115046  -0.005599  3.898374  -0.003  -0.11426  -0.006345  3.914926  -0.004  -0.065597  -0.115847  -0.005109  3.88822  -0.003
C  C45  1  0.04644091  0.71019374  0.47888021  1  0.593463  0.000515  3.769956  0.0  0.553633  0.000122  4.057954  0.0  0.581177  0.000159  4.05895  0.0  0.24299  0.535466  0.000115  4.056256  0.0
C  C46  1  0.95355925  0.28980330  0.52113032  1  0.593555  0.000522  3.77011  0.0  0.55364  0.000122  4.058229  0.0  0.581178  0.000158  4.059229  0.0  0.243139  0.535479  0.000115  4.056529  0.0
C  C47  1  0.06996319  0.78894727  0.59065185  1  -0.267124  -0.000188  3.685646  0.0  -0.307677  -0.000111  3.934349  0.0  -0.312155  -0.000133  3.94352  0.0  -0.170246  -0.304547  -8.9e-05  3.928066  0.0
C  C48  1  0.93003524  0.21105545  0.40935008  1  -0.267259  -0.000178  3.685575  0.0  -0.307775  -0.000111  3.934299  0.0  -0.312239  -0.000133  3.943466  0.0  -0.170322  -0.304647  -9e-05  3.928005  0.0
C  C49  1  0.08852397  0.94872571  0.53745329  1  -0.085835  3e-05  3.672582  0.0  -0.123082  -3e-06  3.929593  0.0  -0.123876  -1e-05  3.943226  0.0  -0.1674  -0.122496  -1.1e-05  3.92088  0.0
C  C50  1  0.91147344  0.05127591  0.46254688  1  -0.085618  1.9e-05  3.672445  0.0  -0.122845  -4e-06  3.929422  0.0  -0.123643  -1e-05  3.943056  0.0  -0.167325  -0.122279  -1.1e-05  3.920716  0.0
C  C51  1  0.77102971  0.19541561  0.02524542  1  0.37905  -0.000318  3.852753  0.0  0.311413  -0.000178  4.142057  0.0  0.339696  -0.000143  4.14098  0.0  0.162148  0.292342  -0.000235  4.142134  0.0
C  C52  1  0.22897180  0.80458152  0.97475255  1  0.379432  -0.000305  3.853145  0.0  0.311766  -0.000178  4.142434  0.0  0.340063  -0.000142  4.14135  0.0  0.162293  0.292693  -0.000235  4.142515  0.0
C  C53  1  0.78855719  0.05843686  0.84370039  1  -0.169199  2.2e-05  3.642644  0.0  -0.26677  -2.2e-05  3.882457  0.0  -0.263116  -1.2e-05  3.892469  0.0  -0.141926  -0.269118  -1.3e-05  3.87572  0.0
C  C54  1  0.21144499  0.94156250  0.15629722  1  -0.169387  1.1e-05  3.642914  0.0  -0.26696  -2.3e-05  3.882757  0.0  -0.263305  -1.2e-05  3.89277  0.0  -0.142003  -0.269306  -1.4e-05  3.876008  0.0
C  C55  1  0.73546773  0.93895252  0.07014028  1  -0.18243  -0.000182  3.661485  0.0  -0.283368  -0.000179  3.911943  0.0  -0.280409  -0.000168  3.922986  0.0  -0.14209  -0.284989  -0.000148  3.904185  0.0
C  C56  1  0.26453238  0.06105356  0.92985918  1  -0.182355  -0.000203  3.661421  0.0  -0.283344  -0.00018  3.911871  0.0  -0.280387  -0.000167  3.922915  0.0  -0.142084  -0.284965  -0.000148  3.904125  0.0
S  S57  1  0.45132792  0.18783315  0.31951842  1  -0.356709  0.003577  2.034661  0.007  -0.339954  -0.003159  2.328978  0.0  -0.353179  -0.00439  2.321086  -0.001  -0.139002  -0.329056  -0.000264  2.334969  0.002
S  S58  1  0.54865826  0.81216966  0.68048449  1  -0.356799  0.003586  2.034501  0.007  -0.340034  -0.003158  2.328812  0.0  -0.353258  -0.004387  2.320916  -0.001  -0.13902  -0.329134  -0.000262  2.334807  0.002
N  N59  1  0.19087249  0.35393786  0.11653851  1  -0.535385  0.063276  3.048565  0.079  -0.51169  0.044218  3.361981  0.058  -0.539851  0.038036  3.365167  0.052  -0.42061  -0.493639  0.047581  3.361113  0.059
N  N60  1  0.80912423  0.64606601  0.88346131  1  -0.53538  0.063259  3.048602  0.079  -0.511696  0.044212  3.362044  0.058  -0.539851  0.038029  3.365227  0.052  -0.420714  -0.493647  0.047573  3.361184  0.059
N  N61  1  0.84102272  0.54401100  0.15639057  1  -0.273007  0.099527  3.37975  0.129  -0.225798  0.065792  3.671803  0.092  -0.257382  0.052572  3.69974  0.078  -0.339304  -0.205797  0.074421  3.654073  0.099
N  N62  1  0.15898529  0.45597821  0.84361054  1  -0.27312  0.099533  3.379817  0.129  -0.225976  0.065795  3.671905  0.092  -0.257561  0.052573  3.69984  0.078  -0.339412  -0.205977  0.074419  3.654189  0.099
N  N63  1  0.87090137  0.68937450  0.46140976  1  -0.443249  0.000764  3.362232  0.001  -0.385834  0.000515  3.594561  0.001  -0.4083  0.000409  3.606743  0.0  -0.395898  -0.369882  0.000814  3.58708  0.001
N  N64  1  0.12909574  0.31061925  0.53859357  1  -0.443433  0.000763  3.362494  0.001  -0.38603  0.000518  3.5948  0.001  -0.408495  0.000408  3.606984  0.0  -0.396021  -0.370078  0.000815  3.587324  0.001
N  N65  1  0.75946701  0.07108544  0.98050868  1  -0.101693  0.000222  3.508195  0.0  0.005027  -5.5e-05  3.735193  0.0  -0.015215  -8.5e-05  3.760296  0.0  -0.289814  0.018978  2.5e-05  3.71742  0.0
N  N66  1  0.24053515  0.92891843  0.01948631  1  -0.101824  0.000224  3.50829  0.0  0.00493  -5.5e-05  3.735283  0.0  -0.01531  -8.6e-05  3.76038  0.0  -0.289821  0.018882  2.5e-05  3.717503  0.0
O  O67  1  0.17729876  0.67208425  0.40633141  1  -0.550257  0.000577  1.944538  0.001  -0.498741  0.000238  2.162176  0.0  -0.520235  0.000191  2.158274  0.0  -0.285192  -0.483056  0.00052  2.163985  0.001
O  O68  1  0.82270107  0.32790945  0.59367578  1  -0.550235  0.000571  1.94466  0.001  -0.498708  0.000235  2.162353  0.0  -0.520206  0.000192  2.158459  0.0  -0.285248  -0.483025  0.00052  2.164164  0.001
O  O69  1  0.80758819  0.30837066  0.95777694  1  -0.543801  -0.000949  2.05206  0.0  -0.508274  -0.001257  2.315424  0.0  -0.530551  -0.001435  2.307273  0.0  -0.30893  -0.492818  -0.000968  2.320921  0.0
O  O70  1  0.19242688  0.69163540  0.04221090  1  -0.543988  -0.000956  2.052739  0.0  -0.508421  -0.001257  2.316055  0.0  -0.530727  -0.001434  2.307958  0.0  -0.308995  -0.49297  -0.000969  2.321555  0.0
