# generated using pymatgen
data_AgH17C8S(NO2)2
_symmetry_space_group_name_H-M   'P 1'
_cell_length_a   10.02059573
_cell_length_b   10.86327855
_cell_length_c   12.87500000
_cell_angle_alpha   90.94500076
_cell_angle_beta   90.00000000
_cell_angle_gamma   90.00000000
_symmetry_Int_Tables_number   1
_chemical_formula_structural   AgH17C8S(NO2)2
_chemical_formula_sum   'Ag4 H68 C32 S4 N8 O16'
_cell_volume   1401.33710450
_cell_formula_units_Z   4
loop_
 _symmetry_equiv_pos_site_id
 _symmetry_equiv_pos_as_xyz
  1  'x, y, z'
loop_
 _atom_site_type_symbol
 _atom_site_label
 _atom_site_symmetry_multiplicity
 _atom_site_fract_x
 _atom_site_fract_y
 _atom_site_fract_z
 _atom_site_occupancy
 _atom_site_pbe_bader_charge
 _atom_site_pbe_bader_spin_density
 _atom_site_pbe_cm5_charge
 _atom_site_pbe_ddec_charge
 _atom_site_pbe_ddec_spin_density
 _atom_site_pbe_ddec_sum_bond_order
 _atom_site_pbe_magmom
Ag  Ag0  1  0.84207768  0.61451503  0.70483021  1  0.514087  0  0.45615  0.333473  0  1.63071  0
Ag  Ag1  1  0.34207946  0.88548667  0.79516717  1  0.514102  0  0.45615  0.333497  0  1.630689  0
Ag  Ag2  1  0.15792175  0.38548580  0.29516778  1  0.514111  0  0.456143  0.333442  0  1.630769  0
Ag  Ag3  1  0.65791997  0.11451232  0.20483235  1  0.514095  0  0.456152  0.33345  0  1.630715  0
H  H4  1  0.73442639  0.83795588  0.22163585  1  0.644253  0  0.297064  0.355759  0  0.963711  0
H  H5  1  0.23441920  0.66203662  0.27837617  1  0.644461  0  0.297105  0.355876  0  0.96362  0
H  H6  1  0.26557802  0.16204219  0.77837143  1  0.644327  0  0.297064  0.355825  0  0.963584  0
H  H7  1  0.76557923  0.33796973  0.72162734  1  0.644399  0  0.297084  0.35584  0  0.963665  0
H  H8  1  0.90699498  0.31704411  0.42920488  1  0.099041  0  0.114163  0.111751  0  0.982278  0
H  H9  1  0.40699177  0.18295308  0.07079135  1  0.098967  0  0.114146  0.111755  0  0.982218  0
H  H10  1  0.09301044  0.68295488  0.57079153  1  0.099226  0  0.11413  0.111733  0  0.982238  0
H  H11  1  0.59300267  0.81704682  0.92920974  1  0.09889  0  0.114162  0.111763  0  0.982223  0
H  H12  1  0.76561516  0.29669205  0.34578459  1  0.034344  0  0.092546  0.058006  0  1.032886  0
H  H13  1  0.26561495  0.20330790  0.15421402  1  0.034346  0  0.09253  0.057944  0  1.032898  0
H  H14  1  0.23438427  0.70330786  0.65421495  1  0.034347  0  0.092528  0.057958  0  1.032885  0
H  H15  1  0.73438448  0.79669569  0.84579256  1  0.034377  0  0.092532  0.057912  0  1.032897  0
H  H16  1  0.79230120  0.33666056  0.15509805  1  0.086755  0  0.098136  0.078785  0  1.025347  0
H  H17  1  0.29230298  0.16334032  0.34490211  1  0.086747  0  0.098132  0.078801  0  1.025377  0
H  H18  1  0.20769923  0.66334211  0.84489919  1  0.086759  0  0.098122  0.078768  0  1.025403  0
H  H19  1  0.70769944  0.83665591  0.65510125  1  0.086778  0  0.098181  0.078858  0  1.025339  0
H  H20  1  0.95013612  0.38946027  0.11126891  1  0.040654  0  0.111855  0.099222  0  0.956889  0
H  H21  1  0.45013891  0.11053876  0.38872812  1  0.040698  0  0.111835  0.099207  0  0.956903  0
H  H22  1  0.04986430  0.61053871  0.88872905  1  0.040679  0  0.111842  0.099202  0  0.956914  0
H  H23  1  0.54986551  0.88946023  0.61127217  1  0.040687  0  0.111841  0.099207  0  0.956968  0
H  H24  1  0.05486201  0.19153361  0.15786998  1  0.007881  0  0.088845  0.049035  0  1.043929  0
H  H25  1  0.55486521  0.30846450  0.34212705  1  0.007928  0  0.088854  0.048999  0  1.043924  0
H  H26  1  0.94513542  0.80846537  0.84212644  1  0.007945  0  0.08885  0.049019  0  1.043901  0
H  H27  1  0.44513521  0.69153449  0.65787092  1  0.00795  0  0.088863  0.049028  0  1.043894  0
H  H28  1  0.91762309  0.16901341  0.07048785  1  0.152654  0  0.113941  0.118163  0  1.024179  0
H  H29  1  0.41762687  0.33098655  0.42950842  1  0.152762  0  0.113962  0.118184  0  1.024146  0
H  H30  1  0.08237335  0.83098742  0.92951014  1  0.152717  0  0.113972  0.118202  0  1.024142  0
H  H31  1  0.58237555  0.66901336  0.57049189  1  0.15274  0  0.113976  0.118203  0  1.024144  0
H  H32  1  0.87097017  0.09866320  0.38806422  1  0.06482  0  0.117285  0.109817  0  0.947306  0
H  H33  1  0.37097196  0.40133584  0.11193203  1  0.064796  0  0.117288  0.109819  0  0.947389  0
H  H34  1  0.12903325  0.90133579  0.61193297  1  0.064764  0  0.117281  0.109802  0  0.947402  0
H  H35  1  0.62902248  0.59866315  0.88806904  1  0.064731  0  0.117286  0.109825  0  0.947408  0
H  H36  1  0.02802628  0.15095747  0.34248358  1  0.067702  0  0.10068  0.086164  0  1.005868  0
H  H37  1  0.52802649  0.34903696  0.15751106  1  0.0678  0  0.100686  0.086181  0  1.005851  0
H  H38  1  0.97197614  0.84904152  0.65751050  1  0.067832  0  0.100719  0.086212  0  1.005847  0
H  H39  1  0.47197194  0.65096755  0.84248699  1  0.067791  0  0.100745  0.086289  0  1.005897  0
H  H40  1  0.91187792  0.55679348  0.22268407  1  0.084797  0  0.112324  0.09626  0  0.956775  0
H  H41  1  0.41187671  0.94320822  0.27731798  1  0.084848  0  0.112341  0.096311  0  0.956785  0
H  H42  1  0.08812450  0.44320643  0.77731236  1  0.084857  0  0.112335  0.096263  0  0.956825  0
H  H43  1  0.58812671  0.05679261  0.72268390  1  0.084837  0  0.112349  0.096296  0  0.956759  0
H  H44  1  0.76621792  0.49254079  0.27912121  1  0.06031  0  0.100853  0.073941  0  1.000672  0
H  H45  1  0.26621471  0.00745917  0.22088205  1  0.060294  0  0.100847  0.073971  0  1.000674  0
H  H46  1  0.23378450  0.50745912  0.72087599  1  0.060262  0  0.100843  0.073913  0  1.00069  0
H  H47  1  0.73378671  0.99253982  0.77912135  1  0.060273  0  0.100854  0.073947  0  1.000653  0
H  H48  1  0.89714526  0.49936562  0.45517657  1  0.073311  0  0.106778  0.130809  0  1.012981  0
H  H49  1  0.39713906  0.00062789  0.04482194  1  0.073366  0  0.106793  0.130817  0  1.013  0
H  H50  1  0.10286115  0.50063060  0.54481980  1  0.07327  0  0.106786  0.130809  0  1.012956  0
H  H51  1  0.60286236  0.99937386  0.95517917  1  0.073371  0  0.106792  0.130823  0  1.012979  0
H  H52  1  0.01262899  0.59825990  0.39063120  1  0.124062  0  0.103333  0.140689  0  1.02843  0
H  H53  1  0.51262022  0.90172983  0.10936913  1  0.124049  0  0.103346  0.140694  0  1.028483  0
H  H54  1  0.98737643  0.40173816  0.60936365  1  0.124057  0  0.103331  0.14065  0  1.028489  0
H  H55  1  0.48737821  0.09826639  0.89063113  1  0.124065  0  0.103342  0.140699  0  1.028475  0
H  H56  1  0.04121811  0.99043151  0.18810483  1  0.068924  0  0.099779  0.091608  0  1.021703  0
H  H57  1  0.54122032  0.50957019  0.31189333  1  0.068857  0  0.099781  0.091603  0  1.021688  0
H  H58  1  0.95878132  0.00957024  0.81189395  1  0.068875  0  0.099795  0.091645  0  1.021675  0
H  H59  1  0.45877612  0.49043340  0.68810703  1  0.06885  0  0.099806  0.091603  0  1.021702  0
H  H60  1  0.92505079  0.93850550  0.28249991  1  0.097745  0  0.110036  0.10943  0  1.007357  0
H  H61  1  0.42504958  0.56149804  0.21750138  1  0.097735  0  0.110054  0.109432  0  1.007339  0
H  H62  1  0.07495063  0.06149809  0.71750200  1  0.097738  0  0.110054  0.109454  0  1.007334  0
H  H63  1  0.57494386  0.43850371  0.78250051  1  0.09773  0  0.110035  0.109383  0  1.007384  0
H  H64  1  0.91716603  0.82904299  0.10998250  1  0.057394  0  0.099205  0.076262  0  0.974259  0
H  H65  1  0.41716582  0.67095227  0.39002412  1  0.057403  0  0.099159  0.076178  0  0.974373  0
H  H66  1  0.08283440  0.17095415  0.89002166  1  0.057425  0  0.099183  0.076227  0  0.974317  0
H  H67  1  0.58283361  0.32904580  0.60998083  1  0.057403  0  0.099166  0.076211  0  0.97434  0
H  H68  1  0.85285748  0.96521010  0.05288784  1  0.093859  0  0.100802  0.08072  0  0.992118  0
H  H69  1  0.35286625  0.53477780  0.44711479  1  0.093604  0  0.100784  0.080695  0  0.992092  0
H  H70  1  0.14713896  0.03478429  0.94711473  1  0.093805  0  0.100801  0.080707  0  0.992076  0
H  H71  1  0.64712819  0.46521843  0.55288547  1  0.093766  0  0.100817  0.080695  0  0.992115  0
C  C72  1  0.87580122  0.29007804  0.35053915  1  0.227166  0  -0.075516  -0.087799  0  3.88587  0
C  C73  1  0.37580201  0.20992191  0.14945945  1  0.227092  0  -0.075516  -0.087761  0  3.885694  0
C  C74  1  0.12419820  0.70992186  0.64945961  1  0.226879  0  -0.075506  -0.087773  0  3.885751  0
C  C75  1  0.62419642  0.79007892  0.85054320  1  0.227506  0  -0.075537  -0.087704  0  3.885823  0
C  C76  1  0.90114902  0.32977956  0.16783259  1  0.232092  0  -0.076089  -0.102026  0  3.924204  0
C  C77  1  0.40115080  0.17022039  0.33216523  1  0.231993  0  -0.076115  -0.102084  0  3.924261  0
C  C78  1  0.09885141  0.67021850  0.83216381  1  0.232113  0  -0.07612  -0.102043  0  3.924239  0
C  C79  1  0.59885162  0.82978044  0.66783742  1  0.232091  0  -0.076165  -0.102178  0  3.924436  0
C  C80  1  0.94499571  0.19809514  0.14972284  1  0.22728  0  -0.081456  -0.103494  0  3.901859  0
C  C81  1  0.44499949  0.30190481  0.35027343  1  0.227239  0  -0.08148  -0.103444  0  3.901866  0
C  C82  1  0.05500172  0.80190477  0.85027281  1  0.22716  0  -0.081529  -0.10355  0  3.90186  0
C  C83  1  0.55500093  0.69809601  0.64972689  1  0.227137  0  -0.081534  -0.103526  0  3.901713  0
C  C84  1  0.91904715  0.15824908  0.33104097  1  0.258992  0  -0.072195  -0.09987  0  3.915127  0
C  C85  1  0.41904794  0.34174995  0.16895528  1  0.259085  0  -0.072203  -0.099915  0  3.915247  0
C  C86  1  0.08095327  0.84175175  0.66895546  1  0.259143  0  -0.072245  -0.099933  0  3.915335  0
C  C87  1  0.58095049  0.65825179  0.83104583  1  0.258716  0  -0.072258  -0.100054  0  3.915429  0
C  C88  1  0.87578027  0.50048882  0.28696851  1  0.224231  0  -0.072649  -0.037625  0  3.901771  0
C  C89  1  0.37577606  0.99950920  0.21302960  1  0.224378  0  -0.072677  -0.037779  0  3.90173  0
C  C90  1  0.12422315  0.49951108  0.71302947  1  0.224397  0  -0.072648  -0.037594  0  3.901701  0
C  C91  1  0.62422436  0.00048979  0.78697070  1  0.224384  0  -0.072701  -0.037669  0  3.901743  0
C  C92  1  0.91026025  0.56208542  0.39013402  1  -0.187579  0  -0.170684  -0.382847  0  3.899683  0
C  C93  1  0.41025405  0.93790707  0.10986246  1  -0.187503  0  -0.170681  -0.382801  0  3.899707  0
C  C94  1  0.08974417  0.43791356  0.60986240  1  -0.187519  0  -0.17067  -0.382785  0  3.899619  0
C  C95  1  0.58974538  0.06209099  0.89013549  1  -0.187557  0  -0.170648  -0.382819  0  3.899655  0
C  C96  1  0.93463804  0.98727642  0.20890830  1  0.224051  0  -0.085729  -0.134652  0  3.880433  0
C  C97  1  0.43463983  0.51272160  0.29109058  1  0.224128  0  -0.085731  -0.134652  0  3.880489  0
C  C98  1  0.06536138  0.01272257  0.79109122  1  0.224123  0  -0.085755  -0.134703  0  3.880438  0
C  C99  1  0.56535661  0.48727923  0.70891129  1  0.224108  0  -0.085746  -0.134567  0  3.880397  0
C  C100  1  0.86030214  0.91397918  0.12563745  1  0.39519  0  -0.085367  0.061251  0  3.900242  0
C  C101  1  0.36030592  0.58601147  0.37436677  1  0.395297  0  -0.085326  0.061392  0  3.900273  0
C  C102  1  0.13969629  0.08601612  0.87436590  1  0.39491  0  -0.085358  0.061313  0  3.900158  0
C  C103  1  0.63969350  0.41398659  0.62563507  1  0.395135  0  -0.085392  0.061278  0  3.900243  0
S  S104  1  0.79881778  0.68735562  0.41992850  1  3.176741  0  0.488772  1.215347  0  6.20209  0
S  S105  1  0.29880160  0.81264240  0.08007738  1  3.176656  0  0.488757  1.215449  0  6.201766  0
S  S106  1  0.20119063  0.31264336  0.58007335  1  3.176303  0  0.488792  1.215461  0  6.201854  0
S  S107  1  0.70119284  0.18736211  0.91992299  1  3.176882  0  0.488875  1.215651  0  6.201588  0
N  N108  1  0.93510708  0.37552152  0.27418873  1  -0.969104  0  -0.348372  -0.080408  0  3.464354  0
N  N109  1  0.43510687  0.12447752  0.22580908  1  -0.969414  0  -0.348295  -0.080327  0  3.464138  0
N  N110  1  0.06489335  0.62447747  0.72580846  1  -0.96945  0  -0.348301  -0.08036  0  3.464341  0
N  N111  1  0.56489356  0.87552331  0.77419280  1  -0.969413  0  -0.3483  -0.080428  0  3.464352  0
N  N112  1  0.88275091  0.11442025  0.22527301  1  -0.984846  0  -0.350147  -0.068748  0  3.481224  0
N  N113  1  0.38275369  0.38557970  0.27472404  1  -0.984835  0  -0.350164  -0.068752  0  3.481273  0
N  N114  1  0.11724852  0.88558058  0.77472421  1  -0.984852  0  -0.350085  -0.06872  0  3.481314  0
N  N115  1  0.61724574  0.61442113  0.72527784  1  -0.984802  0  -0.350128  -0.06869  0  3.481074  0
O  O116  1  0.66528180  0.63192007  0.42430892  1  -1.352234  0  -0.352279  -0.61973  0  2.21368  0
O  O117  1  0.16527660  0.86808440  0.07569316  1  -1.352074  0  -0.352191  -0.619678  0  2.213795  0
O  O118  1  0.33472062  0.36808260  0.57568832  1  -1.351992  0  -0.352233  -0.619705  0  2.213626  0
O  O119  1  0.83472183  0.13192840  0.92430344  1  -1.352306  0  -0.352258  -0.61976  0  2.213764  0
O  O120  1  0.84601956  0.73635394  0.52091947  1  -1.341944  0  -0.365158  -0.630083  0  2.234514  0
O  O121  1  0.34600538  0.76363763  0.97908632  1  -1.342027  0  -0.365228  -0.63028  0  2.234565  0
O  O122  1  0.15398685  0.26364136  0.47907845  1  -1.341897  0  -0.365207  -0.630193  0  2.234389  0
O  O123  1  0.65398806  0.23636320  0.02091633  1  -1.341858  0  -0.365275  -0.630305  0  2.234501  0
O  O124  1  0.81338278  0.77576269  0.33511214  1  -1.346144  0  -0.355707  -0.626031  0  2.213812  0
O  O125  1  0.31336360  0.72423441  0.16489373  1  -1.34627  0  -0.355738  -0.626044  0  2.213561  0
O  O126  1  0.18662763  0.22423721  0.66488662  1  -1.346077  0  -0.355717  -0.626077  0  2.213949  0
O  O127  1  0.68662285  0.27577010  0.83510665  1  -1.346385  0  -0.355731  -0.626118  0  2.21354  0
O  O128  1  0.72584906  0.88600592  0.15710605  1  -1.156494  0  -0.421205  -0.503137  0  2.300353  0
O  O129  1  0.22584785  0.61398105  0.34290511  1  -1.156482  0  -0.421205  -0.503254  0  2.300537  0
O  O130  1  0.27415137  0.11398754  0.84290039  1  -1.156255  0  -0.421195  -0.503204  0  2.300347  0
O  O131  1  0.77415058  0.38602162  0.65709679  1  -1.156369  0  -0.421179  -0.503187  0  2.300578  0
