# generated using pymatgen
data_CoH20C22S2(N3O)2
_symmetry_space_group_name_H-M   'P 1'
_cell_length_a   7.19280629
_cell_length_b   8.88671039
_cell_length_c   10.00413187
_cell_angle_alpha   109.53913074
_cell_angle_beta   103.29762144
_cell_angle_gamma   97.59015811
_symmetry_Int_Tables_number   1
_chemical_formula_structural   CoH20C22S2(N3O)2
_chemical_formula_sum   'Co1 H20 C22 S2 N6 O2'
_cell_volume   571.05237233
_cell_formula_units_Z   1
loop_
 _symmetry_equiv_pos_site_id
 _symmetry_equiv_pos_as_xyz
  1  'x, y, z'
loop_
 _atom_site_type_symbol
 _atom_site_label
 _atom_site_symmetry_multiplicity
 _atom_site_fract_x
 _atom_site_fract_y
 _atom_site_fract_z
 _atom_site_occupancy
 _atom_site_hle17_ddec_charge
 _atom_site_hle17_ddec_spin_density
 _atom_site_hle17_ddec_sum_bond_order
 _atom_site_hle17_magmom
 _atom_site_hse06_10hf_ddec_charge
 _atom_site_hse06_10hf_ddec_spin_density
 _atom_site_hse06_10hf_ddec_sum_bond_order
 _atom_site_hse06_10hf_magmom
 _atom_site_hse06_ddec_charge
 _atom_site_hse06_ddec_spin_density
 _atom_site_hse06_ddec_sum_bond_order
 _atom_site_hse06_magmom
 _atom_site_pbe_cm5_charge
 _atom_site_pbe_ddec_charge
 _atom_site_pbe_ddec_spin_density
 _atom_site_pbe_ddec_sum_bond_order
 _atom_site_pbe_magmom
Co  Co0  1  0.50000486  0.49999917  0.50000001  1  0.781736  1.132067  2.665798  1.024  0.777686  1.036277  3.096024  0.962  0.82318  1.029754  3.034332  0.965  0.738602  0.756371  1.039643  3.130178  0.953
H  H1  1  0.20901020  0.65000721  0.40429450  1  0.370013  -0.000531  0.930377  0.0  0.34516  2.9e-05  1.003061  0.0  0.353573  -9.4e-05  0.99107  0.0  0.263295  0.339259  0.000171  1.011446  0.0
H  H2  1  0.79100280  0.34998756  0.59571007  1  0.370011  -0.000528  0.930356  0.0  0.345179  3e-05  1.003023  0.0  0.353592  -9.3e-05  0.991031  0.0  0.263297  0.339279  0.000172  1.011408  0.0
H  H3  1  0.39657428  0.72916105  0.37594119  1  0.356944  -0.000263  0.971233  0.0  0.316447  0.00015  1.062203  0.0  0.326948  1.1e-05  1.047578  0.0  0.269226  0.309413  0.000295  1.071866  0.001
H  H4  1  0.60343433  0.27083851  0.62405899  1  0.356893  -0.000263  0.971229  0.0  0.316412  0.00015  1.062228  0.0  0.326913  1.1e-05  1.047605  0.0  0.269219  0.309379  0.000295  1.07189  0.001
H  H5  1  0.24817688  0.18362427  0.44267893  1  0.093803  -0.000129  0.936293  0.0  0.104738  -0.000192  0.991914  0.0  0.106044  -0.00015  0.990523  0.0  0.126439  0.103275  -0.000193  0.993819  0.0
H  H6  1  0.75183239  0.81637769  0.55731904  1  0.093796  -0.000128  0.936305  0.0  0.104734  -0.000192  0.991927  0.0  0.106042  -0.00015  0.990532  0.0  0.126459  0.103283  -0.000193  0.993816  0.0
H  H7  1  0.02445487  0.95452723  0.22568717  1  0.103534  -0.000267  0.973881  0.0  0.109373  -6.6e-05  1.043211  0.0  0.112488  -6.6e-05  1.042228  0.0  0.100851  0.106904  -9.8e-05  1.044531  0.0
H  H8  1  0.97553675  0.04547830  0.77431080  1  0.103524  -0.000268  0.974108  0.0  0.10937  -6.6e-05  1.043421  0.0  0.112496  -6.6e-05  1.042409  0.0  0.100861  0.106902  -9.8e-05  1.044741  0.0
H  H9  1  0.14986717  0.22998810  0.95833377  1  0.10149  -0.000243  0.990295  0.0  0.108332  -7.9e-05  1.058881  0.0  0.111232  -6.9e-05  1.058198  0.0  0.096081  0.106198  -0.000125  1.059467  0.0
H  H10  1  0.85013909  0.77001875  0.04166608  1  0.101471  -0.000244  0.990299  0.0  0.108308  -7.9e-05  1.058882  0.0  0.111219  -6.9e-05  1.058187  0.0  0.096101  0.106175  -0.000125  1.059468  0.0
H  H11  1  0.36649077  0.44602555  0.18753621  1  0.086999  -0.000148  0.955795  0.0  0.094237  -0.00021  1.020113  0.0  0.095888  -0.000174  1.017959  0.0  0.121605  0.092661  -0.000242  1.022396  0.0
H  H12  1  0.63352742  0.55397771  0.81246366  1  0.087059  -0.000147  0.955683  0.0  0.094311  -0.00021  1.020003  0.0  0.095962  -0.000174  1.017846  0.0  0.121617  0.092738  -0.000242  1.02229  0.0
H  H13  1  0.63995602  0.01783433  0.41840447  1  0.080251  0.000171  0.942695  0.0  0.089437  0.000251  1.004708  0.0  0.092754  0.000167  1.001566  0.0  0.113116  0.087057  0.000345  1.006509  0.0
H  H14  1  0.36004066  0.98216882  0.58159569  1  0.080234  0.000171  0.942702  0.0  0.089424  0.000252  1.004704  0.0  0.092742  0.000167  1.001563  0.0  0.113125  0.087046  0.000345  1.006505  0.0
H  H15  1  0.68115604  0.16078690  0.25357876  1  0.11681  -1.1e-05  0.943879  0.0  0.129005  -1.3e-05  0.999266  0.0  0.13205  -1.6e-05  0.998504  0.0  0.11162  0.126639  -1.8e-05  1.000161  0.0
H  H16  1  0.31883302  0.83920879  0.74641396  1  0.11678  -1.2e-05  0.943912  0.0  0.129045  -1.3e-05  0.999229  0.0  0.13209  -1.6e-05  0.998466  0.0  0.111635  0.12668  -1.8e-05  1.000124  0.0
H  H17  1  0.28826296  0.73269748  0.88953926  1  0.102361  -6.5e-05  0.98142  0.0  0.110533  -5.9e-05  1.046642  0.0  0.113193  -4.6e-05  1.046352  0.0  0.101716  0.108672  -6.8e-05  1.04676  0.0
H  H18  1  0.71172288  0.26729703  0.11045658  1  0.102352  -6.6e-05  0.981505  0.0  0.110568  -5.9e-05  1.046672  0.0  0.11322  -4.6e-05  1.046382  0.0  0.101763  0.108707  -6.8e-05  1.046798  0.0
H  H19  1  0.25857910  0.61064691  0.07075710  1  0.065604  -7.9e-05  0.96563  0.0  0.070836  -9.7e-05  1.038764  0.0  0.073305  -6.9e-05  1.036853  0.0  0.100761  0.069198  -0.000101  1.03983  0.0
H  H20  1  0.74141035  0.38934526  0.92924368  1  0.065583  -8e-05  0.965693  0.0  0.070842  -9.7e-05  1.038795  0.0  0.07331  -6.9e-05  1.036883  0.0  0.100808  0.069202  -0.000101  1.039863  0.0
C  C21  1  0.22103673  0.18874675  0.33305477  1  0.129574  -0.013914  3.656225  -0.009  0.101376  -0.005961  3.906831  -0.003  0.111533  -0.004756  3.92248  -0.003  0.049107  0.093789  -0.007018  3.898452  -0.004
C  C22  1  0.77896683  0.81125515  0.66694121  1  0.12968  -0.013909  3.656159  -0.009  0.101494  -0.005963  3.906767  -0.003  0.111648  -0.004758  3.922421  -0.003  0.049078  0.093896  -0.007019  3.898386  -0.004
C  C23  1  0.09467315  0.06062175  0.20926826  1  -0.15318  0.001323  3.702647  0.003  -0.171977  -0.000257  3.952295  0.0  -0.179112  0.000425  3.971112  0.001  -0.082435  -0.168066  -0.001396  3.941598  0.0
C  C24  1  0.90532723  0.93938998  0.79073397  1  -0.153314  0.001319  3.702685  0.003  -0.172105  -0.000257  3.952366  0.0  -0.179242  0.000426  3.971184  0.001  -0.082475  -0.168198  -0.001396  3.941678  0.0
C  C25  1  0.06365217  0.06784455  0.06762052  1  0.089141  -0.015354  3.752944  -0.009  0.100734  -0.006831  3.98352  -0.004  0.106862  -0.004361  4.001701  -0.002  0.007763  0.095906  -0.009996  3.972433  -0.006
C  C26  1  0.93634724  0.93216350  0.93238050  1  0.089379  -0.015344  3.752861  -0.009  0.100889  -0.00683  3.983499  -0.004  0.107023  -0.004362  4.001682  -0.002  0.007807  0.096065  -0.009996  3.972412  -0.006
C  C27  1  0.16318920  0.21173091  0.06222846  1  -0.150998  0.001101  3.707767  0.003  -0.170637  -0.000409  3.958746  0.0  -0.17804  0.000347  3.977666  0.001  -0.084638  -0.166311  -0.001527  3.94737  0.0
C  C28  1  0.83680481  0.78827833  0.93777197  1  -0.151106  0.001091  3.707907  0.003  -0.170708  -0.00041  3.958927  0.0  -0.17812  0.000349  3.977838  0.001  -0.084711  -0.166382  -0.001527  3.947552  0.0
C  C29  1  0.28607875  0.33548757  0.19067525  1  0.118892  -0.014234  3.6779  -0.009  0.087362  -0.006125  3.938719  -0.004  0.097801  -0.00481  3.953571  -0.003  0.045398  0.079644  -0.007477  3.930677  -0.004
C  C30  1  0.71393623  0.66451449  0.80932673  1  0.118961  -0.014219  3.67775  -0.009  0.087389  -0.006125  3.93862  -0.004  0.097836  -0.004813  3.953467  -0.003  0.04544  0.079665  -0.007477  3.930582  -0.004
C  C31  1  0.77478045  0.56609708  0.32564727  1  0.2774  -0.023156  4.019215  -0.016  0.266389  -0.009712  4.327187  -0.006  0.289861  -0.008901  4.337197  -0.006  0.139655  0.250979  -0.009968  4.320046  -0.007
C  C32  1  0.22522842  0.43390844  0.67434466  1  0.27751  -0.02312  4.019676  -0.016  0.266503  -0.009702  4.327641  -0.006  0.289969  -0.008889  4.337641  -0.006  0.139673  0.251098  -0.009957  4.320506  -0.007
C  C33  1  0.56608030  0.95635472  0.29970767  1  0.125158  3.2e-05  3.72305  0.0  0.095091  0.00015  3.981278  0.0  0.100897  9.2e-05  3.997766  0.0  0.044265  0.091508  0.000216  3.969615  0.0
C  C34  1  0.43391333  0.04364231  0.70029122  1  0.125259  3.7e-05  3.722989  0.0  0.09519  0.000149  3.981212  0.0  0.100995  9.3e-05  3.997703  0.0  0.044292  0.091607  0.000216  3.969554  0.0
C  C35  1  0.58975101  0.03697147  0.20500149  1  -0.142656  1.2e-05  3.679364  0.0  -0.162537  -3e-05  3.929507  0.0  -0.16906  -2.3e-05  3.950777  0.0  -0.077853  -0.15797  2.5e-05  3.914601  0.0
C  C36  1  0.41024167  0.96302186  0.79499518  1  -0.142707  9e-06  3.679352  0.0  -0.162651  -2.9e-05  3.929487  0.0  -0.169172  -2.3e-05  3.950759  0.0  -0.07793  -0.158083  2.5e-05  3.914581  0.0
C  C37  1  0.49074755  0.95978759  0.05276618  1  0.084005  -9.1e-05  3.763341  0.0  0.096663  2.1e-05  3.993313  0.0  0.099522  1.6e-05  4.016076  0.0  0.008558  0.09522  4.4e-05  3.976809  0.0
C  C38  1  0.50924720  0.04020820  0.94723054  1  0.084044  -8.5e-05  3.763369  0.0  0.096729  2.1e-05  3.993341  0.0  0.099582  1.7e-05  4.016103  0.0  0.008618  0.095286  4.4e-05  3.976839  0.0
C  C39  1  0.37104385  0.80231279  0.00516437  1  -0.158799  -0.000159  3.720625  0.0  -0.177576  -0.000122  3.968855  0.0  -0.185099  -6.8e-05  3.992201  0.0  -0.084979  -0.172222  -0.000225  3.95256  0.0
C  C40  1  0.62894628  0.19768177  0.99483321  1  -0.158836  -0.000162  3.720773  0.0  -0.177684  -0.000122  3.96905  0.0  -0.185192  -6.9e-05  3.992405  0.0  -0.085034  -0.172332  -0.000225  3.952754  0.0
C  C41  1  0.35448094  0.73189741  0.10779590  1  0.11778  -0.000119  3.734687  0.0  0.090232  -7e-06  3.987873  0.0  0.095149  -9e-06  4.006905  0.0  0.039786  0.087078  3e-06  3.974857  0.0
C  C42  1  0.64550995  0.26809473  0.89220313  1  0.1179  -0.000111  3.734744  0.0  0.090347  -7e-06  3.987927  0.0  0.095263  -8e-06  4.006958  0.0  0.039757  0.087195  3e-06  3.97491  0.0
S  S43  1  0.91813174  0.61833593  0.23678290  1  -0.384629  -0.00766  2.055954  -0.002  -0.363761  -0.003759  2.34991  -0.001  -0.376911  -0.003486  2.340617  -0.001  -0.164892  -0.353643  -0.003627  2.355721  0.0
S  S44  1  0.08186918  0.38166735  0.76322401  1  -0.384766  -0.007644  2.055459  -0.002  -0.363887  -0.003753  2.349382  -0.001  -0.377046  -0.00348  2.340086  -0.001  -0.164876  -0.353763  -0.003619  2.355193  0.0
N  N45  1  0.66876122  0.52736975  0.38911607  1  -0.489646  -0.001016  3.195083  0.006  -0.467792  -0.001623  3.503054  0.001  -0.48919  -0.001694  3.504491  0.001  -0.408987  -0.455297  -0.000693  3.501435  0.002
N  N46  1  0.33123488  0.47262622  0.61089193  1  -0.489666  -0.001028  3.196054  0.006  -0.4678  -0.001626  3.503975  0.001  -0.489189  -0.001699  3.505399  0.001  -0.408998  -0.45531  -0.000696  3.502364  0.002
N  N47  1  0.31771909  0.32566820  0.32564466  1  -0.227406  -0.020086  3.33844  -0.014  -0.183598  -0.009947  3.619128  -0.007  -0.207804  -0.008026  3.636804  -0.006  -0.325517  -0.169792  -0.011552  3.60797  -0.008
N  N48  1  0.68228986  0.67433254  0.67435291  1  -0.227557  -0.020098  3.338506  -0.014  -0.18377  -0.009948  3.619254  -0.007  -0.207982  -0.008025  3.636925  -0.006  -0.325516  -0.169961  -0.011552  3.6081  -0.008
N  N49  1  0.45046131  0.80633133  0.25325981  1  -0.308693  0.000201  3.191712  0.0  -0.245844  0.000355  3.438821  0.001  -0.259567  0.00022  3.456152  0.0  -0.308762  -0.236943  0.00049  3.427408  0.001
N  N50  1  0.54953118  0.19366696  0.74674224  1  -0.308777  0.000198  3.191718  0.0  -0.245934  0.000355  3.438835  0.001  -0.259657  0.000219  3.456166  0.0  -0.308779  -0.237033  0.00049  3.427425  0.001
O  O51  1  0.35196989  0.69015863  0.45047231  1  -0.794629  0.028625  2.019874  0.052  -0.761077  0.026397  2.238561  0.046  -0.785925  0.020656  2.210556  0.036  -0.570505  -0.741359  0.032906  2.256134  0.055
O  O52  1  0.64804410  0.30983978  0.54953046  1  -0.794567  0.028621  2.019863  0.052  -0.761027  0.026396  2.238571  0.046  -0.785874  0.020655  2.210561  0.036  -0.570509  -0.741312  0.032905  2.25614  0.055
