# generated using pymatgen
data_ZnH12C22(NO2)3
_symmetry_space_group_name_H-M   'P 1'
_cell_length_a   16.52318912
_cell_length_b   17.86018881
_cell_length_c   19.46245841
_cell_angle_alpha   90.34863560
_cell_angle_beta   89.99359446
_cell_angle_gamma   90.01333060
_symmetry_Int_Tables_number   1
_chemical_formula_structural   ZnH12C22(NO2)3
_chemical_formula_sum   'Zn2 H24 C44 N6 O12'
_cell_volume   5743.40659311
_cell_formula_units_Z   2
loop_
 _symmetry_equiv_pos_site_id
 _symmetry_equiv_pos_as_xyz
  1  'x, y, z'
loop_
 _atom_site_type_symbol
 _atom_site_label
 _atom_site_symmetry_multiplicity
 _atom_site_fract_x
 _atom_site_fract_y
 _atom_site_fract_z
 _atom_site_occupancy
 _atom_site_pbe_bader_charge
 _atom_site_pbe_bader_spin_density
 _atom_site_pbe_cm5_charge
 _atom_site_pbe_ddec_charge
 _atom_site_pbe_ddec_spin_density
 _atom_site_pbe_ddec_sum_bond_order
 _atom_site_pbe_magmom
Zn  Zn0  1  0.41552097  0.49996635  0.50154439  1  1.257268  0  0.664662  0.812114  0  2.441769  0
Zn  Zn1  1  0.58448533  0.49999993  0.50153859  1  1.276579  0  0.664646  0.811701  0  2.442328  0
H  H2  1  0.36977219  0.50232906  0.28178153  1  0.110205  0  0.109672  0.138889  0  0.994203  0
H  H3  1  0.63053137  0.12215181  0.47524993  1  0.057641  0  0.103844  0.106111  0  0.99169  0
H  H4  1  0.36954300  0.12203499  0.47523513  1  0.057361  0  0.103878  0.1063  0  0.991928  0
H  H5  1  0.63049347  0.87743888  0.47534171  1  0.062941  0  0.103712  0.10572  0  0.991903  0
H  H6  1  0.37034573  0.73766705  0.48875027  1  0.094806  0  0.103635  0.107839  0  1.001426  0
H  H7  1  0.62963480  0.26201954  0.48813244  1  0.114711  0  0.103703  0.107311  0  1.002808  0
H  H8  1  0.37034707  0.26190966  0.48812677  1  0.116491  0  0.103559  0.107027  0  1.003158  0
H  H9  1  0.62969883  0.73780221  0.48879046  1  0.097164  0  0.10349  0.107997  0  1.001045  0
H  H10  1  0.13533646  0.41523002  0.42025228  1  0.104827  0  0.120163  0.129625  0  0.974816  0
H  H11  1  0.86580044  0.58507237  0.57991807  1  0.108715  0  0.120333  0.129769  0  0.975223  0
H  H12  1  0.13424190  0.58506469  0.57994760  1  0.108011  0  0.120378  0.129774  0  0.975266  0
H  H13  1  0.63023293  0.49788962  0.72097871  1  0.09987  0  0.109629  0.138808  0  0.993846  0
H  H14  1  0.86464241  0.41523967  0.42022603  1  0.104682  0  0.120277  0.129719  0  0.974878  0
H  H15  1  0.28763068  0.41905460  0.42458198  1  0.136322  0  0.133662  0.10932  0  0.963428  0
H  H16  1  0.71349773  0.58130534  0.57712950  1  0.13471  0  0.133946  0.10994  0  0.960477  0
H  H17  1  0.28653414  0.58129364  0.57714338  1  0.133638  0  0.13392  0.109904  0  0.960296  0
H  H18  1  0.71235378  0.41905373  0.42457595  1  0.136191  0  0.133609  0.109223  0  0.963694  0
H  H19  1  0.36959982  0.50329047  0.72110052  1  0.09705  0  0.109608  0.139072  0  0.995039  0
H  H20  1  0.63033325  0.49666515  0.28171268  1  0.107069  0  0.10957  0.138662  0  0.995027  0
H  H21  1  0.36100848  0.50370805  0.10009742  1  0.611948  0  0.300066  0.302557  0  1.050846  0
H  H22  1  0.63888284  0.49640878  0.90269687  1  0.614177  0  0.300449  0.303546  0  1.050068  0
H  H23  1  0.36110566  0.50464021  0.90283815  1  0.61483  0  0.300207  0.302777  0  1.050453  0
H  H24  1  0.63901441  0.49524773  0.09999378  1  0.612547  0  0.300026  0.30254  0  1.050785  0
H  H25  1  0.36945002  0.87730523  0.47531453  1  0.06394  0  0.103784  0.105959  0  0.991779  0
C  C26  1  0.49997079  0.35336034  0.49626983  1  1.540797  0  0.212042  0.589329  0  4.175056  0
C  C27  1  0.83399164  0.54761287  0.54481223  1  -0.084574  0  -0.067513  -0.168207  0  3.905488  0
C  C28  1  0.16603039  0.54760102  0.54484035  1  -0.083858  0  -0.067417  -0.168125  0  3.90541  0
C  C29  1  0.83333385  0.45269740  0.45567388  1  -0.026822  0  -0.067384  -0.168228  0  3.904528  0
C  C30  1  0.25058453  0.45453166  0.45783394  1  0.498656  0  0.065864  0.108085  0  3.918709  0
C  C31  1  0.75004095  0.54576918  0.54349406  1  0.528202  0  0.066052  0.107353  0  3.919046  0
C  C32  1  0.24998251  0.54576164  0.54350556  1  0.528021  0  0.066053  0.107359  0  3.918636  0
C  C33  1  0.74940773  0.45454409  0.45781589  1  0.499136  0  0.066017  0.108251  0  3.918516  0
C  C34  1  0.12248918  0.50010190  0.50008131  1  0.097332  0  0.022356  0.176332  0  4.104286  0
C  C35  1  0.87752201  0.50011126  0.50005334  1  0.096281  0  0.022511  0.176442  0  4.104175  0
C  C36  1  0.03689553  0.50003059  0.49978326  1  -0.238493  0  -0.025537  -0.087978  0  4.079471  0
C  C37  1  0.50003801  0.64657329  0.49821800  1  1.589841  0  0.212703  0.589554  0  4.176122  0
C  C38  1  0.96312049  0.50003128  0.49976661  1  0.000471  0  -0.025436  -0.087748  0  4.079289  0
C  C39  1  0.50002481  0.49909738  0.36620064  1  1.626435  0  0.217463  0.591819  0  4.152886  0
C  C40  1  0.49995365  0.50090331  0.63647399  1  1.603198  0  0.218827  0.593739  0  4.151773  0
C  C41  1  0.42650230  0.50082500  0.25350615  1  0.070853  0  -0.112956  -0.256102  0  3.96162  0
C  C42  1  0.57346529  0.49937013  0.74923962  1  0.072451  0  -0.112596  -0.255714  0  3.960929  0
C  C43  1  0.42639233  0.50250557  0.74930184  1  0.081509  0  -0.112824  -0.256881  0  3.962504  0
C  C44  1  0.57357101  0.49758717  0.25347489  1  0.082466  0  -0.112953  -0.256281  0  3.962271  0
C  C45  1  0.42546217  0.50121623  0.18196268  1  0.474836  0  0.093579  0.328666  0  4.055597  0
C  C46  1  0.57453084  0.49900579  0.82078935  1  0.479715  0  0.093619  0.329432  0  4.05454  0
C  C47  1  0.42539962  0.50267515  0.82085790  1  0.484448  0  0.093818  0.329916  0  4.05448  0
C  C48  1  0.50002199  0.72991820  0.49032132  1  0.065333  0  -0.017076  -0.030331  0  3.957102  0
C  C49  1  0.57459700  0.49737618  0.18193408  1  0.476585  0  0.093592  0.329148  0  4.05488  0
C  C50  1  0.50003275  0.49944601  0.14380211  1  -0.005689  0  -0.042123  -0.274215  0  3.97942  0
C  C51  1  0.49997782  0.50076596  0.85895965  1  0.094543  0  -0.042005  -0.27396  0  3.980236  0
C  C52  1  0.50003536  0.49915824  0.28873569  1  -0.043537  0  -0.004008  0.039147  0  3.999462  0
C  C53  1  0.49992557  0.50099817  0.71396985  1  -0.033361  0  -0.00455  0.038162  0  3.999391  0
C  C54  1  0.50000238  0.50040724  0.93296757  1  0.803609  0  0.231074  0.26752  0  3.993501  0
C  C55  1  0.50002028  0.49974646  0.06977701  1  0.895321  0  0.230917  0.268953  0  3.99282  0
C  C56  1  0.42629756  0.84651572  0.47843082  1  0.001405  0  -0.085468  -0.130016  0  3.955321  0
C  C57  1  0.57370376  0.15305892  0.47772435  1  0.004781  0  -0.085335  -0.130245  0  3.956823  0
C  C58  1  0.42633873  0.15299431  0.47772713  1  0.004592  0  -0.085138  -0.130182  0  3.957454  0
C  C59  1  0.49998939  0.26989830  0.48869061  1  -0.035171  0  -0.016411  -0.029968  0  3.95808  0
C  C60  1  0.57366743  0.84657923  0.47844242  1  0.00382  0  -0.084819  -0.128968  0  3.954838  0
C  C61  1  0.42669737  0.76925365  0.48603157  1  -0.113238  0  -0.084241  -0.08984  0  3.994612  0
C  C62  1  0.57330320  0.23045679  0.48489257  1  -0.055862  0  -0.085714  -0.090636  0  3.996668  0
C  C63  1  0.42669651  0.23039451  0.48489169  1  -0.055824  0  -0.085569  -0.090256  0  3.997375  0
C  C64  1  0.57331980  0.76931764  0.48604684  1  -0.116486  0  -0.084661  -0.09076  0  3.99465  0
C  C65  1  0.49997368  0.88653408  0.47503677  1  0.065349  0  0.00013  0.141748  0  4.118054  0
C  C66  1  0.50003315  0.11299287  0.47442378  1  0.075793  0  0.000371  0.141584  0  4.120044  0
C  C67  1  0.49996682  0.96552223  0.47054391  1  -0.078277  0  -0.046706  -0.110988  0  4.13013  0
C  C68  1  0.50003647  0.03390778  0.47037056  1  -0.290917  0  -0.046547  -0.110972  0  4.130493  0
C  C69  1  0.16665745  0.45267899  0.45570493  1  -0.027804  0  -0.06724  -0.16812  0  3.904446  0
N  N70  1  0.57183159  0.49724912  0.03479542  1  -0.557961  0  -0.140685  -0.126034  0  3.308309  0
N  N71  1  0.42818985  0.50279039  0.96796311  1  -0.585505  0  -0.140951  -0.125956  0  3.307565  0
N  N72  1  0.57182135  0.49758003  0.96788250  1  -0.590926  0  -0.141629  -0.127179  0  3.309094  0
N  N73  1  0.42819040  0.50246227  0.03487502  1  -0.561681  0  -0.141373  -0.12688  0  3.30774  0
N  N74  1  0.29132765  0.50009303  0.50093497  1  -1.220252  0  -0.313817  -0.18897  0  3.50637  0
N  N75  1  0.70867990  0.50010582  0.50091935  1  -1.221314  0  -0.313881  -0.189034  0  3.506419  0
O  O76  1  0.43129575  0.38578974  0.49910201  1  -1.168378  0  -0.319626  -0.55115  0  2.327951  0
O  O77  1  0.64768625  0.49699523  0.85177817  1  -1.124892  0  -0.353931  -0.429091  0  2.283356  0
O  O78  1  0.35225260  0.50461144  0.85191401  1  -1.126231  0  -0.353934  -0.428633  0  2.283435  0
O  O79  1  0.64778274  0.49527371  0.15092820  1  -1.12702  0  -0.353752  -0.428328  0  2.283263  0
O  O80  1  0.56871421  0.61417602  0.50107331  1  -1.171106  0  -0.320249  -0.551582  0  2.329235  0
O  O81  1  0.43136844  0.61413261  0.50100183  1  -1.169364  0  -0.320338  -0.552143  0  2.330098  0
O  O82  1  0.56865423  0.38583451  0.49902090  1  -1.167548  0  -0.319567  -0.551011  0  2.328623  0
O  O83  1  0.43136704  0.49911175  0.39579290  1  -1.169255  0  -0.315552  -0.544495  0  2.319602  0
O  O84  1  0.56863199  0.50079262  0.60687263  1  -1.167965  0  -0.315599  -0.543663  0  2.319755  0
O  O85  1  0.43130802  0.50088261  0.60686434  1  -1.167398  0  -0.31561  -0.543963  0  2.320002  0
O  O86  1  0.56868557  0.49912030  0.39579643  1  -1.168185  0  -0.315315  -0.544152  0  2.318856  0
O  O87  1  0.35226137  0.50324035  0.15103044  1  -1.12458  0  -0.353379  -0.427756  0  2.283915  0
