# generated using pymatgen
data_ZnH6C10Br4(NCl)2
_symmetry_space_group_name_H-M   'P 1'
_cell_length_a   3.73642177
_cell_length_b   13.78502209
_cell_length_c   13.78512930
_cell_angle_alpha   89.99998661
_cell_angle_beta   90.00002828
_cell_angle_gamma   90.00003260
_symmetry_Int_Tables_number   1
_chemical_formula_structural   ZnH6C10Br4(NCl)2
_chemical_formula_sum   'Zn2 H12 C20 Br8 N4 Cl4'
_cell_volume   710.02592159
_cell_formula_units_Z   2
loop_
 _symmetry_equiv_pos_site_id
 _symmetry_equiv_pos_as_xyz
  1  'x, y, z'
loop_
 _atom_site_type_symbol
 _atom_site_label
 _atom_site_symmetry_multiplicity
 _atom_site_fract_x
 _atom_site_fract_y
 _atom_site_fract_z
 _atom_site_occupancy
 _atom_site_hle17_bader_spin_density
 _atom_site_hle17_ddec_charge
 _atom_site_hle17_ddec_spin_density
 _atom_site_hle17_ddec_sum_bond_order
 _atom_site_hle17_magmom
 _atom_site_hse06_10hf_bader_spin_density
 _atom_site_hse06_10hf_ddec_charge
 _atom_site_hse06_10hf_ddec_spin_density
 _atom_site_hse06_10hf_ddec_sum_bond_order
 _atom_site_hse06_10hf_magmom
 _atom_site_hse06_bader_spin_density
 _atom_site_hse06_ddec_charge
 _atom_site_hse06_ddec_spin_density
 _atom_site_hse06_ddec_sum_bond_order
 _atom_site_hse06_magmom
 _atom_site_pbe_bader_spin_density
 _atom_site_pbe_cm5_charge
 _atom_site_pbe_ddec_charge
 _atom_site_pbe_ddec_spin_density
 _atom_site_pbe_ddec_sum_bond_order
 _atom_site_pbe_magmom
Zn  Zn0  1  0.50000126  0.99999983  0.49999958  1  0  0.862548  0  1.92445  0  0  0.705351  0  2.331028  0  0  0.748673  0  2.293799  0  0  0.521671  0.675265  0  2.35615  0
Zn  Zn1  1  0.50000028  0.49999996  0.99999998  1  0  0.862529  0  1.924466  0  0  0.705312  0  2.331066  0  0  0.748633  0  2.293837  0  0  0.521653  0.675225  0  2.356185  0
H  H2  1  0.70533387  0.78473940  0.51745756  1  0  0.093552  0  0.979201  0  0  0.095362  0  1.056757  0  0  0.099061  0  1.052635  0  0  0.096532  0.092584  0  1.059863  0
H  H3  1  0.29466768  0.51745800  0.21526091  1  0  0.093581  0  0.979189  0  0  0.095381  0  1.056756  0  0  0.099081  0  1.052633  0  0  0.09654  0.092602  0  1.059864  0
H  H4  1  0.70533592  0.21525972  0.48254102  1  0  0.093589  0  0.979185  0  0  0.095402  0  1.056734  0  0  0.099104  0  1.05261  0  0  0.096545  0.092626  0  1.059842  0
H  H5  1  0.29466549  0.48254178  0.78473907  1  0  0.09358  0  0.979188  0  0  0.095381  0  1.056753  0  0  0.099081  0  1.052631  0  0  0.096541  0.092604  0  1.059862  0
H  H6  1  0.70533334  0.71526042  0.01745863  1  0  0.093562  0  0.979207  0  0  0.095368  0  1.056764  0  0  0.099069  0  1.052639  0  0  0.096538  0.092593  0  1.059872  0
H  H7  1  0.29466722  0.01745807  0.28473946  1  0  0.093558  0  0.979188  0  0  0.095352  0  1.056764  0  0  0.099052  0  1.052642  0  0  0.096527  0.092575  0  1.059873  0
H  H8  1  0.70533377  0.28473942  0.98254140  1  0  0.093538  0  0.97921  0  0  0.095348  0  1.056769  0  0  0.099049  0  1.052645  0  0  0.09653  0.092571  0  1.059875  0
H  H9  1  0.29466862  0.98254243  0.71526052  1  0  0.09355  0  0.979208  0  0  0.095353  0  1.056774  0  0  0.099053  0  1.052652  0  0  0.096528  0.092576  0  1.059881  0
H  H10  1  0.49999854  0.68834995  0.81164994  1  0  0.134118  0  0.956603  0  0  0.142935  0  1.020911  0  0  0.146461  0  1.017639  0  0  0.095879  0.140201  0  1.023493  0
H  H11  1  0.50000089  0.81165122  0.31165026  1  0  0.134126  0  0.956592  0  0  0.142944  0  1.020904  0  0  0.14647  0  1.017632  0  0  0.095887  0.140211  0  1.023487  0
H  H12  1  0.50000026  0.31165059  0.18835006  1  0  0.134137  0  0.956574  0  0  0.142956  0  1.020887  0  0  0.146482  0  1.017615  0  0  0.095893  0.140223  0  1.023468  0
H  H13  1  0.50000058  0.18834859  0.68834974  1  0  0.13415  0  0.956602  0  0  0.142963  0  1.020911  0  0  0.146489  0  1.017639  0  0  0.095897  0.14023  0  1.023493  0
C  C14  1  0.61445823  0.79754458  0.59138214  1  0  0.075479  0  3.677196  0  0  0.029885  0  3.935466  0  0  0.037912  0  3.951343  0  0  0.028258  0.024662  0  3.924898  0
C  C15  1  0.38554614  0.59138317  0.20245580  1  0  0.075471  0  3.677198  0  0  0.029882  0  3.935434  0  0  0.037908  0  3.951309  0  0  0.028284  0.024662  0  3.924866  0
C  C16  1  0.61445477  0.20245524  0.40861788  1  0  0.075336  0  3.677221  0  0  0.029725  0  3.935498  0  0  0.03775  0  3.951377  0  0  0.028206  0.0245  0  3.924936  0
C  C17  1  0.38554381  0.40861662  0.79754418  1  0  0.07549  0  3.677199  0  0  0.029904  0  3.93544  0  0  0.037931  0  3.951315  0  0  0.028287  0.024679  0  3.924875  0
C  C18  1  0.61445500  0.70245520  0.09138104  1  0  0.075358  0  3.677167  0  0  0.029751  0  3.935446  0  0  0.037777  0  3.951324  0  0  0.028215  0.024524  0  3.92489  0
C  C19  1  0.38554838  0.09138251  0.29754456  1  0  0.075456  0  3.677233  0  0  0.029884  0  3.935464  0  0  0.03791  0  3.951341  0  0  0.028271  0.024659  0  3.924902  0
C  C20  1  0.61445265  0.29754462  0.90861970  1  0  0.075472  0  3.677151  0  0  0.029855  0  3.935428  0  0  0.03788  0  3.951305  0  0  0.028248  0.024629  0  3.924862  0
C  C21  1  0.38554693  0.90861801  0.70245543  1  0  0.07545  0  3.677222  0  0  0.029867  0  3.935478  0  0  0.037894  0  3.951355  0  0  0.028254  0.024645  0  3.92491  0
C  C22  1  0.62118123  0.72521317  0.66207427  1  0  0.052804  0  3.699434  0  0  0.074936  0  3.966866  0  0  0.073244  0  3.988854  0  0  -0.018126  0.075524  0  3.952224  0
C  C23  1  0.37882059  0.66207583  0.27478591  1  0  0.052818  0  3.699442  0  0  0.074964  0  3.966851  0  0  0.073274  0  3.988837  0  0  -0.018126  0.075551  0  3.952209  0
C  C24  1  0.62118314  0.27478666  0.33792647  1  0  0.052858  0  3.699342  0  0  0.075  0  3.966765  0  0  0.073309  0  3.988753  0  0  -0.018095  0.075589  0  3.952123  0
C  C25  1  0.37882066  0.33792396  0.72521335  1  0  0.052844  0  3.699391  0  0  0.074964  0  3.966828  0  0  0.073274  0  3.988813  0  0  -0.018122  0.075552  0  3.952186  0
C  C26  1  0.62117815  0.77478805  0.16207170  1  0  0.052879  0  3.699238  0  0  0.075019  0  3.966659  0  0  0.073328  0  3.988646  0  0  -0.018107  0.075604  0  3.952025  0
C  C27  1  0.37881735  0.16207374  0.22521371  1  0  0.052836  0  3.699311  0  0  0.074966  0  3.966745  0  0  0.073276  0  3.988731  0  0  -0.01809  0.075554  0  3.952105  0
C  C28  1  0.62117284  0.22521250  0.83792832  1  0  0.052858  0  3.699316  0  0  0.074999  0  3.966732  0  0  0.073308  0  3.98872  0  0  -0.018093  0.075588  0  3.952088  0
C  C29  1  0.37881856  0.83792678  0.77478700  1  0  0.052846  0  3.699331  0  0  0.074972  0  3.966766  0  0  0.073281  0  3.988753  0  0  -0.018094  0.075559  0  3.952127  0
C  C30  1  0.50000390  0.74420986  0.75578901  1  0  -0.097234  0  3.692475  0  0  -0.134605  0  3.942596  0  0  -0.13166  0  3.959629  0  0  -0.086753  -0.136171  0  3.931179  0
C  C31  1  0.49999543  0.75579133  0.25578790  1  0  -0.097219  0  3.692504  0  0  -0.134608  0  3.94264  0  0  -0.131664  0  3.959674  0  0  -0.086753  -0.136176  0  3.931224  0
C  C32  1  0.49999490  0.25579068  0.24421171  1  0  -0.097222  0  3.692446  0  0  -0.134605  0  3.942575  0  0  -0.131661  0  3.95961  0  0  -0.086773  -0.136172  0  3.931155  0
C  C33  1  0.49999534  0.24420848  0.74421210  1  0  -0.097296  0  3.692531  0  0  -0.134659  0  3.942652  0  0  -0.131715  0  3.959687  0  0  -0.086799  -0.136228  0  3.931232  0
Br  Br34  1  0.79730947  0.59989021  0.63068177  1  0  -0.050704  0  1.490047  0  0  -0.046217  0  1.799795  0  0  -0.051113  0  1.794437  0  0  0.048328  -0.042639  0  1.80372  0
Br  Br35  1  0.20269227  0.63068231  0.40010935  1  0  -0.050694  0  1.489984  0  0  -0.046209  0  1.799722  0  0  -0.051106  0  1.794361  0  0  0.04833  -0.042633  0  1.803647  0
Br  Br36  1  0.79731438  0.40011109  0.36931827  1  0  -0.050708  0  1.489992  0  0  -0.04622  0  1.799728  0  0  -0.051117  0  1.794371  0  0  0.048325  -0.042644  0  1.803652  0
Br  Br37  1  0.20269218  0.36931745  0.59989061  1  0  -0.050694  0  1.490028  0  0  -0.046197  0  1.799764  0  0  -0.051096  0  1.794408  0  0  0.048341  -0.04262  0  1.803689  0
Br  Br38  1  0.79731469  0.90011250  0.13068135  1  0  -0.050722  0  1.489968  0  0  -0.046235  0  1.799718  0  0  -0.051132  0  1.794359  0  0  0.048321  -0.042654  0  1.803646  0
Br  Br39  1  0.20268880  0.13068242  0.09988880  1  0  -0.050696  0  1.489938  0  0  -0.046207  0  1.79968  0  0  -0.051103  0  1.794319  0  0  0.048321  -0.042628  0  1.803607  0
Br  Br40  1  0.79731452  0.09988808  0.86931869  1  0  -0.050717  0  1.489969  0  0  -0.046234  0  1.799716  0  0  -0.051132  0  1.794361  0  0  0.048315  -0.042658  0  1.803642  0
Br  Br41  1  0.20269030  0.86931807  0.90010971  1  0  -0.050684  0  1.490001  0  0  -0.046183  0  1.799731  0  0  -0.051079  0  1.794367  0  0  0.048341  -0.042605  0  1.803659  0
N  N42  1  0.49999857  0.88757490  0.61242509  1  0  -0.273137  0  3.296164  0  0  -0.185804  0  3.548232  0  0  -0.207093  0  3.57095  0  0  -0.310738  -0.171503  0  3.532669  0
N  N43  1  0.49999783  0.61242414  0.11242618  1  0  -0.273109  0  3.296144  0  0  -0.185746  0  3.54817  0  0  -0.207036  0  3.570898  0  0  -0.310713  -0.171438  0  3.532592  0
N  N44  1  0.50000023  0.11242419  0.38757491  1  0  -0.273104  0  3.296171  0  0  -0.185752  0  3.548187  0  0  -0.207041  0  3.570909  0  0  -0.31072  -0.171447  0  3.53262  0
N  N45  1  0.50000097  0.38757639  0.88757382  1  0  -0.273183  0  3.296194  0  0  -0.185818  0  3.548234  0  0  -0.207107  0  3.570955  0  0  -0.310734  -0.171513  0  3.532664  0
Cl  Cl46  1  0.00000133  0.91330208  0.41330251  1  0  -0.537324  0  1.082033  0  0  -0.483185  0  1.378081  0  0  -0.500305  0  1.358132  0  0  -0.269245  -0.470474  0  1.39163  0
Cl  Cl47  1  0.00000051  0.41330219  0.08669772  1  0  -0.537307  0  1.082012  0  0  -0.483164  0  1.378061  0  0  -0.500282  0  1.358112  0  0  -0.269243  -0.470455  0  1.391607  0
Cl  Cl48  1  0.00000062  0.08669765  0.58669742  1  0  -0.537313  0  1.082018  0  0  -0.483172  0  1.37806  0  0  -0.500291  0  1.358113  0  0  -0.269239  -0.47046  0  1.391608  0
Cl  Cl49  1  0.99999829  0.58669762  0.91330228  1  0  -0.537309  0  1.082011  0  0  -0.483164  0  1.37806  0  0  -0.500282  0  1.35811  0  0  -0.26924  -0.470451  0  1.391606  0
