# generated using pymatgen
data_BaH4C6N2O5
_symmetry_space_group_name_H-M   'P 1'
_cell_length_a   5.65156950
_cell_length_b   8.06147943
_cell_length_c   9.82792207
_cell_angle_alpha   93.98963967
_cell_angle_beta   105.49511026
_cell_angle_gamma   96.82970583
_symmetry_Int_Tables_number   1
_chemical_formula_structural   BaH4C6N2O5
_chemical_formula_sum   'Ba2 H8 C12 N4 O10'
_cell_volume   426.01374870
_cell_formula_units_Z   2
loop_
 _symmetry_equiv_pos_site_id
 _symmetry_equiv_pos_as_xyz
  1  'x, y, z'
loop_
 _atom_site_type_symbol
 _atom_site_label
 _atom_site_symmetry_multiplicity
 _atom_site_fract_x
 _atom_site_fract_y
 _atom_site_fract_z
 _atom_site_occupancy
 _atom_site_hle17_bader_spin_density
 _atom_site_hle17_ddec_charge
 _atom_site_hle17_ddec_spin_density
 _atom_site_hle17_ddec_sum_bond_order
 _atom_site_hle17_magmom
 _atom_site_hse06_10hf_bader_spin_density
 _atom_site_hse06_10hf_ddec_charge
 _atom_site_hse06_10hf_ddec_spin_density
 _atom_site_hse06_10hf_ddec_sum_bond_order
 _atom_site_hse06_10hf_magmom
 _atom_site_hse06_bader_spin_density
 _atom_site_hse06_ddec_charge
 _atom_site_hse06_ddec_spin_density
 _atom_site_hse06_ddec_sum_bond_order
 _atom_site_hse06_magmom
 _atom_site_pbe_bader_spin_density
 _atom_site_pbe_cm5_charge
 _atom_site_pbe_ddec_charge
 _atom_site_pbe_ddec_spin_density
 _atom_site_pbe_ddec_sum_bond_order
 _atom_site_pbe_magmom
Ba  Ba0  1  0.31658944  0.21653892  0.05284611  1  0  1.577969  0  1.202042  0  0  1.408139  0  1.6173  0  0  1.451989  0  1.572583  0  0  0.984768  1.375336  0  1.650056  0
Ba  Ba1  1  0.68341378  0.78346084  0.94715492  1  0  1.577988  0  1.202023  0  0  1.408173  0  1.617266  0  0  1.452027  0  1.572555  0  0  0.984778  1.375365  0  1.650013  0
H  H2  1  0.32515226  0.30111798  0.66296234  1  0  0.116414  0  0.952049  0  0  0.124033  0  1.016956  0  0  0.127821  0  1.014868  0  0  0.116226  0.121308  0  1.018694  0
H  H3  1  0.67485094  0.69888179  0.33704072  1  0  0.116295  0  0.952027  0  0  0.123881  0  1.016993  0  0  0.127663  0  1.014921  0  0  0.116175  0.121155  0  1.018731  0
H  H4  1  0.82482927  0.14731595  0.34694152  1  0  0.078483  0  0.954885  0  0  0.084677  0  1.025251  0  0  0.087835  0  1.022139  0  0  0.121117  0.082427  0  1.02751  0
H  H5  1  0.17515560  0.85268373  0.65305359  1  0  0.078486  0  0.954862  0  0  0.084676  0  1.025226  0  0  0.087835  0  1.022113  0  0  0.121105  0.082424  0  1.027486  0
H  H6  1  0.94966868  0.08043009  0.60083040  1  0  0.109751  0  0.957305  0  0  0.118058  0  1.023639  0  0  0.121379  0  1.022155  0  0  0.113102  0.115539  0  1.025014  0
H  H7  1  0.05032463  0.91956585  0.39916378  1  0  0.109763  0  0.957252  0  0  0.118067  0  1.023597  0  0  0.121387  0  1.022115  0  0  0.11309  0.115542  0  1.02497  0
H  H8  1  0.23255431  0.36753933  0.41016241  1  0  0.07177  0  0.939088  0  0  0.079385  0  1.003012  0  0  0.081905  0  1.001612  0  0  0.115517  0.077522  0  1.004211  0
H  H9  1  0.76745013  0.63246674  0.58984526  1  0  0.071717  0  0.939061  0  0  0.079325  0  1.003008  0  0  0.081869  0  1.001582  0  0  0.115507  0.077463  0  1.004209  0
C  C10  1  0.69111829  0.11774880  0.79335157  1  0  0.666551  0  3.930042  0  0  0.614077  0  4.223841  0  0  0.648498  0  4.214307  0  0  0.217944  0.590517  0  4.229599  0
C  C11  1  0.30887674  0.88225597  0.20665150  1  0  0.666611  0  3.929979  0  0  0.614047  0  4.223936  0  0  0.648484  0  4.214372  0  0  0.217899  0.590459  0  4.229736  0
C  C12  1  0.64196032  0.18105788  0.64928237  1  0  -0.001814  0  3.720743  0  0  0.018197  0  3.949767  0  0  0.016275  0  3.968878  0  0  0.009848  0.019672  0  3.936574  0
C  C13  1  0.35803454  0.81893682  0.35071504  1  0  -0.001862  0  3.720759  0  0  0.018141  0  3.949849  0  0  0.016212  0  3.968956  0  0  0.009886  0.019625  0  3.93666  0
C  C14  1  0.44015048  0.26563687  0.59589587  1  0  -0.116441  0  3.684927  0  0  -0.139887  0  3.934442  0  0  -0.144563  0  3.954198  0  0  -0.071327  -0.137016  0  3.921429  0
C  C15  1  0.55984325  0.73436162  0.40410972  1  0  -0.116335  0  3.685035  0  0  -0.139735  0  3.93459  0  0  -0.144414  0  3.954359  0  0  -0.07131  -0.136863  0  3.921572  0
C  C16  1  0.72106743  0.18207006  0.42100656  1  0  0.108701  0  3.741783  0  0  0.082572  0  4.001281  0  0  0.087499  0  4.019526  0  0  0.04292  0.079469  0  3.988322  0
C  C17  1  0.27892559  0.81792464  0.57899159  1  0  0.108635  0  3.741935  0  0  0.08253  0  4.001396  0  0  0.087457  0  4.019639  0  0  0.042931  0.079427  0  3.98844  0
C  C18  1  0.78916223  0.14362639  0.56089237  1  0  -0.123895  0  3.705214  0  0  -0.146506  0  3.952173  0  0  -0.15158  0  3.973778  0  0  -0.075806  -0.142655  0  3.937118  0
C  C19  1  0.21083078  0.85636831  0.43910781  1  0  -0.123929  0  3.705267  0  0  -0.146541  0  3.952234  0  0  -0.15162  0  3.973849  0  0  -0.075843  -0.142692  0  3.937192  0
C  C20  1  0.38890839  0.30202836  0.45550369  1  0  0.116401  0  3.743513  0  0  0.091188  0  4.005564  0  0  0.095827  0  4.024227  0  0  0.046285  0.088052  0  3.993273  0
C  C21  1  0.61109217  0.69797642  0.54449720  1  0  0.116553  0  3.743575  0  0  0.091327  0  4.005655  0  0  0.095951  0  4.024311  0  0  0.046326  0.08819  0  3.993369  0
N  N22  1  0.52176669  0.25772853  0.36704399  1  0  -0.372751  0  3.156859  0  0  -0.321121  0  3.427116  0  0  -0.334869  0  3.445101  0  0  -0.357018  -0.311287  0  3.414602  0
N  N23  1  0.47822655  0.74227621  0.63295269  1  0  -0.372732  0  3.156892  0  0  -0.321102  0  3.427142  0  0  -0.33485  0  3.445132  0  0  -0.356995  -0.31127  0  3.414637  0
N  N24  1  0.90041469  0.43304830  0.14033190  1  0  0.690107  0  4.17774  0  0  0.723181  0  4.467901  0  0  0.750061  0  4.473934  0  0  0.088689  0.703477  0  4.463606  0
N  N25  1  0.09959484  0.56695524  0.85966727  1  0  0.690172  0  4.177627  0  0  0.72331  0  4.467739  0  0  0.750131  0  4.47387  0  0  0.08869  0.70374  0  4.46328  0
O  O26  1  0.51261446  0.09977542  0.84983680  1  0  -0.715414  0  1.974292  0  0  -0.648054  0  2.220484  0  0  -0.675617  0  2.210683  0  0  -0.387909  -0.628555  0  2.227108  0
O  O27  1  0.48738251  0.90022054  0.15015999  1  0  -0.715476  0  1.974146  0  0  -0.64808  0  2.22038  0  0  -0.675652  0  2.21057  0  0  -0.38792  -0.628574  0  2.227016  0
O  O28  1  0.90158800  0.07198890  0.84597172  1  0  -0.717949  0  1.984566  0  0  -0.653548  0  2.234975  0  0  -0.680016  0  2.224021  0  0  -0.393758  -0.635347  0  2.24274  0
O  O29  1  0.09841657  0.92800834  0.15402634  1  0  -0.717908  0  1.984661  0  0  -0.653465  0  2.235105  0  0  -0.679935  0  2.224142  0  0  -0.393718  -0.635256  0  2.242886  0
O  O30  1  0.71753278  0.51379030  0.13036023  1  0  -0.514267  0  1.798295  0  0  -0.494161  0  2.027535  0  0  -0.510471  0  2.020688  0  0  -0.207009  -0.481946  0  2.032317  0
O  O31  1  0.28248065  0.48621453  0.86964267  1  0  -0.51429  0  1.798209  0  0  -0.49418  0  2.027403  0  0  -0.510465  0  2.020584  0  0  -0.207008  -0.482043  0  2.032207  0
O  O32  1  0.86508747  0.27361111  0.13775834  1  0  -0.507798  0  1.796492  0  0  -0.486999  0  2.023175  0  0  -0.503238  0  2.017172  0  0  -0.19411  -0.474773  0  2.027168  0
O  O33  1  0.13492386  0.72639245  0.86224519  1  0  -0.507896  0  1.796586  0  0  -0.487098  0  2.023243  0  0  -0.50333  0  2.017291  0  0  -0.194107  -0.47488  0  2.027117  0
O  O34  1  0.11448458  0.50790497  0.15107067  1  0  -0.465826  0  1.79067  0  0  -0.453251  0  2.010604  0  0  -0.468727  0  2.007315  0  0  -0.169477  -0.44175  0  2.012715  0
O  O35  1  0.88552314  0.49209855  0.84892415  1  0  -0.465786  0  1.790568  0  0  -0.453256  0  2.010481  0  0  -0.468756  0  2.007311  0  0  -0.169487  -0.441799  0  2.012543  0
