# generated using pymatgen
data_ZnH14C20N6O7
_symmetry_space_group_name_H-M   'P 1'
_cell_length_a   8.06970156
_cell_length_b   11.24097991
_cell_length_c   11.40557779
_cell_angle_alpha   83.00700771
_cell_angle_beta   87.20398376
_cell_angle_gamma   77.08930917
_symmetry_Int_Tables_number   1
_chemical_formula_structural   ZnH14C20N6O7
_chemical_formula_sum   'Zn2 H28 C40 N12 O14'
_cell_volume   1000.70894733
_cell_formula_units_Z   2
loop_
 _symmetry_equiv_pos_site_id
 _symmetry_equiv_pos_as_xyz
  1  'x, y, z'
loop_
 _atom_site_type_symbol
 _atom_site_label
 _atom_site_symmetry_multiplicity
 _atom_site_fract_x
 _atom_site_fract_y
 _atom_site_fract_z
 _atom_site_occupancy
 _atom_site_hle17_bader_spin_density
 _atom_site_hle17_ddec_charge
 _atom_site_hle17_ddec_spin_density
 _atom_site_hle17_ddec_sum_bond_order
 _atom_site_hle17_magmom
 _atom_site_hse06_10hf_bader_spin_density
 _atom_site_hse06_10hf_ddec_charge
 _atom_site_hse06_10hf_ddec_spin_density
 _atom_site_hse06_10hf_ddec_sum_bond_order
 _atom_site_hse06_10hf_magmom
 _atom_site_hse06_bader_spin_density
 _atom_site_hse06_ddec_charge
 _atom_site_hse06_ddec_spin_density
 _atom_site_hse06_ddec_sum_bond_order
 _atom_site_hse06_magmom
 _atom_site_pbe_bader_spin_density
 _atom_site_pbe_cm5_charge
 _atom_site_pbe_ddec_charge
 _atom_site_pbe_ddec_spin_density
 _atom_site_pbe_ddec_sum_bond_order
 _atom_site_pbe_magmom
Zn  Zn0  1  0.41812313  0.18839021  0.92835718  1  0  1.02033  0  1.862331  0  0  0.838041  0  2.317114  0  0  0.884057  0  2.265623  0  0  0.689862  0.805961  0  2.352367  0
Zn  Zn1  1  0.58187628  0.81161003  0.07164391  1  0  1.020361  0  1.862293  0  0  0.838065  0  2.317072  0  0  0.884077  0  2.265582  0  0  0.689859  0.805986  0  2.352324  0
H  H2  1  0.43322174  0.03993085  0.76660092  1  0  0.420726  0  0.886124  0  0  0.390329  0  0.949898  0  0  0.401268  0  0.93419  0  0  0.284836  0.382616  0  0.960945  0
H  H3  1  0.56678016  0.96006939  0.23340006  1  0  0.420705  0  0.886153  0  0  0.390307  0  0.949928  0  0  0.401247  0  0.934219  0  0  0.28482  0.382597  0  0.960973  0
H  H4  1  0.43005480  0.17870551  0.71125273  1  0  0.405469  0  0.9029  0  0  0.374661  0  0.969474  0  0  0.38605  0  0.953064  0  0  0.281676  0.366623  0  0.981014  0
H  H5  1  0.56994216  0.82129472  0.28874935  1  0  0.405501  0  0.902847  0  0  0.374714  0  0.96939  0  0  0.386104  0  0.952978  0  0  0.281707  0.366676  0  0.980934  0
H  H6  1  0.17472480  0.43194683  0.83288775  1  0  0.090559  0  0.949544  0  0  0.097743  0  1.012225  0  0  0.100311  0  1.009937  0  0  0.118873  0.095795  0  1.014024  0
H  H7  1  0.82527535  0.56805525  0.16711572  1  0  0.090569  0  0.94952  0  0  0.097721  0  1.012227  0  0  0.100322  0  1.009904  0  0  0.11887  0.095772  0  1.014025  0
H  H8  1  0.86282809  0.52563561  0.83921193  1  0  0.10997  0  0.95011  0  0  0.120425  0  1.007286  0  0  0.12249  0  1.008509  0  0  0.109205  0.118929  0  1.006582  0
H  H9  1  0.13717162  0.47436371  0.16079014  1  0  0.10994  0  0.950021  0  0  0.120396  0  1.007218  0  0  0.12246  0  1.008442  0  0  0.109182  0.118895  0  1.00651  0
H  H10  1  0.67000994  0.41000381  0.96500648  1  0  0.111025  0  0.944076  0  0  0.121563  0  1.002985  0  0  0.12477  0  1.000045  0  0  0.113416  0.119131  0  1.005296  0
H  H11  1  0.32998973  0.58999551  0.03499295  1  0  0.111032  0  0.944057  0  0  0.121563  0  1.002971  0  0  0.12477  0  1.00003  0  0  0.113424  0.119131  0  1.005283  0
H  H12  1  0.79643463  0.21187883  0.07961132  1  0  0.125596  0  0.94814  0  0  0.132212  0  1.010468  0  0  0.135572  0  1.009823  0  0  0.110962  0.129803  0  1.011036  0
H  H13  1  0.20356353  0.78812141  0.92038896  1  0  0.125615  0  0.948105  0  0  0.132232  0  1.010427  0  0  0.135593  0  1.009783  0  0  0.110969  0.129825  0  1.010997  0
H  H14  1  0.23743422  0.85220608  0.25508755  1  0  0.120719  0  0.929421  0  0  0.130116  0  0.98867  0  0  0.132749  0  0.98598  0  0  0.151884  0.128133  0  0.990681  0
H  H15  1  0.76256557  0.14779692  0.74491144  1  0  0.120684  0  0.929429  0  0  0.130081  0  0.988681  0  0  0.132714  0  0.985991  0  0  0.151865  0.128098  0  0.990692  0
H  H16  1  0.85717954  0.32065455  0.39094232  1  0  0.075651  0  0.965415  0  0  0.081711  0  1.03218  0  0  0.084205  0  1.029862  0  0  0.108885  0.079855  0  1.033968  0
H  H17  1  0.14282139  0.67934477  0.60905794  1  0  0.075645  0  0.965409  0  0  0.081712  0  1.032164  0  0  0.084205  0  1.029847  0  0  0.108883  0.079861  0  1.033949  0
H  H18  1  0.68245059  0.19075226  0.51228103  1  0  0.11847  0  0.974151  0  0  0.127126  0  1.034838  0  0  0.130874  0  1.033173  0  0  0.105163  0.124381  0  1.036237  0
H  H19  1  0.31755088  0.80924523  0.48771855  1  0  0.118522  0  0.974089  0  0  0.127114  0  1.034848  0  0  0.130857  0  1.033188  0  0  0.105136  0.12437  0  1.036247  0
H  H20  1  0.71002098  0.97214217  0.46781890  1  0  0.100297  0  0.923891  0  0  0.115344  0  0.974915  0  0  0.11783  0  0.97291  0  0  0.114375  0.113454  0  0.97652  0
H  H21  1  0.28998239  0.02785716  0.53217950  1  0  0.10027  0  0.923886  0  0  0.115312  0  0.974922  0  0  0.117798  0  0.972916  0  0  0.11435  0.113421  0  0.976527  0
H  H22  1  0.90523193  0.89607822  0.30352439  1  0  0.13852  0  0.951275  0  0  0.144189  0  1.014885  0  0  0.148562  0  1.0117  0  0  0.112324  0.14106  0  1.017232  0
H  H23  1  0.09477144  0.10392111  0.69647401  1  0  0.138543  0  0.951286  0  0  0.144202  0  1.014902  0  0  0.148575  0  1.011718  0  0  0.112334  0.14107  0  1.017252  0
H  H24  1  0.53453558  0.42942463  0.15712365  1  0  0.109773  0  0.947911  0  0  0.117251  0  1.01524  0  0  0.121339  0  1.011363  0  0  0.110391  0.114147  0  1.018152  0
H  H25  1  0.46546171  0.57057837  0.84287458  1  0  0.109673  0  0.947905  0  0  0.117158  0  1.015247  0  0  0.121246  0  1.011369  0  0  0.110352  0.11405  0  1.018166  0
H  H26  1  0.29809897  0.57912302  0.46892013  1  0  0.118942  0  0.956233  0  0  0.122455  0  1.028517  0  0  0.126707  0  1.024499  0  0  0.114625  0.119394  0  1.031403  0
H  H27  1  0.70189422  0.42087721  0.53107948  1  0  0.118848  0  0.956324  0  0  0.122429  0  1.02854  0  0  0.12668  0  1.024524  0  0  0.114584  0.119365  0  1.031425  0
H  H28  1  0.26602390  0.21470861  0.40264844  1  0  0.12204  0  0.956569  0  0  0.122189  0  1.032151  0  0  0.127127  0  1.027005  0  0  0.113707  0.118614  0  1.035846  0
H  H29  1  0.73397973  0.78528980  0.59734918  1  0  0.121924  0  0.956695  0  0  0.122143  0  1.032206  0  0  0.127079  0  1.027063  0  0  0.113701  0.118571  0  1.035895  0
C  C30  1  0.05340640  0.21889426  0.01785495  1  0  0.157201  0  3.793626  0  0  0.154084  0  4.040562  0  0  0.15888  0  4.05968  0  0  0.123277  0.150764  0  4.027742  0
C  C31  1  0.94659370  0.78110781  0.98214590  1  0  0.157231  0  3.793599  0  0  0.154144  0  4.040541  0  0  0.158941  0  4.05966  0  0  0.123276  0.150823  0  4.027723  0
C  C32  1  0.08675352  0.38695492  0.88690825  1  0  0.149816  0  3.683605  0  0  0.114611  0  3.938968  0  0  0.121978  0  3.955023  0  0  0.055406  0.109778  0  3.92815  0
C  C33  1  0.91324539  0.61304716  0.11309527  1  0  0.149674  0  3.683617  0  0  0.114502  0  3.938991  0  0  0.121842  0  3.955038  0  0  0.055338  0.109669  0  3.928168  0
C  C34  1  0.91294613  0.43822758  0.89113415  1  0  -0.103571  0  3.705617  0  0  -0.118405  0  3.95884  0  0  -0.124759  0  3.981035  0  0  -0.075737  -0.114325  0  3.943939  0
C  C35  1  0.08705301  0.56177358  0.10886684  1  0  -0.103496  0  3.705408  0  0  -0.118346  0  3.958633  0  0  -0.124701  0  3.980841  0  0  -0.075724  -0.114257  0  3.943722  0
C  C36  1  0.80719763  0.37534192  0.96177646  1  0  0.002217  0  3.689409  0  0  -0.016294  0  3.941332  0  0  -0.014096  0  3.960257  0  0  -0.061523  -0.017549  0  3.928498  0
C  C37  1  0.19280300  0.62465832  0.03822283  1  0  0.002272  0  3.689273  0  0  -0.01622  0  3.941199  0  0  -0.014019  0  3.960117  0  0  -0.06147  -0.017475  0  3.928363  0
C  C38  1  0.87796189  0.26358389  0.02651218  1  0  -0.12482  0  3.687784  0  0  -0.151876  0  3.946282  0  0  -0.157164  0  3.966162  0  0  -0.0782  -0.14846  0  3.933031  0
C  C39  1  0.12203600  0.73641726  0.97348887  1  0  -0.124908  0  3.687771  0  0  -0.151973  0  3.946266  0  0  -0.157262  0  3.966147  0  0  -0.078243  -0.148557  0  3.93302  0
C  C40  1  0.14308926  0.09905034  0.07270172  1  0  0.255944  0  3.700798  0  0  0.217917  0  3.973688  0  0  0.231854  0  3.985125  0  0  0.23983  0.208683  0  3.965901  0
C  C41  1  0.85691108  0.90095082  0.92729746  1  0  0.256028  0  3.700773  0  0  0.217937  0  3.973755  0  0  0.231871  0  3.985193  0  0  0.239848  0.208704  0  3.965967  0
C  C42  1  0.22631330  0.92451957  0.18175299  1  0  0.198164  0  3.581652  0  0  0.132314  0  3.852161  0  0  0.146361  0  3.862206  0  0  0.177034  0.123141  0  3.845286  0
C  C43  1  0.77368774  0.07548343  0.81824682  1  0  0.198135  0  3.581624  0  0  0.132302  0  3.852163  0  0  0.146351  0  3.862204  0  0  0.177011  0.12313  0  3.845285  0
C  C44  1  0.98417179  0.06985826  0.26690425  1  0  0.320692  0  3.792113  0  0  0.301415  0  4.052831  0  0  0.312434  0  4.071327  0  0  0.214837  0.294027  0  4.04032  0
C  C45  1  0.01582860  0.93014290  0.73309756  1  0  0.32065  0  3.792189  0  0  0.301389  0  4.052897  0  0  0.312408  0  4.071395  0  0  0.214823  0.294003  0  4.040385  0
C  C46  1  0.86550569  0.22560780  0.37544906  1  0  0.132515  0  3.723435  0  0  0.109839  0  3.981249  0  0  0.114743  0  4.000107  0  0  0.044946  0.106747  0  3.968333  0
C  C47  1  0.13449774  0.77439152  0.62455284  1  0  0.132527  0  3.723415  0  0  0.109847  0  3.98121  0  0  0.114752  0  4.000069  0  0  0.044959  0.106756  0  3.968298  0
C  C48  1  0.76919040  0.15230082  0.44327758  1  0  -0.130275  0  3.716951  0  0  -0.144684  0  3.966576  0  0  -0.152466  0  3.990095  0  0  -0.08615  -0.139612  0  3.950732  0
C  C49  1  0.23081175  0.84769851  0.55672175  1  0  -0.130333  0  3.716952  0  0  -0.144684  0  3.966574  0  0  -0.152463  0  3.990093  0  0  -0.086139  -0.139614  0  3.950733  0
C  C50  1  0.78505594  0.03179040  0.41875255  1  0  0.024422  0  3.706649  0  0  0.005646  0  3.956277  0  0  0.00888  0  3.975458  0  0  -0.06144  0.003774  0  3.943167  0
C  C51  1  0.21494439  0.96821076  0.58124576  1  0  0.024401  0  3.70665  0  0  0.005632  0  3.956252  0  0  0.008867  0  3.97543  0  0  -0.061427  0.003763  0  3.943138  0
C  C52  1  0.89537554  0.98803667  0.32778241  1  0  -0.182147  0  3.694136  0  0  -0.202535  0  3.945786  0  0  -0.209621  0  3.965395  0  0  -0.081169  -0.197929  0  3.932687  0
C  C53  1  0.10462757  0.01196357  0.67221677  1  0  -0.182117  0  3.694112  0  0  -0.202478  0  3.945727  0  0  -0.209563  0  3.965333  0  0  -0.081157  -0.19787  0  3.932624  0
C  C54  1  0.40906463  0.30966131  0.27347267  1  0  -0.057131  0  3.731741  0  0  -0.030739  0  3.968723  0  0  -0.040221  0  3.990663  0  0  -0.011593  -0.024891  0  3.954013  0
C  C55  1  0.59093158  0.69033709  0.72652615  1  0  -0.057105  0  3.731613  0  0  -0.030695  0  3.968599  0  0  -0.040177  0  3.990542  0  0  -0.011578  -0.024846  0  3.953893  0
C  C56  1  0.46325942  0.41894610  0.23982008  1  0  -0.040981  0  3.661652  0  0  -0.083842  0  3.91308  0  0  -0.078933  0  3.929554  0  0  -0.062171  -0.086459  0  3.901795  0
C  C57  1  0.53673813  0.58105598  0.76017736  1  0  -0.040889  0  3.661659  0  0  -0.083776  0  3.913092  0  0  -0.078866  0  3.929565  0  0  -0.062153  -0.08639  0  3.901814  0
C  C58  1  0.42525254  0.51583700  0.31007410  1  0  -0.062195  0  3.744419  0  0  -0.035143  0  3.982084  0  0  -0.045848  0  4.006125  0  0  -0.013559  -0.028479  0  3.965929  0
C  C59  1  0.57474220  0.48416232  0.68992731  1  0  -0.062229  0  3.74454  0  0  -0.035154  0  3.982203  0  0  -0.045858  0  4.006243  0  0  -0.013573  -0.028488  0  3.966046  0
C  C60  1  0.32939083  0.50418996  0.41435304  1  0  -0.075102  0  3.679882  0  0  -0.118719  0  3.94128  0  0  -0.114183  0  3.957257  0  0  -0.065772  -0.121264  0  3.930399  0
C  C61  1  0.67059960  0.49581119  0.58564658  1  0  -0.074999  0  3.679961  0  0  -0.118697  0  3.941362  0  0  -0.11416  0  3.957336  0  0  -0.065739  -0.121237  0  3.930474  0
C  C62  1  0.27210083  0.39622965  0.44490307  1  0  0.067573  0  3.709545  0  0  0.062147  0  3.972137  0  0  0.057465  0  3.993944  0  0  0.076923  0.064833  0  3.957463  0
C  C63  1  0.72789664  0.60376875  0.55509658  1  0  0.067585  0  3.709436  0  0  0.062162  0  3.972062  0  0  0.05748  0  3.99387  0  0  0.076926  0.064847  0  3.957389  0
C  C64  1  0.31183546  0.29815106  0.37721883  1  0  -0.07313  0  3.6666  0  0  -0.114103  0  3.926163  0  0  -0.108959  0  3.939767  0  0  -0.062357  -0.117027  0  3.916875  0
C  C65  1  0.68816389  0.70184918  0.62277875  1  0  -0.072998  0  3.666508  0  0  -0.114038  0  3.926056  0  0  -0.108896  0  3.939664  0  0  -0.062318  -0.116961  0  3.916772  0
C  C66  1  0.44784146  0.20553826  0.19695993  1  0  0.658927  0  3.910443  0  0  0.606365  0  4.210555  0  0  0.640737  0  4.202501  0  0  0.206709  0.583089  0  4.21523  0
C  C67  1  0.55216011  0.79446290  0.80303833  1  0  0.658914  0  3.910402  0  0  0.606343  0  4.210533  0  0  0.640715  0  4.202482  0  0  0.206754  0.583066  0  4.215207  0
C  C68  1  0.47753839  0.63528748  0.27106279  1  0  0.644435  0  3.905502  0  0  0.590395  0  4.203851  0  0  0.624284  0  4.197712  0  0  0.20791  0.567556  0  4.207135  0
C  C69  1  0.52245853  0.36471275  0.72893753  1  0  0.644362  0  3.905744  0  0  0.590319  0  4.204087  0  0  0.624209  0  4.197944  0  0  0.207879  0.567479  0  4.207372  0
N  N70  1  0.15578219  0.27974218  0.94866115  1  0  -0.331369  0  3.247938  0  0  -0.256041  0  3.499328  0  0  -0.273663  0  3.516261  0  0  -0.31072  -0.244076  0  3.487779  0
N  N71  1  0.84421667  0.72025990  0.05133975  1  0  -0.331303  0  3.247941  0  0  -0.25596  0  3.499276  0  0  -0.273585  0  3.516224  0  0  -0.310654  -0.243996  0  3.487726  0
N  N72  1  0.28331903  0.03751928  0.02295553  1  0  -0.256648  0  3.026803  0  0  -0.220794  0  3.312676  0  0  -0.231364  0  3.323474  0  0  -0.210339  -0.213753  0  3.305562  0
N  N73  1  0.71668257  0.96248188  0.97704448  1  0  -0.256757  0  3.026848  0  0  -0.22086  0  3.312745  0  0  -0.23143  0  3.323544  0  0  -0.21035  -0.213817  0  3.305625  0
N  N74  1  0.33448855  0.92820046  0.09148786  1  0  -0.226782  0  3.200461  0  0  -0.166138  0  3.495554  0  0  -0.179952  0  3.507843  0  0  -0.218714  -0.156956  0  3.487357  0
N  N75  1  0.66550991  0.07179885  0.90851339  1  0  -0.226632  0  3.200353  0  0  -0.166029  0  3.495488  0  0  -0.179842  0  3.507778  0  0  -0.218682  -0.156846  0  3.487288  0
N  N76  1  0.10313256  0.03036715  0.17376820  1  0  -0.159968  0  3.490702  0  0  -0.079884  0  3.716955  0  0  -0.096608  0  3.736711  0  0  -0.199828  -0.068859  0  3.703422  0
N  N77  1  0.89686780  0.96963401  0.82623187  1  0  -0.159991  0  3.490823  0  0  -0.079933  0  3.717134  0  0  -0.096656  0  3.736889  0  0  -0.199831  -0.06891  0  3.703602  0
N  N78  1  0.97318146  0.18534896  0.28824346  1  0  -0.367228  0  3.069332  0  0  -0.335807  0  3.335063  0  0  -0.3482  0  3.35086  0  0  -0.318139  -0.3273  0  3.324177  0
N  N79  1  0.02682264  0.81465220  0.71175731  1  0  -0.36718  0  3.069313  0  0  -0.335758  0  3.335038  0  0  -0.348151  0  3.350836  0  0  -0.318112  -0.327253  0  3.324155  0
N  N80  1  0.16335238  0.38668939  0.55074501  1  0  0.510422  0  3.890362  0  0  0.533495  0  4.195106  0  0  0.554958  0  4.203484  0  0  0.056899  0.519122  0  4.189536  0
N  N81  1  0.83664883  0.61330902  0.44925535  1  0  0.510512  0  3.890561  0  0  0.533563  0  4.19532  0  0  0.555026  0  4.203704  0  0  0.056932  0.51919  0  4.189748  0
O  O82  1  0.48279025  0.23621876  0.08813128  1  0  -0.655447  0  2.053518  0  0  -0.592468  0  2.326608  0  0  -0.620164  0  2.313408  0  0  -0.330607  -0.572899  0  2.334843  0
O  O83  1  0.51721105  0.76378333  0.91186775  1  0  -0.655464  0  2.053443  0  0  -0.592505  0  2.326552  0  0  -0.620196  0  2.313345  0  0  -0.330649  -0.572935  0  2.334786  0
O  O84  1  0.44092540  0.10000158  0.24565891  1  0  -0.624882  0  1.972403  0  0  -0.577059  0  2.197353  0  0  -0.60096  0  2.189395  0  0  -0.322779  -0.560362  0  2.202325  0
O  O85  1  0.55907615  0.89999958  0.75433847  1  0  -0.624871  0  1.972448  0  0  -0.577044  0  2.197397  0  0  -0.600946  0  2.189441  0  0  -0.322789  -0.560346  0  2.202368  0
O  O86  1  0.52727787  0.65073919  0.16314021  1  0  -0.633322  0  2.057893  0  0  -0.564977  0  2.320342  0  0  -0.592169  0  2.30816  0  0  -0.316308  -0.545895  0  2.327906  0
O  O87  1  0.47272250  0.34926197  0.83686073  1  0  -0.633269  0  2.058116  0  0  -0.564928  0  2.32054  0  0  -0.592115  0  2.308352  0  0  -0.31628  -0.545843  0  2.328103  0
O  O88  1  0.46518964  0.71217321  0.34550481  1  0  -0.632465  0  1.973364  0  0  -0.578218  0  2.192997  0  0  -0.603015  0  2.184905  0  0  -0.320154  -0.560883  0  2.197991  0
O  O89  1  0.53480637  0.28782611  0.65449829  1  0  -0.632462  0  1.973436  0  0  -0.578186  0  2.193044  0  0  -0.602989  0  2.184965  0  0  -0.32015  -0.56085  0  2.198036  0
O  O90  1  0.13624747  0.47266384  0.61350645  1  0  -0.380823  0  1.764356  0  0  -0.359777  0  1.979174  0  0  -0.37358  0  1.976796  0  0  -0.130882  -0.350581  0  1.980957  0
O  O91  1  0.86375302  0.52732904  0.38649899  1  0  -0.380859  0  1.764462  0  0  -0.359775  0  1.979255  0  0  -0.37358  0  1.976885  0  0  -0.130878  -0.350576  0  1.981033  0
O  O92  1  0.10180926  0.29445071  0.57220437  1  0  -0.358439  0  1.755675  0  0  -0.338379  0  1.969201  0  0  -0.349619  0  1.9654  0  0  -0.122186  -0.330853  0  1.97188  0
O  O93  1  0.89819703  0.70554310  0.42779457  1  0  -0.358485  0  1.755791  0  0  -0.338424  0  1.969334  0  0  -0.349654  0  1.965515  0  0  -0.122214  -0.330899  0  1.972015  0
O  O94  1  0.36741189  0.12671610  0.76645396  1  0  -0.833726  0  1.952316  0  0  -0.777753  0  2.155841  0  0  -0.801001  0  2.123985  0  0  -0.583644  -0.761064  0  2.177741  0
O  O95  1  0.63258755  0.87328414  0.23354801  1  0  -0.833743  0  1.95232  0  0  -0.777774  0  2.15583  0  0  -0.801018  0  2.123959  0  0  -0.583656  -0.761086  0  2.177725  0
