# generated using pymatgen
data_Zn2H10C15O8
_symmetry_space_group_name_H-M   'P 1'
_cell_length_a   6.63852871
_cell_length_b   19.61554968
_cell_length_c   28.33425099
_cell_angle_alpha   90.00075712
_cell_angle_beta   89.99956279
_cell_angle_gamma   90.00013761
_symmetry_Int_Tables_number   1
_chemical_formula_structural   Zn2H10C15O8
_chemical_formula_sum   'Zn16 H80 C120 O64'
_cell_volume   3689.64053503
_cell_formula_units_Z   8
loop_
 _symmetry_equiv_pos_site_id
 _symmetry_equiv_pos_as_xyz
  1  'x, y, z'
loop_
 _atom_site_type_symbol
 _atom_site_label
 _atom_site_symmetry_multiplicity
 _atom_site_fract_x
 _atom_site_fract_y
 _atom_site_fract_z
 _atom_site_occupancy
 _atom_site_pbe_bader_charge
 _atom_site_pbe_bader_spin_density
 _atom_site_pbe_cm5_charge
 _atom_site_pbe_ddec_charge
 _atom_site_pbe_ddec_spin_density
 _atom_site_pbe_ddec_sum_bond_order
 _atom_site_pbe_magmom
Zn  Zn0  1  0.48824128  0.77890251  0.83678509  1  1.333803  0  0.659956  0.99944  0  2.209717  0
Zn  Zn1  1  0.17073708  0.89026379  0.86562165  1  1.31666  0  0.683408  0.964817  0  2.261703  0
Zn  Zn2  1  0.32926476  0.39027191  0.13437703  1  1.31677  0  0.683422  0.964891  0  2.261768  0
Zn  Zn3  1  0.32924746  0.89026622  0.36562206  1  1.316647  0  0.683355  0.964803  0  2.261813  0
Zn  Zn4  1  0.01176156  0.77890569  0.33678605  1  1.333869  0  0.659967  0.999503  0  2.209738  0
Zn  Zn5  1  0.67075207  0.60972688  0.86562276  1  1.316602  0  0.683382  0.964834  0  2.261837  0
Zn  Zn6  1  0.17073479  0.39027509  0.63437415  1  1.316743  0  0.683447  0.964989  0  2.261575  0
Zn  Zn7  1  0.67077238  0.10972900  0.63438055  1  1.316665  0  0.683403  0.964851  0  2.261802  0
Zn  Zn8  1  0.51176674  0.72109667  0.33678818  1  1.333831  0  0.659937  0.999455  0  2.209832  0
Zn  Zn9  1  0.51176651  0.22109525  0.16321293  1  1.333857  0  0.659917  0.999354  0  2.209831  0
Zn  Zn10  1  0.48824104  0.27890722  0.66321408  1  1.333836  0  0.659921  0.999368  0  2.209829  0
Zn  Zn11  1  0.82927523  0.10973245  0.13437955  1  1.316581  0  0.683426  0.964887  0  2.26173  0
Zn  Zn12  1  0.98824044  0.72108992  0.83678616  1  1.33386  0  0.659948  0.999386  0  2.209873  0
Zn  Zn13  1  0.98824773  0.22109514  0.66321867  1  1.333685  0  0.659935  0.999407  0  2.209764  0
Zn  Zn14  1  0.01177187  0.27890479  0.16321186  1  1.333889  0  0.659953  0.999415  0  2.209786  0
Zn  Zn15  1  0.82925642  0.60973186  0.36561964  1  1.316667  0  0.683406  0.964887  0  2.261878  0
H  H16  1  0.20625492  0.27954630  0.60041612  1  0.613061  0  0.307835  0.408887  0  0.882892  0
H  H17  1  0.47723419  0.00539129  0.15447308  1  0.085054  0  0.100637  0.108386  0  1.025975  0
H  H18  1  0.83761412  0.36199452  0.02285948  1  0.114132  0  0.110862  0.119367  0  0.969518  0
H  H19  1  0.02279228  0.00539586  0.65448104  1  0.085317  0  0.100604  0.108274  0  1.025949  0
H  H20  1  0.80383694  0.29286482  0.73380370  1  0.630957  0  0.322956  0.416488  0  0.868  0
H  H21  1  0.02279674  0.50540203  0.84552243  1  0.085067  0  0.100615  0.108289  0  1.025977  0
H  H22  1  0.19616522  0.20713697  0.23379979  1  0.631017  0  0.322975  0.416496  0  0.867993  0
H  H23  1  0.93011653  0.53572306  0.23676527  1  0.1107  0  0.103511  0.109063  0  1.01476  0
H  H24  1  0.66240726  0.36199718  0.52285591  1  0.113972  0  0.110767  0.119218  0  0.969408  0
H  H25  1  0.43015174  0.96428233  0.23676378  1  0.110715  0  0.103466  0.109046  0  1.014753  0
H  H26  1  0.19376594  0.05997979  0.45347636  1  0.081362  0  0.107107  0.112454  0  1.000056  0
H  H27  1  0.32600577  0.89318553  0.54611882  1  0.1042  0  0.107448  0.116103  0  0.994599  0
H  H28  1  0.93014457  0.03572509  0.26323201  1  0.110521  0  0.103452  0.109064  0  1.014681  0
H  H29  1  0.70625973  0.72045315  0.89958531  1  0.613045  0  0.30779  0.408793  0  0.882996  0
H  H30  1  0.30622769  0.55999884  0.54652177  1  0.081575  0  0.107006  0.112352  0  1.000035  0
H  H31  1  0.87101049  0.83894356  0.80937475  1  0.654089  0  0.29141  0.381454  0  0.96742  0
H  H32  1  0.87473405  0.86755990  0.19629214  1  0.08732  0  0.102479  0.102604  0  1.002521  0
H  H33  1  0.30383992  0.70713268  0.76620109  1  0.631049  0  0.322991  0.41649  0  0.86807  0
H  H34  1  0.69615691  0.79286159  0.26619922  1  0.631096  0  0.322964  0.416464  0  0.868048  0
H  H35  1  0.12525911  0.63244119  0.69629047  1  0.087276  0  0.102492  0.102624  0  1.002654  0
H  H36  1  0.19376689  0.55998433  0.04652700  1  0.081178  0  0.107088  0.112445  0  1.000164  0
H  H37  1  0.87472759  0.36755454  0.30370297  1  0.087131  0  0.102483  0.102596  0  1.002631  0
H  H38  1  0.69616033  0.29286305  0.23380116  1  0.630997  0  0.322953  0.416478  0  0.868016  0
H  H39  1  0.82598911  0.60681090  0.54612131  1  0.104261  0  0.107474  0.116081  0  0.994746  0
H  H40  1  0.37470380  0.63244009  0.19629468  1  0.087113  0  0.102567  0.102784  0  1.002438  0
H  H41  1  0.69377708  0.44002136  0.45347061  1  0.08119  0  0.107048  0.112369  0  1.000188  0
H  H42  1  0.37101809  0.66105131  0.80937437  1  0.654146  0  0.291426  0.381511  0  0.967339  0
H  H43  1  0.79374684  0.72045045  0.39958896  1  0.61289  0  0.307818  0.408876  0  0.882897  0
H  H44  1  0.08650158  0.08682227  0.88526530  1  0.085401  0  0.105137  0.110565  0  1.0032  0
H  H45  1  0.52277510  0.99461209  0.84552424  1  0.084653  0  0.100656  0.108393  0  1.026052  0
H  H46  1  0.70627214  0.22045054  0.60041754  1  0.613076  0  0.307802  0.408761  0  0.883075  0
H  H47  1  0.67397792  0.10680459  0.45388697  1  0.104516  0  0.107365  0.115911  0  0.994712  0
H  H48  1  0.80383804  0.79286335  0.76620035  1  0.63104  0  0.322972  0.416504  0  0.867997  0
H  H49  1  0.19615879  0.70714213  0.26619926  1  0.63119  0  0.322965  0.416483  0  0.868002  0
H  H50  1  0.17400006  0.89319190  0.04611279  1  0.104331  0  0.107472  0.116116  0  0.994717  0
H  H51  1  0.66237417  0.86199719  0.97714337  1  0.114026  0  0.110839  0.119327  0  0.969409  0
H  H52  1  0.43014513  0.46427264  0.26323016  1  0.110476  0  0.103451  0.109073  0  1.014697  0
H  H53  1  0.58650969  0.91317197  0.61473917  1  0.085926  0  0.105175  0.110708  0  1.003078  0
H  H54  1  0.79374871  0.22045141  0.10041342  1  0.612965  0  0.307782  0.408825  0  0.882928  0
H  H55  1  0.12528127  0.13244042  0.80371294  1  0.087147  0  0.102469  0.102562  0  1.002587  0
H  H56  1  0.52274352  0.49461918  0.65447967  1  0.084338  0  0.100655  0.108483  0  1.026007  0
H  H57  1  0.16239066  0.63800682  0.97714066  1  0.114138  0  0.110775  0.119243  0  0.969343  0
H  H58  1  0.33760354  0.63801487  0.47713223  1  0.114119  0  0.110808  0.119321  0  0.969412  0
H  H59  1  0.06987619  0.46428949  0.76323064  1  0.110752  0  0.10348  0.109028  0  1.014594  0
H  H60  1  0.91348345  0.41317782  0.38525533  1  0.08618  0  0.105209  0.110713  0  1.003085  0
H  H61  1  0.12900634  0.16105268  0.19062539  1  0.654021  0  0.29142  0.381524  0  0.967315  0
H  H62  1  0.97722154  0.99460598  0.34552227  1  0.085151  0  0.100568  0.108214  0  1.025933  0
H  H63  1  0.37471994  0.13244391  0.30370868  1  0.087165  0  0.102481  0.102558  0  1.002407  0
H  H64  1  0.37103501  0.16105399  0.69062781  1  0.654271  0  0.291498  0.381628  0  0.967163  0
H  H65  1  0.83760814  0.86198892  0.47713776  1  0.114035  0  0.110783  0.119253  0  0.969326  0
H  H66  1  0.62529237  0.86755641  0.69629393  1  0.087167  0  0.102526  0.102656  0  1.002401  0
H  H67  1  0.62899422  0.33894595  0.19062718  1  0.654139  0  0.291424  0.381537  0  0.967294  0
H  H68  1  0.08647162  0.58682862  0.61473670  1  0.085661  0  0.105215  0.110751  0  1.003087  0
H  H69  1  0.80623582  0.94001084  0.54652590  1  0.081394  0  0.107046  0.112387  0  1.000206  0
H  H70  1  0.97718996  0.49460848  0.15447523  1  0.08512  0  0.100603  0.108277  0  1.025952  0
H  H71  1  0.56984759  0.53572921  0.73677209  1  0.110373  0  0.103424  0.109046  0  1.014788  0
H  H72  1  0.20625907  0.77954585  0.89958601  1  0.612979  0  0.307784  0.408801  0  0.882997  0
H  H73  1  0.16241170  0.13800171  0.52286414  1  0.114042  0  0.1107  0.11902  0  0.969163  0
H  H74  1  0.06988129  0.96428237  0.73677201  1  0.110516  0  0.103419  0.108953  0  1.014674  0
H  H75  1  0.12898942  0.66105612  0.30937265  1  0.654169  0  0.291445  0.38162  0  0.967192  0
H  H76  1  0.47721757  0.50539133  0.34552047  1  0.085059  0  0.100599  0.108326  0  1.02597  0
H  H77  1  0.30383732  0.20713414  0.73380127  1  0.630987  0  0.322939  0.416469  0  0.86804  0
H  H78  1  0.32602590  0.39319222  0.95388097  1  0.104405  0  0.107444  0.116109  0  0.994585  0
H  H79  1  0.29375258  0.27955073  0.10041201  1  0.61293  0  0.307773  0.408781  0  0.883022  0
H  H80  1  0.29373414  0.77954927  0.39958825  1  0.612894  0  0.307781  0.408809  0  0.882966  0
H  H81  1  0.58649598  0.41316563  0.88525965  1  0.085592  0  0.105195  0.110731  0  1.00305  0
H  H82  1  0.30624181  0.05998258  0.95346972  1  0.081214  0  0.107042  0.112366  0  1.000152  0
H  H83  1  0.80624994  0.44001140  0.95346890  1  0.081454  0  0.107058  0.112396  0  0.999986  0
H  H84  1  0.17396746  0.39319859  0.45388130  1  0.104579  0  0.107319  0.115921  0  0.994636  0
H  H85  1  0.41345457  0.58681736  0.11474120  1  0.085916  0  0.105145  0.110606  0  1.002975  0
H  H86  1  0.82601978  0.10680689  0.95388276  1  0.104352  0  0.107429  0.116048  0  0.994656  0
H  H87  1  0.87100330  0.33894726  0.69062996  1  0.654155  0  0.291432  0.381549  0  0.967256  0
H  H88  1  0.67396833  0.60679637  0.04611846  1  0.104555  0  0.107423  0.116132  0  0.99481  0
H  H89  1  0.91351223  0.91317091  0.11473731  1  0.085525  0  0.105178  0.110679  0  1.003048  0
H  H90  1  0.33762458  0.13800364  0.02285783  1  0.114209  0  0.110754  0.119253  0  0.969396  0
H  H91  1  0.69377200  0.94001978  0.04653113  1  0.081251  0  0.107034  0.112329  0  1.000132  0
H  H92  1  0.62526331  0.36754952  0.80370370  1  0.087151  0  0.102446  0.102525  0  1.002367  0
H  H93  1  0.56986508  0.03572869  0.76323601  1  0.110574  0  0.103466  0.109101  0  1.014673  0
H  H94  1  0.41349056  0.08682529  0.38526133  1  0.085892  0  0.105174  0.110661  0  1.003085  0
H  H95  1  0.62898784  0.83894684  0.30937374  1  0.654273  0  0.29142  0.381491  0  0.967371  0
C  C96  1  0.50606730  0.60198820  0.18696508  1  -0.064172  0  -0.082742  -0.081793  0  3.982436  0
C  C97  1  0.64966023  0.58659621  0.22168117  1  0.040189  0  -0.025141  -0.058404  0  4.000601  0
C  C98  1  0.72108752  0.39046273  0.61310401  1  1.526587  0  0.235007  0.624523  0  4.120566  0
C  C99  1  0.70648185  0.05272511  0.45847654  1  -0.016586  0  -0.074389  -0.133996  0  3.915998  0
C  C100  1  0.81848538  0.04707854  0.29029305  1  -0.122263  0  -0.083958  -0.081582  0  3.967  0
C  C101  1  0.13080597  0.88720235  0.27073988  1  1.526747  0  0.225532  0.612739  0  4.149908  0
C  C102  1  0.71792862  0.95879384  0.01086094  1  0.019616  0  -0.078667  -0.08902  0  3.963667  0
C  C103  1  0.20647627  0.44727667  0.45847278  1  -0.016191  0  -0.074368  -0.133895  0  3.916201  0
C  C104  1  0.30274676  0.46247064  0.87087859  1  -0.017425  0  -0.000327  0.082107  0  3.987116  0
C  C105  1  0.19976481  0.58436873  0.97225866  1  -0.042697  0  -0.077842  -0.076408  0  3.959054  0
C  C106  1  0.18152542  0.95292688  0.70970921  1  -0.121979  0  -0.083988  -0.08141  0  3.966988  0
C  C107  1  0.36920789  0.38720454  0.72925595  1  1.526898  0  0.225383  0.612412  0  4.150298  0
C  C108  1  0.76434860  0.02773245  0.00417004  1  -0.068419  0  -0.011292  -0.011745  0  3.962687  0
C  C109  1  0.76767032  0.44036596  0.07346650  1  -0.003091  0  -0.010548  -0.079347  0  3.930649  0
C  C110  1  0.73230921  0.44037276  0.57346810  1  -0.002142  0  -0.010609  -0.080311  0  3.930168  0
C  C111  1  0.70647091  0.55273005  0.04152622  1  -0.016598  0  -0.074561  -0.134395  0  3.917046  0
C  C112  1  0.71475789  0.07397388  0.54587827  1  1.556244  0  0.198555  0.563304  0  4.218854  0
C  C113  1  0.77866317  0.00986609  0.91911101  1  0.007486  0  0.00207  0.052843  0  3.964502  0
C  C114  1  0.18151941  0.45293299  0.79029138  1  -0.122793  0  -0.084068  -0.081693  0  3.967187  0
C  C115  1  0.28208218  0.04120597  0.98913708  1  0.019402  0  -0.078745  -0.089129  0  3.963965  0
C  C116  1  0.80273265  0.03752992  0.87087939  1  -0.018228  0  -0.000339  0.081913  0  3.986873  0
C  C117  1  0.29350786  0.94726298  0.54152783  1  -0.016429  0  -0.07459  -0.134291  0  3.916684  0
C  C118  1  0.00611563  0.89801027  0.18696263  1  -0.063707  0  -0.082637  -0.081535  0  3.982398  0
C  C119  1  0.78206697  0.95878590  0.51086281  1  0.019452  0  -0.078714  -0.089211  0  3.963687  0
C  C120  1  0.27889315  0.60953912  0.38689048  1  1.526554  0  0.234924  0.624445  0  4.12087  0
C  C121  1  0.14969812  0.91340407  0.22168204  1  0.039438  0  -0.025261  -0.058437  0  4.000365  0
C  C122  1  0.22110991  0.60953877  0.88689528  1  1.526097  0  0.234948  0.624469  0  4.120644  0
C  C123  1  0.30274644  0.96246757  0.62912153  1  -0.016616  0  -0.000285  0.082232  0  3.98709  0
C  C124  1  0.15702534  0.47633169  0.83617131  1  -0.023538  0  -0.091948  -0.125409  0  3.95502  0
C  C125  1  0.00609078  0.39801019  0.31303391  1  -0.064249  0  -0.082622  -0.081514  0  3.982313  0
C  C126  1  0.72109361  0.89046102  0.88689613  1  1.526738  0  0.235019  0.6245  0  4.120488  0
C  C127  1  0.19977665  0.08436371  0.52774630  1  -0.042262  0  -0.077822  -0.076106  0  3.959088  0
C  C128  1  0.77890089  0.39045798  0.11310415  1  1.526778  0  0.234978  0.624491  0  4.12054  0
C  C129  1  0.69976202  0.41563275  0.52774032  1  -0.042508  0  -0.07776  -0.07637  0  3.959545  0
C  C130  1  0.85032021  0.08659676  0.77832163  1  0.039458  0  -0.025175  -0.058406  0  4.000506  0
C  C131  1  0.23233145  0.55962620  0.92653011  1  -0.002445  0  -0.010642  -0.079636  0  3.930752  0
C  C132  1  0.31849038  0.45292216  0.29029039  1  -0.122454  0  -0.084033  -0.081681  0  3.967256  0
C  C133  1  0.52901283  0.57728135  0.14122949  1  -0.010321  0  -0.085893  -0.122365  0  3.955697  0
C  C134  1  0.77888890  0.89045882  0.38689345  1  1.526198  0  0.234959  0.624502  0  4.120712  0
C  C135  1  0.71475419  0.57397550  0.95412569  1  1.556332  0  0.198827  0.563639  0  4.218676  0
C  C136  1  0.86922592  0.11280255  0.72926344  1  1.52762  0  0.225599  0.612868  0  4.14997  0
C  C137  1  0.26433809  0.97226361  0.49583204  1  -0.068407  0  -0.01135  -0.01188  0  3.962973  0
C  C138  1  0.21793091  0.54120604  0.01086193  1  0.019583  0  -0.078731  -0.089252  0  3.963802  0
C  C139  1  0.20649998  0.94726479  0.04152210  1  -0.016554  0  -0.07454  -0.134255  0  3.916579  0
C  C140  1  0.79350931  0.05273298  0.95847592  1  -0.016592  0  -0.07448  -0.134001  0  3.916524  0
C  C141  1  0.73565556  0.52772739  0.99583399  1  -0.068313  0  -0.011274  -0.011545  0  3.962728  0
C  C142  1  0.23564470  0.47228075  0.50416739  1  -0.068122  0  -0.011306  -0.011666  0  3.962745  0
C  C143  1  0.02907036  0.92271219  0.14122409  1  -0.009314  0  -0.085822  -0.122377  0  3.955697  0
C  C144  1  0.30025460  0.08436816  0.02773934  1  -0.042903  0  -0.077782  -0.076519  0  3.95953  0
C  C145  1  0.21474163  0.42603619  0.54587467  1  1.556612  0  0.198911  0.563601  0  4.219142  0
C  C146  1  0.50610120  0.10198863  0.31303742  1  -0.064518  0  -0.082626  -0.08146  0  3.982152  0
C  C147  1  0.28206324  0.54121951  0.51085639  1  0.019166  0  -0.078641  -0.089023  0  3.963519  0
C  C148  1  0.52904821  0.07728418  0.35877416  1  -0.01011  0  -0.085903  -0.122457  0  3.955884  0
C  C149  1  0.02903945  0.42271808  0.35877052  1  -0.010518  0  -0.085988  -0.122609  0  3.956061  0
C  C150  1  0.77863735  0.50987128  0.58089225  1  0.006165  0  0.002041  0.055593  0  3.960508  0
C  C151  1  0.49390960  0.89800914  0.68696625  1  -0.064596  0  -0.082613  -0.081491  0  3.982303  0
C  C152  1  0.27867745  0.49013231  0.91910552  1  0.006591  0  0.002216  0.053221  0  3.964568  0
C  C153  1  0.27891719  0.10953777  0.11310295  1  1.526552  0  0.235141  0.624774  0  4.120109  0
C  C154  1  0.63079895  0.11280175  0.22926066  1  1.526919  0  0.225432  0.612563  0  4.150566  0
C  C155  1  0.35031441  0.41340564  0.77831261  1  0.040464  0  -0.0251  -0.058254  0  4.000247  0
C  C156  1  0.84296287  0.52367117  0.16382777  1  -0.023683  0  -0.091911  -0.125337  0  3.955154  0
C  C157  1  0.35033358  0.91339924  0.72168626  1  0.039669  0  -0.02513  -0.058445  0  4.000639  0
C  C158  1  0.22134462  0.99012811  0.08088983  1  0.007562  0  0.002235  0.05315  0  3.964871  0
C  C159  1  0.19727513  0.96246581  0.12911863  1  -0.018564  0  -0.000335  0.082  0  3.986936  0
C  C160  1  0.28523333  0.92601624  0.45412328  1  1.557979  0  0.198863  0.563725  0  4.218981  0
C  C161  1  0.23233874  0.05962206  0.57347350  1  -0.002456  0  -0.010619  -0.07963  0  3.931035  0
C  C162  1  0.22131621  0.49013974  0.41910330  1  0.006372  0  0.002002  0.052739  0  3.964762  0
C  C163  1  0.15702536  0.97632623  0.66382953  1  -0.024357  0  -0.091892  -0.125483  0  3.955011  0
C  C164  1  0.73231397  0.94037028  0.92653389  1  -0.002952  0  -0.010546  -0.079254  0  3.930732  0
C  C165  1  0.34298457  0.47632547  0.33616923  1  -0.023939  0  -0.091896  -0.125476  0  3.955003  0
C  C166  1  0.79348482  0.55273793  0.54152595  1  -0.016066  0  -0.074623  -0.13509  0  3.915903  0
C  C167  1  0.72132301  0.00986639  0.41910667  1  0.006983  0  0.002154  0.053107  0  3.964602  0
C  C168  1  0.14968046  0.41340128  0.27831404  1  0.040093  0  -0.025066  -0.058224  0  4.000336  0
C  C169  1  0.47094223  0.42271183  0.85877242  1  -0.009644  0  -0.085884  -0.12257  0  3.956028  0
C  C170  1  0.64967873  0.08660210  0.27831564  1  0.040458  0  -0.025142  -0.058426  0  4.000579  0
C  C171  1  0.76432542  0.52773741  0.49583134  1  -0.067572  0  -0.011248  -0.011764  0  3.963038  0
C  C172  1  0.69975470  0.91563012  0.97225868  1  -0.041952  0  -0.077899  -0.076592  0  3.959585  0
C  C173  1  0.26766393  0.55963419  0.42652675  1  -0.003265  0  -0.010387  -0.079239  0  3.931021  0
C  C174  1  0.47095356  0.92271206  0.64122810  1  -0.010046  0  -0.085939  -0.122645  0  3.956002  0
C  C175  1  0.31850844  0.95292675  0.20970364  1  -0.122359  0  -0.083995  -0.081717  0  3.967262  0
C  C176  1  0.69723090  0.53752509  0.12912332  1  -0.017886  0  -0.000329  0.082007  0  3.986912  0
C  C177  1  0.68149330  0.54707969  0.70970798  1  -0.122125  0  -0.083992  -0.081696  0  3.967134  0
C  C178  1  0.69725081  0.03752867  0.37088144  1  -0.017907  0  -0.000377  0.081994  0  3.98728  0
C  C179  1  0.29351578  0.44726823  0.95847463  1  -0.016434  0  -0.074502  -0.134256  0  3.916253  0
C  C180  1  0.99390873  0.10198903  0.81304104  1  -0.063479  0  -0.082625  -0.081511  0  3.982591  0
C  C181  1  0.80271124  0.53753603  0.62912374  1  -0.017988  0  -0.000218  0.081513  0  3.986103  0
C  C182  1  0.19724232  0.46247091  0.37087499  1  -0.016801  0  -0.000195  0.08233  0  3.98702  0
C  C183  1  0.26769231  0.05962443  0.07346660  1  -0.00236  0  -0.010704  -0.079493  0  3.930789  0
C  C184  1  0.86922385  0.61279658  0.77074344  1  1.526764  0  0.225458  0.612509  0  4.149729  0
C  C185  1  0.85031528  0.58659598  0.72168257  1  0.0397  0  -0.025157  -0.058273  0  4.000024  0
C  C186  1  0.65700512  0.02367419  0.83617446  1  -0.023387  0  -0.091953  -0.125415  0  3.955233  0
C  C187  1  0.21793178  0.04120371  0.48914263  1  0.019288  0  -0.078669  -0.089137  0  3.963896  0
C  C188  1  0.34300719  0.97632664  0.16382356  1  -0.023766  0  -0.091958  -0.125408  0  3.955062  0
C  C189  1  0.71792497  0.45879814  0.48913916  1  0.01925  0  -0.078707  -0.089103  0  3.963844  0
C  C190  1  0.23566521  0.97226888  0.99582728  1  -0.067976  0  -0.011216  -0.011598  0  3.962431  0
C  C191  1  0.22111587  0.10953284  0.61310986  1  1.525888  0  0.234944  0.624477  0  4.120926  0
C  C192  1  0.73565614  0.02772243  0.50417304  1  -0.068096  0  -0.01129  -0.011544  0  3.962259  0
C  C193  1  0.78207688  0.45878765  0.98914103  1  0.019403  0  -0.078671  -0.089117  0  3.963439  0
C  C194  1  0.81847030  0.54707344  0.20970700  1  -0.122516  0  -0.084072  -0.08161  0  3.967413  0
C  C195  1  0.28525058  0.42602380  0.04587410  1  1.556736  0  0.198882  0.563806  0  4.219215  0
C  C196  1  0.72130924  0.50986342  0.08088756  1  0.007023  0  0.002219  0.053142  0  3.9643  0
C  C197  1  0.49388927  0.39800957  0.81303471  1  -0.064318  0  -0.08261  -0.081421  0  3.982075  0
C  C198  1  0.63077881  0.61280241  0.27074172  1  1.527474  0  0.225407  0.612604  0  4.150238  0
C  C199  1  0.13078092  0.38719609  0.22925635  1  1.527422  0  0.225385  0.612456  0  4.150144  0
C  C200  1  0.97092465  0.57728938  0.64122750  1  -0.009407  0  -0.085879  -0.122566  0  3.956085  0
C  C201  1  0.78526835  0.07398086  0.04587594  1  1.556593  0  0.198882  0.563753  0  4.218843  0
C  C202  1  0.84297490  0.02367510  0.33617449  1  -0.023595  0  -0.091899  -0.125364  0  3.954857  0
C  C203  1  0.21476052  0.92602251  0.95411891  1  1.55659  0  0.198525  0.563374  0  4.219053  0
C  C204  1  0.99389592  0.60199165  0.68696270  1  -0.063843  0  -0.082632  -0.081549  0  3.982539  0
C  C205  1  0.36921487  0.88719704  0.77073983  1  1.527318  0  0.225452  0.612647  0  4.150557  0
C  C206  1  0.78524206  0.57398809  0.45412829  1  1.557535  0  0.198939  0.563849  0  4.219096  0
C  C207  1  0.26434922  0.47226936  0.00416968  1  -0.068243  0  -0.011298  -0.011585  0  3.962695  0
C  C208  1  0.80024147  0.41562394  0.02774325  1  -0.042076  0  -0.077927  -0.076603  0  3.95977  0
C  C209  1  0.65697802  0.52367893  0.66382844  1  -0.023195  0  -0.092027  -0.125736  0  3.955367  0
C  C210  1  0.76766453  0.94037061  0.42653194  1  -0.003323  0  -0.010571  -0.079501  0  3.930812  0
C  C211  1  0.30022769  0.58437929  0.47225276  1  -0.041961  0  -0.077942  -0.076591  0  3.959633  0
C  C212  1  0.27867574  0.99012628  0.58089523  1  0.006809  0  0.002258  0.053277  0  3.964814  0
C  C213  1  0.97095400  0.07728456  0.85877676  1  -0.009662  0  -0.085856  -0.122265  0  3.95585  0
C  C214  1  0.80022812  0.91562743  0.47225843  1  -0.041781  0  -0.077757  -0.076291  0  3.959351  0
C  C215  1  0.68150537  0.04707714  0.79029544  1  -0.122196  0  -0.084064  -0.081759  0  3.967214  0
O  O216  1  0.73428019  0.54362572  0.91330603  1  -1.15153  0  -0.332701  -0.578618  0  2.348556  0
O  O217  1  0.50594778  0.16138298  0.22135431  1  -1.188238  0  -0.324013  -0.587557  0  2.344579  0
O  O218  1  0.20040144  0.78581147  0.86525516  1  -1.207821  0  -0.551479  -0.855475  0  2.257032  0
O  O219  1  0.36443779  0.11280304  0.64360288  1  -1.179142  0  -0.308146  -0.571542  0  2.406801  0
O  O220  1  0.58620449  0.80007898  0.28848263  1  -1.247661  0  -0.570389  -0.750626  0  2.108837  0
O  O221  1  0.17732056  0.36375850  0.54152950  1  -1.181224  0  -0.334332  -0.564655  0  2.087322  0
O  O222  1  0.63559000  0.38719141  0.14360269  1  -1.179525  0  -0.308069  -0.571426  0  2.40671  0
O  O223  1  0.41380214  0.69991519  0.78848142  1  -1.247505  0  -0.570439  -0.750683  0  2.108896  0
O  O224  1  0.82266698  0.13625439  0.04153127  1  -1.181802  0  -0.334297  -0.564656  0  2.087542  0
O  O225  1  0.91379243  0.30008341  0.71152177  1  -1.247332  0  -0.570376  -0.750652  0  2.108705  0
O  O226  1  0.70040507  0.71418280  0.86525510  1  -1.207849  0  -0.551465  -0.855494  0  2.257154  0
O  O227  1  0.13560482  0.11280378  0.14360045  1  -1.179184  0  -0.308196  -0.571687  0  2.406567  0
O  O228  1  0.70041483  0.21418492  0.63474805  1  -1.20782  0  -0.551458  -0.855364  0  2.257008  0
O  O229  1  0.32266537  0.36374767  0.04153098  1  -1.181778  0  -0.334248  -0.56463  0  2.087629  0
O  O230  1  0.24381402  0.91491490  0.30172996  1  -1.181308  0  -0.314773  -0.547531  0  2.363754  0
O  O231  1  0.74380484  0.08509084  0.19827003  1  -1.18131  0  -0.314751  -0.54746  0  2.363929  0
O  O232  1  0.91379278  0.80007830  0.78848286  1  -1.24748  0  -0.570392  -0.750624  0  2.108785  0
O  O233  1  0.74379269  0.58508750  0.30173085  1  -1.181385  0  -0.314759  -0.54756  0  2.363927  0
O  O234  1  0.26574417  0.45636593  0.08669022  1  -1.151934  0  -0.332651  -0.578619  0  2.34928  0
O  O235  1  0.58620112  0.30008104  0.21151872  1  -1.247431  0  -0.570358  -0.750645  0  2.108729  0
O  O236  1  0.13558331  0.61280760  0.35639291  1  -1.179716  0  -0.308084  -0.571498  0  2.406896  0
O  O237  1  0.17736190  0.86374745  0.95846287  1  -1.181707  0  -0.334125  -0.564507  0  2.087703  0
O  O238  1  0.06756087  0.14800175  0.61445342  1  -1.188312  0  -0.305442  -0.569143  0  2.384667  0
O  O239  1  0.86440189  0.38719323  0.64359947  1  -1.179326  0  -0.308128  -0.571545  0  2.406674  0
O  O240  1  0.08621651  0.19991845  0.21151587  1  -1.247336  0  -0.570425  -0.750682  0  2.10886  0
O  O241  1  0.67733187  0.63624755  0.95846987  1  -1.181585  0  -0.334132  -0.564454  0  2.087651  0
O  O242  1  0.75622540  0.08508797  0.69827194  1  -1.18174  0  -0.314875  -0.547646  0  2.363984  0
O  O243  1  0.93244240  0.85198786  0.38555483  1  -1.188311  0  -0.305539  -0.56927  0  2.3845  0
O  O244  1  0.41380179  0.19992235  0.71151998  1  -1.247593  0  -0.570436  -0.750735  0  2.108691  0
O  O245  1  0.29960422  0.28581497  0.13474257  1  -1.207811  0  -0.551478  -0.855518  0  2.257116  0
O  O246  1  0.67736133  0.13624789  0.54153614  1  -1.181442  0  -0.33404  -0.564359  0  2.087536  0
O  O247  1  0.63557602  0.88719218  0.35639761  1  -1.179071  0  -0.308004  -0.571384  0  2.407066  0
O  O248  1  0.79960484  0.21418528  0.13474392  1  -1.207896  0  -0.551479  -0.855524  0  2.257071  0
O  O249  1  0.93244531  0.35198603  0.11444145  1  -1.188444  0  -0.305571  -0.569285  0  2.384499  0
O  O250  1  0.99407917  0.16138695  0.72136004  1  -1.188528  0  -0.323965  -0.587677  0  2.344482  0
O  O251  1  0.06756248  0.64800970  0.88555763  1  -1.188144  0  -0.305491  -0.569163  0  2.384465  0
O  O252  1  0.75621627  0.58507852  0.80173452  1  -1.181275  0  -0.314724  -0.547418  0  2.363635  0
O  O253  1  0.25620154  0.41491741  0.69826647  1  -1.181367  0  -0.314678  -0.547393  0  2.363858  0
O  O254  1  0.23425358  0.95636948  0.91330482  1  -1.151739  0  -0.332483  -0.578299  0  2.348819  0
O  O255  1  0.50593039  0.66138685  0.27864662  1  -1.188402  0  -0.323966  -0.587556  0  2.344438  0
O  O256  1  0.73427649  0.04362387  0.58669586  1  -1.15178  0  -0.332593  -0.578478  0  2.348727  0
O  O257  1  0.82265108  0.63625915  0.45847276  1  -1.182097  0  -0.334227  -0.564578  0  2.087946  0
O  O258  1  0.00594970  0.83861949  0.27864574  1  -1.188142  0  -0.324037  -0.587672  0  2.344381  0
O  O259  1  0.43244088  0.64800967  0.38555222  1  -1.188235  0  -0.305549  -0.569263  0  2.384696  0
O  O260  1  0.56754894  0.85198789  0.88555637  1  -1.188473  0  -0.305549  -0.569299  0  2.384363  0
O  O261  1  0.49406905  0.83861479  0.77864513  1  -1.188313  0  -0.323979  -0.587586  0  2.344524  0
O  O262  1  0.00593546  0.33861307  0.22135308  1  -1.188367  0  -0.323974  -0.587527  0  2.344537  0
O  O263  1  0.56753979  0.35199014  0.61444228  1  -1.188409  0  -0.305482  -0.569197  0  2.384286  0
O  O264  1  0.79959809  0.71418571  0.36525804  1  -1.20781  0  -0.5515  -0.855611  0  2.256992  0
O  O265  1  0.32263893  0.86374070  0.45846858  1  -1.181881  0  -0.334223  -0.564564  0  2.087638  0
O  O266  1  0.36442381  0.61280432  0.85639816  1  -1.179054  0  -0.308041  -0.571398  0  2.406914  0
O  O267  1  0.76576325  0.04363287  0.08669285  1  -1.151503  0  -0.332618  -0.578505  0  2.348883  0
O  O268  1  0.99408287  0.66137858  0.77864706  1  -1.188239  0  -0.324029  -0.587622  0  2.344453  0
O  O269  1  0.26572678  0.95636676  0.41330993  1  -1.152532  0  -0.332636  -0.578535  0  2.349033  0
O  O270  1  0.86440749  0.88719450  0.85639933  1  -1.179449  0  -0.308048  -0.57138  0  2.40679  0
O  O271  1  0.76573531  0.54364186  0.41330938  1  -1.152241  0  -0.332736  -0.578692  0  2.348893  0
O  O272  1  0.23424687  0.45637885  0.58668970  1  -1.152172  0  -0.33262  -0.578499  0  2.34933  0
O  O273  1  0.25620446  0.91490591  0.80173117  1  -1.181374  0  -0.314857  -0.547617  0  2.363981  0
O  O274  1  0.24378398  0.41491467  0.19826385  1  -1.181516  0  -0.314803  -0.547547  0  2.363812  0
O  O275  1  0.20039915  0.28581716  0.63474599  1  -1.207877  0  -0.551502  -0.855607  0  2.257036  0
O  O276  1  0.08619879  0.69992251  0.28848084  1  -1.247641  0  -0.570411  -0.750762  0  2.108669  0
O  O277  1  0.29959296  0.78581285  0.36525738  1  -1.207772  0  -0.551459  -0.855507  0  2.257128  0
O  O278  1  0.43246186  0.14801090  0.11444165  1  -1.188356  0  -0.305514  -0.569271  0  2.384408  0
O  O279  1  0.49406987  0.33862316  0.72135140  1  -1.188176  0  -0.324074  -0.587631  0  2.344496  0
