# generated using pymatgen
data_CdH10C8(N2Cl)2
_symmetry_space_group_name_H-M   'P 1'
_cell_length_a   5.21704153
_cell_length_b   8.45511040
_cell_length_c   13.54708196
_cell_angle_alpha   97.68417752
_cell_angle_beta   89.99985618
_cell_angle_gamma   90.00011129
_symmetry_Int_Tables_number   1
_chemical_formula_structural   CdH10C8(N2Cl)2
_chemical_formula_sum   'Cd2 H20 C16 N8 Cl4'
_cell_volume   592.20466705
_cell_formula_units_Z   2
loop_
 _symmetry_equiv_pos_site_id
 _symmetry_equiv_pos_as_xyz
  1  'x, y, z'
loop_
 _atom_site_type_symbol
 _atom_site_label
 _atom_site_symmetry_multiplicity
 _atom_site_fract_x
 _atom_site_fract_y
 _atom_site_fract_z
 _atom_site_occupancy
 _atom_site_hle17_bader_spin_density
 _atom_site_hle17_ddec_charge
 _atom_site_hle17_ddec_spin_density
 _atom_site_hle17_ddec_sum_bond_order
 _atom_site_hle17_magmom
 _atom_site_hse06_10hf_bader_spin_density
 _atom_site_hse06_10hf_ddec_charge
 _atom_site_hse06_10hf_ddec_spin_density
 _atom_site_hse06_10hf_ddec_sum_bond_order
 _atom_site_hse06_10hf_magmom
 _atom_site_hse06_bader_spin_density
 _atom_site_hse06_ddec_charge
 _atom_site_hse06_ddec_spin_density
 _atom_site_hse06_ddec_sum_bond_order
 _atom_site_hse06_magmom
 _atom_site_pbe_bader_spin_density
 _atom_site_pbe_cm5_charge
 _atom_site_pbe_ddec_charge
 _atom_site_pbe_ddec_spin_density
 _atom_site_pbe_ddec_sum_bond_order
 _atom_site_pbe_magmom
Cd  Cd0  1  0.49793930  0.00285937  0.58501592  1  0  0.978173  0  1.943619  0  0  0.790508  0  2.430866  0  0  0.83674  0  2.387186  0  0  0.643336  0.758388  0  2.460385  0
Cd  Cd1  1  0.50206092  0.50285825  0.08501528  1  0  0.978149  0  1.943646  0  0  0.790468  0  2.430914  0  0  0.836704  0  2.387231  0  0  0.643327  0.758348  0  2.460427  0
H  H2  1  0.91856676  0.81279488  0.91794181  1  0  0.126014  0  0.968166  0  0  0.133916  0  1.031485  0  0  0.136694  0  1.030215  0  0  0.115266  0.131869  0  1.032555  0
H  H3  1  0.08143800  0.31279661  0.41794091  1  0  0.126033  0  0.968181  0  0  0.133938  0  1.031503  0  0  0.136714  0  1.03023  0  0  0.115276  0.131893  0  1.032571  0
H  H4  1  0.56320679  0.76705315  0.76217073  1  0  0.106308  0  0.955949  0  0  0.112811  0  1.021073  0  0  0.115643  0  1.019704  0  0  0.113229  0.110733  0  1.022189  0
H  H5  1  0.43678926  0.26705164  0.26216701  1  0  0.106263  0  0.955975  0  0  0.112761  0  1.021114  0  0  0.115592  0  1.019746  0  0  0.11321  0.110684  0  1.022228  0
H  H6  1  0.31176605  0.18167227  0.87788823  1  0  0.103953  0  0.951523  0  0  0.123247  0  1.017457  0  0  0.124076  0  1.017505  0  0  0.103799  0.122541  0  1.01755  0
H  H7  1  0.68823664  0.68166778  0.37789010  1  0  0.103947  0  0.951507  0  0  0.123244  0  1.017442  0  0  0.124074  0  1.017488  0  0  0.103825  0.122538  0  1.017533  0
H  H8  1  0.37487001  0.99222197  0.91761890  1  0  0.105065  0  0.964083  0  0  0.121703  0  1.034633  0  0  0.122428  0  1.035054  0  0  0.098775  0.121074  0  1.034459  0
H  H9  1  0.62512956  0.49221829  0.41761852  1  0  0.105064  0  0.964068  0  0  0.121719  0  1.034605  0  0  0.12243  0  1.03504  0  0  0.098782  0.12109  0  1.034431  0
H  H10  1  0.14316240  0.12589759  0.98210296  1  0  0.115653  0  0.961311  0  0  0.133094  0  1.027941  0  0  0.13434  0  1.027207  0  0  0.09607  0.132079  0  1.028584  0
H  H11  1  0.85683751  0.62589686  0.48210571  1  0  0.11565  0  0.96124  0  0  0.133086  0  1.027883  0  0  0.134335  0  1.027141  0  0  0.096062  0.13207  0  1.028526  0
H  H12  1  0.40001470  0.38869533  0.57673891  1  0  0.105591  0  0.963204  0  0  0.111812  0  1.029379  0  0  0.114688  0  1.027937  0  0  0.111277  0.109727  0  1.030538  0
H  H13  1  0.59998296  0.88869433  0.07674040  1  0  0.105582  0  0.963225  0  0  0.111802  0  1.029399  0  0  0.114678  0  1.027955  0  0  0.111272  0.109717  0  1.030558  0
H  H14  1  0.05139175  0.58154960  0.69148883  1  0  0.120832  0  0.967764  0  0  0.127399  0  1.033501  0  0  0.130187  0  1.032377  0  0  0.115412  0.125365  0  1.034415  0
H  H15  1  0.94860609  0.08154863  0.19148835  1  0  0.120856  0  0.967758  0  0  0.127429  0  1.033485  0  0  0.130217  0  1.032363  0  0  0.115418  0.125397  0  1.034398  0
H  H16  1  0.69191858  0.30890631  0.85038429  1  0  0.104676  0  0.966394  0  0  0.121288  0  1.03603  0  0  0.122534  0  1.035713  0  0  0.100688  0.120282  0  1.036382  0
H  H17  1  0.30807703  0.80890378  0.35038151  1  0  0.104661  0  0.966403  0  0  0.121288  0  1.036029  0  0  0.122533  0  1.035713  0  0  0.100679  0.120281  0  1.036382  0
H  H18  1  0.59720253  0.46479087  0.78083166  1  0  0.105806  0  0.957755  0  0  0.123221  0  1.024935  0  0  0.123808  0  1.025697  0  0  0.098561  0.12272  0  1.024489  0
H  H19  1  0.40279593  0.96478964  0.28083037  1  0  0.105807  0  0.957759  0  0  0.123211  0  1.024945  0  0  0.123798  0  1.025708  0  0  0.098574  0.122712  0  1.024496  0
H  H20  1  0.84528541  0.49799990  0.87348836  1  0  0.109536  0  0.962851  0  0  0.126252  0  1.032827  0  0  0.127293  0  1.032267  0  0  0.096058  0.12537  0  1.033391  0
H  H21  1  0.15471255  0.99799843  0.37348803  1  0  0.109534  0  0.962897  0  0  0.126258  0  1.032857  0  0  0.127301  0  1.032295  0  0  0.096061  0.125378  0  1.03342  0
C  C22  1  0.94095619  0.06657633  0.75860504  1  0  0.202149  0  3.761516  0  0  0.170675  0  4.029041  0  0  0.182582  0  4.044152  0  0  0.210464  0.162819  0  4.018703  0
C  C23  1  0.05904500  0.56657715  0.25860498  1  0  0.202017  0  3.761608  0  0  0.170569  0  4.029087  0  0  0.182474  0  4.044198  0  0  0.21038  0.162712  0  4.018743  0
C  C24  1  0.88306610  0.87882991  0.85605398  1  0  -0.036944  0  3.6276  0  0  -0.079239  0  3.883391  0  0  -0.077018  0  3.900943  0  0  0.010278  -0.080675  0  3.871669  0
C  C25  1  0.11693352  0.37882808  0.35605128  1  0  -0.036965  0  3.627723  0  0  -0.079265  0  3.883522  0  0  -0.07704  0  3.901072  0  0  0.010315  -0.080704  0  3.871797  0
C  C26  1  0.71103013  0.85698941  0.77840529  1  0  0.003155  0  3.760157  0  0  -0.029769  0  4.030634  0  0  -0.028138  0  4.049694  0  0  -0.002695  -0.030878  0  4.017771  0
C  C27  1  0.28896610  0.35698536  0.27840077  1  0  0.003257  0  3.76014  0  0  -0.029667  0  4.030605  0  0  -0.028037  0  4.049667  0  0  -0.002679  -0.030778  0  4.017746  0
C  C28  1  0.22702236  0.08134313  0.90953708  1  0  -0.177529  0  3.639711  0  0  -0.285114  0  3.889847  0  0  -0.281919  0  3.898012  0  0  -0.139026  -0.286981  0  3.884397  0
C  C29  1  0.77297981  0.58134111  0.40953906  1  0  -0.177514  0  3.639602  0  0  -0.285123  0  3.889741  0  0  -0.281913  0  3.897919  0  0  -0.139049  -0.286988  0  3.884287  0
C  C30  1  0.04440244  0.20544278  0.71841123  1  0  0.202017  0  3.762985  0  0  0.170998  0  4.030081  0  0  0.1829  0  4.04507  0  0  0.209679  0.163154  0  4.019805  0
C  C31  1  0.95560521  0.70543974  0.21841148  1  0  0.20211  0  3.762836  0  0  0.171112  0  4.029882  0  0  0.183017  0  4.044865  0  0  0.209698  0.163269  0  4.019596  0
C  C32  1  0.25961115  0.35794092  0.62995904  1  0  0.00453  0  3.770062  0  0  -0.030811  0  4.043243  0  0  -0.029195  0  4.062408  0  0  -0.004854  -0.031962  0  4.030362  0
C  C33  1  0.74038606  0.85794244  0.12995987  1  0  0.004572  0  3.770073  0  0  -0.030768  0  4.043256  0  0  -0.02915  0  4.062418  0  0  -0.004852  -0.031922  0  4.030373  0
C  C34  1  0.08673536  0.45443495  0.68620300  1  0  -0.038513  0  3.645305  0  0  -0.080398  0  3.900613  0  0  -0.07813  0  3.917893  0  0  0.008184  -0.081878  0  3.889093  0
C  C35  1  0.91325795  0.95443666  0.18620662  1  0  -0.038543  0  3.645341  0  0  -0.080438  0  3.900654  0  0  -0.078169  0  3.917931  0  0  0.008167  -0.08192  0  3.889132  0
C  C36  1  0.75888017  0.41104701  0.81570336  1  0  -0.181934  0  3.644647  0  0  -0.286955  0  3.893286  0  0  -0.284114  0  3.901886  0  0  -0.139988  -0.288583  0  3.887468  0
C  C37  1  0.24111981  0.91104683  0.31570379  1  0  -0.181882  0  3.644682  0  0  -0.286911  0  3.893332  0  0  -0.284068  0  3.901931  0  0  -0.139982  -0.288533  0  3.887496  0
N  N38  1  0.74803807  0.97432918  0.71864494  1  0  -0.406178  0  3.274182  0  0  -0.33686  0  3.562697  0  0  -0.356536  0  3.578846  0  0  -0.357974  -0.323338  0  3.551379  0
N  N39  1  0.25196084  0.47432749  0.21864212  1  0  -0.406186  0  3.27413  0  0  -0.336877  0  3.562638  0  0  -0.356552  0  3.578786  0  0  -0.357987  -0.323356  0  3.551316  0
N  N40  1  0.02676529  0.01059178  0.84261930  1  0  -0.02644  0  3.549325  0  0  0.070802  0  3.762982  0  0  0.057294  0  3.789034  0  0  -0.231203  0.079733  0  3.745287  0
N  N41  1  0.97323901  0.51058995  0.34262037  1  0  -0.026384  0  3.549388  0  0  0.070842  0  3.763046  0  0  0.057333  0  3.789096  0  0  -0.231157  0.079773  0  3.745347  0
N  N42  1  0.23245177  0.20404667  0.65064914  1  0  -0.407057  0  3.273439  0  0  -0.338584  0  3.563305  0  0  -0.358153  0  3.57941  0  0  -0.357315  -0.32512  0  3.551992  0
N  N43  1  0.76755441  0.70404582  0.15064827  1  0  -0.407113  0  3.273314  0  0  -0.338647  0  3.563188  0  0  -0.358219  0  3.579289  0  0  -0.357327  -0.325193  0  3.551893  0
N  N44  1  0.95304593  0.35730561  0.74151095  1  0  -0.028281  0  3.559985  0  0  0.069867  0  3.771148  0  0  0.056362  0  3.797204  0  0  -0.232149  0.078803  0  3.753441  0
N  N45  1  0.04695437  0.85730403  0.24151071  1  0  -0.028349  0  3.559992  0  0  0.069789  0  3.771161  0  0  0.056282  0  3.797217  0  0  -0.232161  0.078723  0  3.75345  0
Cl  Cl46  1  0.28754353  0.74384086  0.55764475  1  0  -0.592747  0  0.868633  0  0  -0.51736  0  1.129276  0  0  -0.534677  0  1.109353  0  0  -0.329246  -0.505016  0  1.142784  0
Cl  Cl47  1  0.71245187  0.24383844  0.05764217  1  0  -0.592747  0  0.868645  0  0  -0.517355  0  1.129282  0  0  -0.534671  0  1.109359  0  0  -0.329243  -0.505012  0  1.142789  0
Cl  Cl48  1  0.70590645  0.12645529  0.45318570  1  0  -0.597827  0  0.841674  0  0  -0.522486  0  1.094997  0  0  -0.539677  0  1.075422  0  0  -0.336615  -0.51021  0  1.108278  0
Cl  Cl49  1  0.29408982  0.62645891  0.95318910  1  0  -0.597828  0  0.841684  0  0  -0.522484  0  1.095021  0  0  -0.539676  0  1.075445  0  0  -0.33662  -0.510193  0  1.10827  0
