# generated using pymatgen
data_CuH11C13NO4
_symmetry_space_group_name_H-M   'P 1'
_cell_length_a   4.96584792
_cell_length_b   7.22375360
_cell_length_c   16.78464247
_cell_angle_alpha   77.55034182
_cell_angle_beta   87.12499811
_cell_angle_gamma   76.63843673
_symmetry_Int_Tables_number   1
_chemical_formula_structural   CuH11C13NO4
_chemical_formula_sum   'Cu2 H22 C26 N2 O8'
_cell_volume   572.02687917
_cell_formula_units_Z   2
loop_
 _symmetry_equiv_pos_site_id
 _symmetry_equiv_pos_as_xyz
  1  'x, y, z'
loop_
 _atom_site_type_symbol
 _atom_site_label
 _atom_site_symmetry_multiplicity
 _atom_site_fract_x
 _atom_site_fract_y
 _atom_site_fract_z
 _atom_site_occupancy
 _atom_site_hle17_ddec_charge
 _atom_site_hle17_ddec_spin_density
 _atom_site_hle17_ddec_sum_bond_order
 _atom_site_hle17_magmom
 _atom_site_hse06_10hf_ddec_charge
 _atom_site_hse06_10hf_ddec_spin_density
 _atom_site_hse06_10hf_ddec_sum_bond_order
 _atom_site_hse06_10hf_magmom
 _atom_site_hse06_ddec_charge
 _atom_site_hse06_ddec_spin_density
 _atom_site_hse06_ddec_sum_bond_order
 _atom_site_hse06_magmom
 _atom_site_pbe_cm5_charge
 _atom_site_pbe_ddec_charge
 _atom_site_pbe_ddec_spin_density
 _atom_site_pbe_ddec_sum_bond_order
 _atom_site_pbe_magmom
Cu  Cu0  1  0.89485480  0.84454048  0.88913138  1  0.90073  0.7305  1.804877  0.504  0.887564  0.804371  2.19663  0.612  0.972039  0.877402  2.128498  0.692  0.744233  0.836357  0.753397  2.244222  0.561
Cu  Cu1  1  0.39381104  0.73395231  0.11069917  1  0.900752  -0.730207  1.804934  -0.504  0.887649  -0.804259  2.197111  -0.612  0.972319  -0.877298  2.128566  -0.692  0.743875  0.836379  -0.753243  2.244849  -0.561
H  H2  1  0.11241416  0.46132882  0.94229111  1  0.4278  0.000543  0.880655  0.0  0.396329  0.000803  0.944653  0.001  0.409702  0.00055  0.926019  0.001  0.294035  0.387196  0.001064  0.957329  0.001
H  H3  1  0.61203777  0.40367366  0.05749490  1  0.425977  -0.000554  0.883473  0.0  0.395377  -0.000811  0.946117  -0.001  0.408767  -0.000557  0.92746  -0.001  0.293101  0.386245  -0.001072  0.958783  -0.001
H  H4  1  0.22674127  0.60021220  0.98777554  1  0.433041  0.000138  0.850286  -0.001  0.404911  0.000441  0.919542  0.0  0.416073  0.000334  0.903187  0.0  0.302457  0.397039  0.000521  0.930035  0.0
H  H5  1  0.72647274  0.58820766  0.01214394  1  0.434412  -0.000138  0.848656  0.001  0.405739  -0.000442  0.918815  0.0  0.416952  -0.000335  0.902345  0.0  0.302094  0.397847  -0.000521  0.929816  0.0
H  H6  1  0.32551836  0.55608274  0.79214685  1  0.113905  -0.000197  0.958549  -0.001  0.122748  0.000141  1.023396  0.0  0.126902  7e-05  1.021092  0.0  0.103624  0.119766  0.00023  1.025383  0.0
H  H7  1  0.82389794  0.34891710  0.20780697  1  0.114329  0.000199  0.95954  0.001  0.123467  -0.000141  1.023978  0.0  0.127633  -7e-05  1.02169  0.0  0.10353  0.120459  -0.000231  1.025989  0.0
H  H8  1  0.99216100  0.69071488  0.67714934  1  0.091884  0.000905  0.940182  0.001  0.106671  0.000447  0.997196  0.001  0.10893  0.00028  0.995795  0.0  0.102565  0.105081  0.000614  0.998174  0.001
H  H9  1  0.49087599  0.36825486  0.32296761  1  0.092278  -0.000906  0.940796  -0.001  0.106773  -0.000447  0.997999  -0.001  0.109135  -0.00028  0.996477  0.0  0.102439  0.105105  -0.000614  0.999086  -0.001
H  H10  1  0.77007817  0.95587245  0.57134373  1  0.085429  8.5e-05  0.959881  0.0  0.096902  3.3e-05  1.023221  0.0  0.099383  2.4e-05  1.022196  0.0  0.09831  0.095074  4.3e-05  1.024067  0.0
H  H11  1  0.26956331  0.52715688  0.42895808  1  0.08364  -8.7e-05  0.959954  0.0  0.094912  -3.3e-05  1.023719  0.0  0.097414  -2.4e-05  1.022626  0.0  0.096601  0.09307  -4.3e-05  1.024595  0.0
H  H12  1  0.69097173  0.30340158  0.49794572  1  0.082534  2.1e-05  0.983103  0.0  0.092515  1e-05  1.048618  0.0  0.094692  1.1e-05  1.04906  0.0  0.092958  0.090954  1.2e-05  1.048401  0.0
H  H13  1  0.19088891  0.80107393  0.50245416  1  0.082608  -2.3e-05  0.981323  0.0  0.092194  -1e-05  1.04751  0.0  0.094295  -1.1e-05  1.048028  0.0  0.09269  0.090672  -1.1e-05  1.047268  0.0
H  H14  1  0.95794671  0.51948109  0.53903542  1  0.085898  6.4e-05  0.955862  0.0  0.100041  1.4e-05  1.012415  0.0  0.102239  4e-06  1.011849  0.0  0.097828  0.098441  2.7e-05  1.012875  0.0
H  H15  1  0.45845576  0.05799964  0.46134733  1  0.08627  -6.3e-05  0.954583  0.0  0.100098  -1.3e-05  1.011448  0.0  0.102309  -4e-06  1.010895  0.0  0.098155  0.098499  -2.7e-05  1.011891  0.0
H  H16  1  0.30397434  0.39545893  0.64672680  1  0.081709  0.000342  0.985524  0.0  0.093234  0.000364  1.048644  0.0  0.095655  0.000256  1.048286  0.0  0.09394  0.091544  0.000465  1.048982  0.0
H  H17  1  0.80437057  0.04182430  0.35355474  1  0.083148  -0.000342  0.986552  0.0  0.094728  -0.000363  1.049438  0.0  0.097091  -0.000255  1.04918  0.0  0.094434  0.092988  -0.000463  1.049821  0.0
H  H18  1  0.52111023  0.30035506  0.73989771  1  0.064248  0.009351  0.949301  0.012  0.07995  0.005784  1.008564  0.007  0.079415  0.004231  1.006085  0.005  0.116934  0.080029  0.006917  1.010588  0.008
H  H19  1  0.02018339  0.04066869  0.25989955  1  0.064823  -0.009371  0.949932  -0.012  0.080264  -0.005798  1.009314  -0.007  0.07989  -0.004242  1.006593  -0.005  0.117243  0.080265  -0.006935  1.011457  -0.008
H  H20  1  0.69054673  0.32213162  0.89463257  1  0.135146  0.000716  0.908041  0.001  0.148909  0.000371  0.966634  0.0  0.15147  0.000352  0.964604  0.001  0.124519  0.14683  0.000387  0.968379  0.0
H  H21  1  0.18962850  0.21727098  0.10511130  1  0.13445  -0.000723  0.908319  -0.001  0.148738  -0.000369  0.966119  0.0  0.151303  -0.000351  0.964146  -0.001  0.123983  0.146648  -0.000385  0.967816  0.0
H  H22  1  0.90414342  0.35524375  0.80677489  1  0.099739  0.00164  0.916321  0.002  0.118606  0.001372  0.972817  0.001  0.119228  0.001086  0.973139  0.001  0.111089  0.118124  0.001579  0.972603  0.001
H  H23  1  0.40337102  0.16221638  0.19291632  1  0.100982  -0.001632  0.915536  -0.002  0.119441  -0.00137  0.971987  -0.001  0.120065  -0.001085  0.972379  -0.001  0.111704  0.118936  -0.001577  0.971749  -0.001
C  C24  1  0.43290061  0.01963268  0.74270042  1  -0.178705  0.00848  3.763784  0.011  -0.166978  0.003571  4.008702  0.006  -0.186983  0.002429  4.037435  0.004  -0.040962  -0.153964  0.004577  3.989503  0.007
C  C25  1  0.93196861  0.76268132  0.25729203  1  -0.178561  -0.008468  3.768953  -0.011  -0.166574  -0.003563  4.012432  -0.006  -0.186679  -0.00243  4.041371  -0.004  -0.040285  -0.153452  -0.004574  3.993027  -0.007
C  C26  1  0.47299429  0.81893124  0.78263363  1  0.354537  -0.008239  3.851719  -0.012  0.339865  -0.000917  4.124261  -0.004  0.363955  -0.001964  4.138032  -0.004  0.097108  0.323723  0.000139  4.114807  -0.003
C  C27  1  0.97164563  0.60209914  0.21730698  1  0.35311  0.008215  3.855473  0.012  0.339003  0.000912  4.126696  0.004  0.3631  0.001963  4.14052  0.004  0.096586  0.322855  -0.000145  4.117227  0.003
C  C28  1  0.30380735  0.70472664  0.75747200  1  -0.217816  0.016055  3.764505  0.018  -0.245275  0.007733  4.042997  0.01  -0.254661  0.005674  4.057437  0.007  -0.113132  -0.239675  0.009444  4.034034  0.011
C  C29  1  0.80234943  0.46271175  0.24254061  1  -0.217293  -0.016073  3.767566  -0.018  -0.24517  -0.007733  4.045291  -0.01  -0.254624  -0.005678  4.059864  -0.007  -0.111969  -0.23953  -0.009447  4.036268  -0.011
C  C30  1  0.12019895  0.78006312  0.69439743  1  -0.066502  -0.008492  3.777913  -0.007  -0.093576  -0.002346  4.038327  -0.002  -0.088369  -0.002728  4.05562  -0.002  -0.084355  -0.09676  -0.002076  4.0266  -0.001
C  C31  1  0.61894146  0.47486369  0.30568100  1  -0.066361  0.008493  3.779857  0.007  -0.093028  0.002347  4.040254  0.002  -0.087907  0.002731  4.057574  0.002  -0.084213  -0.096163  0.002076  4.028504  0.001
C  C32  1  0.88849384  0.05254740  0.58721051  1  -0.104683  -0.002064  3.772329  -0.002  -0.12387  -0.000432  4.020809  0.0  -0.123827  -0.000472  4.042224  0.0  -0.092318  -0.123611  -0.000407  4.006194  0.0
C  C33  1  0.38808331  0.63968142  0.41310459  1  -0.103033  0.002066  3.773316  0.002  -0.122083  0.000429  4.021671  0.0  -0.122028  0.000476  4.043086  0.0  -0.090379  -0.121819  0.000406  4.007027  0.0
C  C34  1  0.84289822  0.24483241  0.54677903  1  -0.092096  0.00099  3.810502  0.001  -0.107783  -5.7e-05  4.063332  0.0  -0.112559  3.7e-05  4.086805  0.0  -0.106989  -0.10466  -0.000138  4.047356  0.0
C  C35  1  0.34278211  0.79138239  0.45357403  1  -0.090263  -0.000987  3.811454  -0.001  -0.105471  5.9e-05  4.063734  0.0  -0.110187  -4.1e-05  4.087289  0.0  -0.10538  -0.102387  0.000139  4.047696  0.0
C  C36  1  0.99393943  0.36692939  0.57034120  1  -0.07178  -0.002351  3.800262  -0.002  -0.08468  -0.000515  4.051408  0.0  -0.083975  -0.000574  4.072008  -0.001  -0.098756  -0.084871  -0.000477  4.0372  0.0
C  C37  1  0.49418812  0.93688476  0.43002087  1  -0.073916  0.00236  3.800331  0.002  -0.086546  0.000518  4.051509  0.0  -0.085896  0.000577  4.07211  0.001  -0.100525  -0.086701  0.000478  4.037284  0.0
C  C38  1  0.18734674  0.29611919  0.63261652  1  -0.141478  0.002395  3.767011  0.002  -0.163333  0.000798  4.021618  0.001  -0.168573  0.000657  4.043873  0.001  -0.103748  -0.159879  0.000947  4.006382  0.001
C  C39  1  0.68756395  0.92844164  0.36769143  1  -0.142414  -0.002403  3.769284  -0.002  -0.164523  -0.0008  4.023805  -0.001  -0.169724  -0.000658  4.046129  -0.001  -0.104584  -0.16105  -0.000947  4.008565  -0.001
C  C40  1  0.23784908  0.09940635  0.67589235  1  0.056948  -0.003828  3.748597  -0.004  0.067397  -0.001166  3.973872  -0.001  0.072034  -0.00123  4.000436  -0.001  -0.004684  0.064635  -0.001072  3.955767  -0.001
C  C41  1  0.73746604  0.77534862  0.32427944  1  0.056486  0.003825  3.752922  0.004  0.067384  0.001164  3.977313  0.001  0.071989  0.001231  4.003984  0.001  -0.003759  0.064655  0.00107  3.959112  0.001
C  C42  1  0.08276410  0.97701293  0.65139770  1  0.023079  0.001528  3.815856  0.002  0.040732  9.7e-05  4.04321  0.0  0.035332  0.000181  4.069243  0.0  -0.020602  0.04411  5e-05  4.025588  0.0
C  C43  1  0.58209349  0.62854382  0.34880382  1  0.022961  -0.00154  3.817074  -0.002  0.04008  -9.7e-05  4.044829  0.0  0.034696  -0.000184  4.070923  0.0  -0.0221  0.043446  -5.1e-05  4.027166  0.0
C  C44  1  0.57115409  0.14648547  0.77040215  1  0.171482  -0.019582  3.715952  -0.02  0.129042  -0.005018  3.976702  -0.006  0.152182  -0.006463  3.987701  -0.008  0.069577  0.113786  -0.003761  3.969591  -0.005
C  C45  1  0.07002860  0.91730845  0.22940564  1  0.169668  0.019556  3.719644  0.02  0.127276  0.005  3.980447  0.006  0.150323  0.006452  3.991438  0.008  0.068029  0.112101  0.003742  3.973365  0.005
C  C46  1  0.85106935  0.24551556  0.85783391  1  -0.160555  0.005652  3.706846  0.004  -0.217583  0.004515  3.970997  0.003  -0.217573  0.002866  3.980173  0.001  -0.072032  -0.217263  0.005689  3.965103  0.004
C  C47  1  0.35011389  0.10376136  0.14186197  1  -0.162103  -0.005664  3.70461  -0.004  -0.218778  -0.00452  3.966888  -0.003  -0.218872  -0.002865  3.976146  -0.001  -0.072411  -0.218303  -0.005696  3.960875  -0.004
C  C48  1  0.10013910  0.14972306  0.91309087  1  0.689823  -0.003737  3.829284  -0.006  0.639957  0.000773  4.144169  -0.001  0.676665  0.000303  4.136323  -0.001  0.215123  0.615179  0.001193  4.148474  -0.001
C  C49  1  0.59913869  0.06309700  0.08656999  1  0.68835  0.003749  3.828933  0.006  0.640313  -0.000771  4.140969  0.001  0.67703  -0.0003  4.133186  0.001  0.215531  0.615498  -0.001189  4.145281  0.001
N  N50  1  0.74713628  0.09864570  0.82999777  1  -0.319372  0.117191  3.372658  0.142  -0.274089  0.073527  3.694368  0.095  -0.309554  0.06243  3.712656  0.085  -0.398167  -0.253507  0.078932  3.684455  0.099
N  N51  1  0.24598347  0.92904741  0.16976255  1  -0.317054  -0.117278  3.371754  -0.142  -0.272292  -0.073602  3.693403  -0.095  -0.307658  -0.062506  3.711627  -0.085  -0.3961  -0.251872  -0.079019  3.683581  -0.099
O  O52  1  0.64884961  0.72897932  0.84104739  1  -0.537545  0.109346  2.090898  0.141  -0.515496  0.070993  2.385599  0.101  -0.560279  0.054464  2.383897  0.082  -0.329334  -0.486039  0.082058  2.386898  0.112
O  O53  1  0.14730430  0.57056832  0.15882998  1  -0.536985  -0.109474  2.091415  -0.141  -0.515214  -0.071002  2.386195  -0.101  -0.560051  -0.054468  2.384462  -0.082  -0.329031  -0.485741  -0.08208  2.387483  -0.112
O  O54  1  0.15752529  0.96346976  0.93456787  1  -0.589002  0.090155  2.040454  0.115  -0.571912  0.061291  2.349329  0.086  -0.612356  0.049289  2.337309  0.073  -0.317469  -0.545798  0.068611  2.35827  0.093
O  O55  1  0.65649477  0.89824294  0.06519185  1  -0.588567  -0.090164  2.039094  -0.115  -0.572363  -0.061283  2.347779  -0.086  -0.612808  -0.049299  2.335645  -0.073  -0.31804  -0.54626  -0.068598  2.35678  -0.093
O  O56  1  0.05600631  0.59232122  0.96144734  1  -0.818711  0.038715  2.001655  0.048  -0.760832  0.031793  2.228585  0.042  -0.790018  0.027427  2.187892  0.038  -0.574101  -0.74127  0.034238  2.256097  0.044
O  O57  1  0.55567971  0.55391413  0.03844815  1  -0.818292  -0.038667  2.001998  -0.048  -0.760861  -0.031769  2.227778  -0.042  -0.79009  -0.027402  2.187035  -0.038  -0.572499  -0.741291  -0.034221  2.255683  -0.044
O  O58  1  0.23831597  0.25574378  0.93524407  1  -0.600338  0.009565  1.995252  0.012  -0.539999  0.005843  2.214463  0.007  -0.567244  0.00327  2.205179  0.004  -0.30771  -0.52059  0.008227  2.219974  0.01
O  O59  1  0.73759270  0.19114421  0.06435334  1  -0.598753  -0.009587  1.995591  -0.012  -0.540497  -0.005863  2.214731  -0.007  -0.567712  -0.003282  2.205403  -0.004  -0.30866  -0.521081  -0.008249  2.220268  -0.01
