# generated using pymatgen
data_CuH8C6N2Cl
_symmetry_space_group_name_H-M   'P 1'
_cell_length_a   6.56963694
_cell_length_b   9.59788536
_cell_length_c   12.95241926
_cell_angle_alpha   84.99335945
_cell_angle_beta   75.21854026
_cell_angle_gamma   69.97836298
_symmetry_Int_Tables_number   1
_chemical_formula_structural   CuH8C6N2Cl
_chemical_formula_sum   'Cu4 H32 C24 N8 Cl4'
_cell_volume   741.95601868
_cell_formula_units_Z   4
loop_
 _symmetry_equiv_pos_site_id
 _symmetry_equiv_pos_as_xyz
  1  'x, y, z'
loop_
 _atom_site_type_symbol
 _atom_site_label
 _atom_site_symmetry_multiplicity
 _atom_site_fract_x
 _atom_site_fract_y
 _atom_site_fract_z
 _atom_site_occupancy
 _atom_site_hle17_bader_spin_density
 _atom_site_hle17_ddec_charge
 _atom_site_hle17_ddec_spin_density
 _atom_site_hle17_ddec_sum_bond_order
 _atom_site_hle17_magmom
 _atom_site_hse06_10hf_bader_spin_density
 _atom_site_hse06_10hf_ddec_charge
 _atom_site_hse06_10hf_ddec_spin_density
 _atom_site_hse06_10hf_ddec_sum_bond_order
 _atom_site_hse06_10hf_magmom
 _atom_site_hse06_bader_spin_density
 _atom_site_hse06_ddec_charge
 _atom_site_hse06_ddec_spin_density
 _atom_site_hse06_ddec_sum_bond_order
 _atom_site_hse06_magmom
 _atom_site_pbe_bader_spin_density
 _atom_site_pbe_cm5_charge
 _atom_site_pbe_ddec_charge
 _atom_site_pbe_ddec_spin_density
 _atom_site_pbe_ddec_sum_bond_order
 _atom_site_pbe_magmom
Cu  Cu0  1  0.28867016  0.92232835  0.24995790  1  0  0.490375  0  1.990876  0  0  0.393514  0  2.467241  0  0  0.378645  0  2.436992  0  0  0.496556  0.406504  0  2.483874  0
Cu  Cu1  1  0.96128254  0.57707439  0.25002306  1  0  0.486964  0  1.980903  0  0  0.388135  0  2.456386  0  0  0.373999  0  2.425519  0  0  0.493605  0.400693  0  2.473565  0
Cu  Cu2  1  0.03871499  0.42293501  0.74997236  1  0  0.48689  0  1.980913  0  0  0.388056  0  2.456417  0  0  0.373925  0  2.425537  0  0  0.493559  0.400616  0  2.473585  0
Cu  Cu3  1  0.71133329  0.07767439  0.75004590  1  0  0.490299  0  1.990742  0  0  0.393427  0  2.467114  0  0  0.378632  0  2.436886  0  0  0.496492  0.406426  0  2.48371  0
H  H4  1  0.73839502  0.87403618  0.11916372  1  0  0.098318  0  0.970865  0  0  0.101045  0  1.043182  0  0  0.105083  0  1.040022  0  0  0.107356  0.097874  0  1.046003  0
H  H5  1  0.23051649  0.62688840  0.38049405  1  0  0.096264  0  0.971434  0  0  0.099573  0  1.043145  0  0  0.103625  0  1.039994  0  0  0.106657  0.096085  0  1.04707  0
H  H6  1  0.88762131  0.87380473  0.38098707  1  0  0.09745  0  0.969888  0  0  0.100707  0  1.041391  0  0  0.104723  0  1.038222  0  0  0.106828  0.097258  0  1.045293  0
H  H7  1  0.64234868  0.62706688  0.11938652  1  0  0.097241  0  0.970761  0  0  0.099843  0  1.043321  0  0  0.103927  0  1.040134  0  0  0.106656  0.09673  0  1.046031  0
H  H8  1  0.35765155  0.37293364  0.88061219  1  0  0.097283  0  0.970759  0  0  0.099928  0  1.043273  0  0  0.104013  0  1.040086  0  0  0.106659  0.096813  0  1.045984  0
H  H9  1  0.11238721  0.12618249  0.61902254  1  0  0.097523  0  0.969879  0  0  0.100785  0  1.041398  0  0  0.1048  0  1.038232  0  0  0.106853  0.097332  0  1.045297  0
H  H10  1  0.76947719  0.37312322  0.61950097  1  0  0.096133  0  0.971544  0  0  0.099502  0  1.043205  0  0  0.103554  0  1.040054  0  0  0.106652  0.096014  0  1.047124  0
H  H11  1  0.26160821  0.12596545  0.88084085  1  0  0.098408  0  0.970973  0  0  0.101077  0  1.043328  0  0  0.105113  0  1.040169  0  0  0.10738  0.097924  0  1.046125  0
H  H12  1  0.96406725  0.03592855  0.12776576  1  0  0.126147  0  0.96451  0  0  0.144237  0  1.029186  0  0  0.147058  0  1.027282  0  0  0.089048  0.141849  0  1.03093  0
H  H13  1  0.62795464  0.46397732  0.37268469  1  0  0.12702  0  0.964413  0  0  0.144729  0  1.029414  0  0  0.14761  0  1.027464  0  0  0.089417  0.142682  0  1.030733  0
H  H14  1  0.50005060  0.03575452  0.37216517  1  0  0.126676  0  0.965002  0  0  0.144432  0  1.029969  0  0  0.147315  0  1.02803  0  0  0.088871  0.142328  0  1.031342  0
H  H15  1  0.40772308  0.46449027  0.12740840  1  0  0.12623  0  0.96569  0  0  0.144343  0  1.030233  0  0  0.147175  0  1.028307  0  0  0.08884  0.141999  0  1.031934  0
H  H16  1  0.59226712  0.53551469  0.87259182  1  0  0.12621  0  0.965682  0  0  0.144313  0  1.030244  0  0  0.147145  0  1.028318  0  0  0.088834  0.141971  0  1.031941  0
H  H17  1  0.49996032  0.96424378  0.62783497  1  0  0.126719  0  0.96501  0  0  0.144493  0  1.029947  0  0  0.147378  0  1.028008  0  0  0.088891  0.142384  0  1.031319  0
H  H18  1  0.37204315  0.53602875  0.62730432  1  0  0.127051  0  0.964455  0  0  0.144748  0  1.029452  0  0  0.147631  0  1.027499  0  0  0.08943  0.142702  0  1.030771  0
H  H19  1  0.03593002  0.96405534  0.87224104  1  0  0.126188  0  0.964565  0  0  0.144292  0  1.029222  0  0  0.147112  0  1.02732  0  0  0.089075  0.141903  0  1.030963  0
H  H20  1  0.94312700  0.17983222  0.02872065  1  0  0.128986  0  0.952672  0  0  0.147027  0  1.013602  0  0  0.147967  0  1.015458  0  0  0.090411  0.146428  0  1.012141  0
H  H21  1  0.65149514  0.32002029  0.47177560  1  0  0.129084  0  0.952717  0  0  0.147139  0  1.013594  0  0  0.148072  0  1.015471  0  0  0.090181  0.1466  0  1.012008  0
H  H22  1  0.37721235  0.17971748  0.47118364  1  0  0.12807  0  0.953152  0  0  0.146093  0  1.014038  0  0  0.147038  0  1.015896  0  0  0.090168  0.145561  0  1.012432  0
H  H23  1  0.52850872  0.32038770  0.02839175  1  0  0.129291  0  0.951706  0  0  0.147249  0  1.012933  0  0  0.148176  0  1.014813  0  0  0.089978  0.146691  0  1.011443  0
H  H24  1  0.47149443  0.67961171  0.97161087  1  0  0.129256  0  0.951827  0  0  0.147214  0  1.013054  0  0  0.148139  0  1.014936  0  0  0.089966  0.146657  0  1.011566  0
H  H25  1  0.62278836  0.82027861  0.52881837  1  0  0.128097  0  0.953035  0  0  0.146127  0  1.013944  0  0  0.147071  0  1.015805  0  0  0.090175  0.145593  0  1.012341  0
H  H26  1  0.34850539  0.67997802  0.52821767  1  0  0.129069  0  0.95284  0  0  0.147105  0  1.013736  0  0  0.148041  0  1.015606  0  0  0.090191  0.146566  0  1.01215  0
H  H27  1  0.05686590  0.82016387  0.97128286  1  0  0.129018  0  0.952658  0  0  0.14709  0  1.013547  0  0  0.148029  0  1.015404  0  0  0.090414  0.146489  0  1.012089  0
H  H28  1  0.99951578  0.20357771  0.15315343  1  0  0.116534  0  0.946231  0  0  0.135404  0  1.014672  0  0  0.137883  0  1.012206  0  0  0.092063  0.133307  0  1.016831  0
H  H29  1  0.85650881  0.29629977  0.34729077  1  0  0.116782  0  0.947355  0  0  0.13553  0  1.01585  0  0  0.138081  0  1.013273  0  0  0.092392  0.133764  0  1.017738  0
H  H30  1  0.29704796  0.20341360  0.34674860  1  0  0.117111  0  0.945963  0  0  0.135702  0  1.014625  0  0  0.13826  0  1.012058  0  0  0.092389  0.13387  0  1.016565  0
H  H31  1  0.34719316  0.29672095  0.15286159  1  0  0.116889  0  0.946844  0  0  0.135794  0  1.01529  0  0  0.138205  0  1.012869  0  0  0.092528  0.133776  0  1.017403  0
H  H32  1  0.65279301  0.70328512  0.84714522  1  0  0.116841  0  0.946907  0  0  0.135742  0  1.015357  0  0  0.138153  0  1.012936  0  0  0.092507  0.133735  0  1.017455  0
H  H33  1  0.70293044  0.79658803  0.65325405  1  0  0.117096  0  0.945966  0  0  0.135699  0  1.014613  0  0  0.138257  0  1.012048  0  0  0.09235  0.13387  0  1.016547  0
H  H34  1  0.14350153  0.70370075  0.65269791  1  0  0.116629  0  0.947371  0  0  0.135373  0  1.015899  0  0  0.137918  0  1.013327  0  0  0.092345  0.133606  0  1.017784  0
H  H35  1  0.00047420  0.79642503  0.84685280  1  0  0.116593  0  0.946308  0  0  0.135463  0  1.01473  0  0  0.137953  0  1.012254  0  0  0.092095  0.133364  0  1.016887  0
C  C36  1  0.27558448  0.05788281  0.04320040  1  0  0.256048  0  3.712021  0  0  0.264482  0  3.956332  0  0  0.269325  0  3.974542  0  0  0.110345  0.260839  0  3.946044  0
C  C37  1  0.87663342  0.44200975  0.45707778  1  0  0.253526  0  3.712748  0  0  0.262435  0  3.956341  0  0  0.267316  0  3.974282  0  0  0.110086  0.259377  0  3.945204  0
C  C38  1  0.16651566  0.05785164  0.45673199  1  0  0.255946  0  3.710808  0  0  0.264027  0  3.955618  0  0  0.268834  0  3.973542  0  0  0.109988  0.260894  0  3.944596  0
C  C39  1  0.18131847  0.44217663  0.04297975  1  0  0.257148  0  3.708733  0  0  0.266002  0  3.952061  0  0  0.270765  0  3.970474  0  0  0.111167  0.262432  0  3.941615  0
C  C40  1  0.81868317  0.55782390  0.95702539  1  0  0.256899  0  3.70896  0  0  0.265863  0  3.95207  0  0  0.270623  0  3.970477  0  0  0.111099  0.262237  0  3.941707  0
C  C41  1  0.83348472  0.94213114  0.54327697  1  0  0.256004  0  3.710469  0  0  0.26386  0  3.955588  0  0  0.268669  0  3.97352  0  0  0.109847  0.260726  0  3.944565  0
C  C42  1  0.12337284  0.55799188  0.54291127  1  0  0.2534  0  3.712747  0  0  0.262182  0  3.95651  0  0  0.267059  0  3.974458  0  0  0.110009  0.259127  0  3.945368  0
C  C43  1  0.72442345  0.94211328  0.95679913  1  0  0.256181  0  3.711864  0  0  0.264354  0  3.956608  0  0  0.269196  0  3.974826  0  0  0.110389  0.260714  0  3.946312  0
C  C44  1  0.63244055  0.93134954  0.06523701  1  0  0.016219  0  3.64568  0  0  -0.015561  0  3.895601  0  0  -0.012649  0  3.907157  0  0  0.035404  -0.018592  0  3.890407  0
C  C45  1  0.12819319  0.56941419  0.43463155  1  0  0.019672  0  3.643313  0  0  -0.01249  0  3.892475  0  0  -0.009572  0  3.903873  0  0  0.037034  -0.014971  0  3.887622  0
C  C46  1  0.93627758  0.93118869  0.43484884  1  0  0.01615  0  3.645803  0  0  -0.015717  0  3.895529  0  0  -0.012646  0  3.906718  0  0  0.036032  -0.018285  0  3.890936  0
C  C47  1  0.80221605  0.56944456  0.06529775  1  0  0.017559  0  3.644044  0  0  -0.014548  0  3.893625  0  0  -0.011755  0  3.905439  0  0  0.036511  -0.017447  0  3.888048  0
C  C48  1  0.19778097  0.43056040  0.93469727  1  0  0.017445  0  3.643774  0  0  -0.014729  0  3.893527  0  0  -0.011932  0  3.905337  0  0  0.036428  -0.017646  0  3.887929  0
C  C49  1  0.06375462  0.06880075  0.56515647  1  0  0.016036  0  3.64577  0  0  -0.015943  0  3.895439  0  0  -0.012872  0  3.906634  0  0  0.035885  -0.018504  0  3.890835  0
C  C50  1  0.87181737  0.43058744  0.56535636  1  0  0.019767  0  3.643431  0  0  -0.012489  0  3.892554  0  0  -0.009565  0  3.903943  0  0  0.037012  -0.014971  0  3.887698  0
C  C51  1  0.36754547  0.06865875  0.93476727  1  0  0.016102  0  3.645973  0  0  -0.01568  0  3.895804  0  0  -0.012768  0  3.907363  0  0  0.035404  -0.018722  0  3.890592  0
C  C52  1  0.03092021  0.12354217  0.09018644  1  0  -0.379609  0  3.71178  0  0  -0.459974  0  3.946759  0  0  -0.463295  0  3.953497  0  0  -0.246007  -0.457501  0  3.943355  0
C  C53  1  0.74465489  0.37633485  0.41026495  1  0  -0.380068  0  3.713553  0  0  -0.460281  0  3.948125  0  0  -0.463649  0  3.954597  0  0  -0.245589  -0.457794  0  3.943785  0
C  C54  1  0.34563286  0.12344348  0.40974104  1  0  -0.380749  0  3.712527  0  0  -0.460599  0  3.947848  0  0  -0.463918  0  3.954361  0  0  -0.246031  -0.458086  0  3.94358  0
C  C55  1  0.37891674  0.37672674  0.08987363  1  0  -0.381286  0  3.71198  0  0  -0.461696  0  3.946462  0  0  -0.464977  0  3.953167  0  0  -0.246446  -0.459286  0  3.942989  0
C  C56  1  0.62106913  0.62327711  0.91012674  1  0  -0.381093  0  3.711773  0  0  -0.461535  0  3.946192  0  0  -0.464819  0  3.952904  0  0  -0.246418  -0.459121  0  3.942726  0
C  C57  1  0.65436948  0.87655482  0.59026138  1  0  -0.380852  0  3.712655  0  0  -0.460671  0  3.947986  0  0  -0.463999  0  3.954505  0  0  -0.246016  -0.458162  0  3.943711  0
C  C58  1  0.25534793  0.62366900  0.58972641  1  0  -0.379867  0  3.713607  0  0  -0.460025  0  3.948249  0  0  -0.463375  0  3.954697  0  0  -0.245557  -0.457539  0  3.943906  0
C  C59  1  0.96908135  0.87644949  0.90981536  1  0  -0.379782  0  3.712047  0  0  -0.4601  0  3.947083  0  0  -0.463433  0  3.953815  0  0  -0.246071  -0.457626  0  3.943679  0
N  N60  1  0.41086313  0.98675926  0.10924287  1  0  -0.305964  0  3.362936  0  0  -0.244534  0  3.660853  0  0  -0.24503  0  3.66368  0  0  -0.36906  -0.245541  0  3.65936  0
N  N61  1  0.00584334  0.51393176  0.39104189  1  0  -0.303741  0  3.361615  0  0  -0.241953  0  3.658711  0  0  -0.242633  0  3.661568  0  0  -0.367536  -0.24245  0  3.656593  0
N  N62  1  0.10238553  0.98661143  0.39077826  1  0  -0.304824  0  3.361872  0  0  -0.243651  0  3.659898  0  0  -0.243993  0  3.662548  0  0  -0.368399  -0.244463  0  3.657966  0
N  N63  1  0.98002121  0.51410865  0.10893584  1  0  -0.302898  0  3.360332  0  0  -0.24025  0  3.656175  0  0  -0.241048  0  3.659238  0  0  -0.366484  -0.240938  0  3.654429  0
N  N64  1  0.01997263  0.48590074  0.89106169  1  0  -0.302736  0  3.360336  0  0  -0.240077  0  3.656108  0  0  -0.240872  0  3.659164  0  0  -0.366302  -0.240746  0  3.654375  0
N  N65  1  0.89763442  0.01338022  0.60922717  1  0  -0.30471  0  3.361206  0  0  -0.243381  0  3.659201  0  0  -0.24374  0  3.661885  0  0  -0.368158  -0.244189  0  3.657246  0
N  N66  1  0.99414961  0.48607541  0.60894825  1  0  -0.303675  0  3.361611  0  0  -0.241844  0  3.658784  0  0  -0.242525  0  3.661637  0  0  -0.367459  -0.24234  0  3.656661  0
N  N67  1  0.58912389  0.01324237  0.89076372  1  0  -0.305814  0  3.36274  0  0  -0.244358  0  3.660798  0  0  -0.244866  0  3.66366  0  0  -0.368953  -0.245363  0  3.65929  0
Cl  Cl68  1  0.59164592  0.75006224  0.31543768  1  0  -0.603427  0  1.178942  0  0  -0.536749  0  1.512062  0  0  -0.55086  0  1.48859  0  0  -0.317351  -0.525644  0  1.52684  0
Cl  Cl69  1  0.15808618  0.75010882  0.18456849  1  0  -0.605175  0  1.179726  0  0  -0.53928  0  1.513968  0  0  -0.552909  0  1.490127  0  0  -0.317626  -0.526366  0  1.528024  0
Cl  Cl70  1  0.40835679  0.24994271  0.68456263  1  0  -0.60343  0  1.178939  0  0  -0.536769  0  1.512087  0  0  -0.550893  0  1.488627  0  0  -0.317363  -0.525673  0  1.526858  0
Cl  Cl71  1  0.84191294  0.24990058  0.81543161  1  0  -0.605135  0  1.179662  0  0  -0.53925  0  1.513939  0  0  -0.552897  0  1.490117  0  0  -0.31763  -0.526344  0  1.527988  0
