# generated using pymatgen
data_ZnH12C12S(NO3)2
_symmetry_space_group_name_H-M   'P 1'
_cell_length_a   6.81293716
_cell_length_b   10.25850545
_cell_length_c   10.25856146
_cell_angle_alpha   86.42693924
_cell_angle_beta   78.78359888
_cell_angle_gamma   78.78322239
_symmetry_Int_Tables_number   1
_chemical_formula_structural   ZnH12C12S(NO3)2
_chemical_formula_sum   'Zn2 H24 C24 S2 N4 O12'
_cell_volume   689.62462313
_cell_formula_units_Z   2
loop_
 _symmetry_equiv_pos_site_id
 _symmetry_equiv_pos_as_xyz
  1  'x, y, z'
loop_
 _atom_site_type_symbol
 _atom_site_label
 _atom_site_symmetry_multiplicity
 _atom_site_fract_x
 _atom_site_fract_y
 _atom_site_fract_z
 _atom_site_occupancy
 _atom_site_pbe_bader_spin_density
 _atom_site_pbe_cm5_charge
 _atom_site_pbe_ddec_charge
 _atom_site_pbe_ddec_spin_density
 _atom_site_pbe_ddec_sum_bond_order
 _atom_site_pbe_magmom
Zn  Zn0  1  0.25000230  0.19612386  0.80387583  1  0  0.68872  0.884179  0  2.230128  0
Zn  Zn1  1  0.74999941  0.80387637  0.19612407  1  0  0.688707  0.884165  0  2.230142  0
H  H2  1  0.29233866  0.02510045  0.54794877  1  0  0.120109  0.09266  0  0.994619  0
H  H3  1  0.20765562  0.45205259  0.97489815  1  0  0.120114  0.092648  0  0.994623  0
H  H4  1  0.70765882  0.97489881  0.45205170  1  0  0.120104  0.09265  0  0.994645  0
H  H5  1  0.79234735  0.54794861  0.02510057  1  0  0.120111  0.092664  0  0.994578  0
H  H6  1  0.30814449  0.07580117  0.30382769  1  0  0.109142  0.128903  0  1.032544  0
H  H7  1  0.19185555  0.69617573  0.92419667  1  0  0.10916  0.128884  0  1.032581  0
H  H8  1  0.69186225  0.92419703  0.69617175  1  0  0.109161  0.128893  0  1.032562  0
H  H9  1  0.80815043  0.30382544  0.07580071  1  0  0.10915  0.128884  0  1.032597  0
H  H10  1  0.29384046  0.31183270  0.22098277  1  0  0.110921  0.115791  0  0.994664  0
H  H11  1  0.20616300  0.77902031  0.68816693  1  0  0.110949  0.11587  0  0.99468  0
H  H12  1  0.70616748  0.68816649  0.77901743  1  0  0.110968  0.115872  0  0.994747  0
H  H13  1  0.79383999  0.22098088  0.31183081  1  0  0.110971  0.115878  0  0.994758  0
H  H14  1  0.26360194  0.55693592  0.27717226  1  0  0.107572  0.123654  0  0.997178  0
H  H15  1  0.23639480  0.72283130  0.44306870  1  0  0.107557  0.123621  0  0.997185  0
H  H16  1  0.73639675  0.44306433  0.72282899  1  0  0.107571  0.12366  0  0.997155  0
H  H17  1  0.76360241  0.27716896  0.55693175  1  0  0.107564  0.123617  0  0.997221  0
H  H18  1  0.10359370  0.99060713  0.81234133  1  0  0.28686  0.375403  0  0.977354  0
H  H19  1  0.39640293  0.18766004  0.00939334  1  0  0.286857  0.375435  0  0.977316  0
H  H20  1  0.89640678  0.00939211  0.18765878  1  0  0.286851  0.375411  0  0.97735  0
H  H21  1  0.60359701  0.81234119  0.99060671  1  0  0.286871  0.37544  0  0.977304  0
H  H22  1  0.30090254  0.94090755  0.87525555  1  0  0.291199  0.390851  0  0.946821  0
H  H23  1  0.19909422  0.12474443  0.05909157  1  0  0.291193  0.39086  0  0.946813  0
H  H24  1  0.69909796  0.05909168  0.12474360  1  0  0.29122  0.390879  0  0.946784  0
H  H25  1  0.80090451  0.87525581  0.94090772  1  0  0.291188  0.390837  0  0.946848  0
C  C26  1  0.28584392  0.12650421  0.50780253  1  0  0.060397  0.109597  0  3.923099  0
C  C27  1  0.21414886  0.49220072  0.87349541  1  0  0.060379  0.109619  0  3.923092  0
C  C28  1  0.71415631  0.87349601  0.49219657  1  0  0.060391  0.109591  0  3.923064  0
C  C29  1  0.78585408  0.50780048  0.12650429  1  0  0.060411  0.109652  0  3.923057  0
C  C30  1  0.29583391  0.15584692  0.37138014  1  0  -0.080214  -0.116074  0  3.941144  0
C  C31  1  0.20416843  0.62861996  0.84415472  1  0  -0.080214  -0.116033  0  3.941157  0
C  C32  1  0.70417256  0.84415228  0.62861927  1  0  -0.080241  -0.116062  0  3.94104  0
C  C33  1  0.79583480  0.37138025  0.15584403  1  0  -0.080212  -0.11606  0  3.941085  0
C  C34  1  0.28756459  0.28653428  0.32642587  1  0  -0.059869  -0.065803  0  3.902954  0
C  C35  1  0.21243668  0.67357506  0.71346403  1  0  -0.059872  -0.06591  0  3.902944  0
C  C36  1  0.71243787  0.71346297  0.67357610  1  0  -0.059893  -0.065904  0  3.902987  0
C  C37  1  0.78756786  0.32642018  0.28653586  1  0  -0.059884  -0.065884  0  3.902871  0
C  C38  1  0.26894062  0.38769620  0.41778667  1  0  -0.00145  0.034885  0  4.022629  0
C  C39  1  0.23105445  0.58221472  0.61230591  1  0  -0.001461  0.034909  0  4.02259  0
C  C40  1  0.73105659  0.61230406  0.58221378  1  0  -0.001406  0.034951  0  4.022535  0
C  C41  1  0.76894155  0.41778455  0.38769376  1  0  -0.001469  0.034867  0  4.022537  0
C  C42  1  0.26010664  0.34814843  0.55346161  1  0  0.120038  0.122622  0  3.9814  0
C  C43  1  0.23988438  0.44654047  0.65185141  1  0  0.12006  0.122619  0  3.981278  0
C  C44  1  0.73988941  0.65185082  0.44653611  1  0  0.120015  0.122617  0  3.98134  0
C  C45  1  0.76010908  0.55346278  0.34814733  1  0  0.12005  0.122607  0  3.981367  0
C  C46  1  0.25857099  0.52558630  0.38118046  1  0  -0.081386  -0.112431  0  3.95177  0
C  C47  1  0.24142859  0.61881921  0.47441456  1  0  -0.081343  -0.112343  0  3.951725  0
C  C48  1  0.74142775  0.47441394  0.61881882  1  0  -0.081354  -0.112403  0  3.951769  0
C  C49  1  0.75856886  0.38118006  0.52558689  1  0  -0.081369  -0.112364  0  3.951791  0
S  S50  1  0.74999582  0.14235815  0.85764452  1  0  0.567271  1.40697  0  6.3815  0
S  S51  1  0.25000262  0.85764309  0.14235571  1  0  0.567276  1.406986  0  6.381468  0
N  N52  1  0.26922919  0.21989037  0.59583455  1  0  -0.317287  -0.258154  0  3.539514  0
N  N53  1  0.23076107  0.40416687  0.78011218  1  0  -0.317336  -0.258192  0  3.539314  0
N  N54  1  0.73076832  0.78010888  0.40416495  1  0  -0.317301  -0.258165  0  3.539467  0
N  N55  1  0.76923641  0.59583239  0.21988830  1  0  -0.317367  -0.258228  0  3.539457  0
O  O56  1  0.25330268  0.99402461  0.79829240  1  0  -0.58168  -0.762413  0  2.148532  0
O  O57  1  0.24669549  0.20170879  0.00597580  1  0  -0.581682  -0.762468  0  2.148481  0
O  O58  1  0.74669777  0.00597464  0.20170870  1  0  -0.581693  -0.762453  0  2.148482  0
O  O59  1  0.75330622  0.79829143  0.99402410  1  0  -0.581695  -0.762445  0  2.148526  0
O  O60  1  0.60141519  0.17055558  0.76679109  1  0  -0.356353  -0.661771  0  2.253829  0
O  O61  1  0.89857167  0.23321387  0.82944708  1  0  -0.356367  -0.66183  0  2.253832  0
O  O62  1  0.39858473  0.82944565  0.23320994  1  0  -0.356344  -0.661778  0  2.25382  0
O  O63  1  0.10142522  0.76678739  0.17055529  1  0  -0.356359  -0.661831  0  2.253835  0
O  O64  1  0.86292261  0.00073603  0.84185819  1  0  -0.356052  -0.663319  0  2.239323  0
O  O65  1  0.63707312  0.15814176  0.99926709  1  0  -0.355929  -0.663232  0  2.239291  0
O  O66  1  0.13707615  0.99926420  0.15814012  1  0  -0.356047  -0.663317  0  2.239351  0
O  O67  1  0.36292559  0.84185848  0.00073317  1  0  -0.355949  -0.663236  0  2.239221  0
