# generated using pymatgen
data_ZnH22C32(N2O)4
_symmetry_space_group_name_H-M   'P 1'
_cell_length_a   9.22570622
_cell_length_b   13.92522250
_cell_length_c   13.81267552
_cell_angle_alpha   89.99992117
_cell_angle_beta   89.99976958
_cell_angle_gamma   109.34622578
_symmetry_Int_Tables_number   1
_chemical_formula_structural   ZnH22C32(N2O)4
_chemical_formula_sum   'Zn2 H44 C64 N16 O8'
_cell_volume   1674.31482540
_cell_formula_units_Z   2
loop_
 _symmetry_equiv_pos_site_id
 _symmetry_equiv_pos_as_xyz
  1  'x, y, z'
loop_
 _atom_site_type_symbol
 _atom_site_label
 _atom_site_symmetry_multiplicity
 _atom_site_fract_x
 _atom_site_fract_y
 _atom_site_fract_z
 _atom_site_occupancy
 _atom_site_hle17_bader_spin_density
 _atom_site_hle17_ddec_charge
 _atom_site_hle17_ddec_spin_density
 _atom_site_hle17_ddec_sum_bond_order
 _atom_site_hle17_magmom
 _atom_site_hse06_10hf_bader_spin_density
 _atom_site_hse06_10hf_ddec_charge
 _atom_site_hse06_10hf_ddec_spin_density
 _atom_site_hse06_10hf_ddec_sum_bond_order
 _atom_site_hse06_10hf_magmom
 _atom_site_hse06_bader_spin_density
 _atom_site_hse06_ddec_charge
 _atom_site_hse06_ddec_spin_density
 _atom_site_hse06_ddec_sum_bond_order
 _atom_site_hse06_magmom
 _atom_site_pbe_bader_spin_density
 _atom_site_pbe_cm5_charge
 _atom_site_pbe_ddec_charge
 _atom_site_pbe_ddec_spin_density
 _atom_site_pbe_ddec_sum_bond_order
 _atom_site_pbe_magmom
Zn  Zn0  1  0.50000316  0.00000045  0.50000021  1  0  0.878382  0  1.992433  0  0  0.680794  0  2.445757  0  0  0.727017  0  2.402491  0  0  0.668643  0.648843  0  2.474908  0
Zn  Zn1  1  0.99999536  0.99999971  0.00000086  1  0  0.87835  0  1.992448  0  0  0.680775  0  2.445762  0  0  0.727006  0  2.402499  0  0  0.66866  0.648825  0  2.474926  0
H  H2  1  0.78551499  0.97356681  0.38811787  1  0  0.079038  0  0.948026  0  0  0.08712  0  1.010702  0  0  0.089689  0  1.008787  0  0  0.115724  0.085137  0  1.012232  0
H  H3  1  0.71447650  0.02642608  0.88812674  1  0  0.079054  0  0.947927  0  0  0.087118  0  1.010623  0  0  0.089701  0  1.008693  0  0  0.11575  0.085139  0  1.012148  0
H  H4  1  0.21448280  0.02643290  0.61188042  1  0  0.079034  0  0.947957  0  0  0.087118  0  1.010627  0  0  0.089687  0  1.008711  0  0  0.115721  0.085131  0  1.012155  0
H  H5  1  0.28551945  0.97357211  0.11186793  1  0  0.079054  0  0.94794  0  0  0.087133  0  1.010618  0  0  0.089705  0  1.0087  0  0  0.115714  0.085149  0  1.012141  0
H  H6  1  0.98726671  0.06505542  0.26710039  1  0  0.108527  0  0.942497  0  0  0.117544  0  1.000855  0  0  0.120571  0  1.000802  0  0  0.110052  0.115367  0  1.001139  0
H  H7  1  0.51271441  0.93493479  0.76711797  1  0  0.108526  0  0.942655  0  0  0.117664  0  1.000868  0  0  0.120697  0  1.000801  0  0  0.110093  0.115483  0  1.001148  0
H  H8  1  0.01272885  0.93494201  0.73289645  1  0  0.108525  0  0.942533  0  0  0.117552  0  1.000873  0  0  0.120573  0  1.000832  0  0  0.110049  0.115367  0  1.001157  0
H  H9  1  0.48728403  0.06506189  0.23287670  1  0  0.10843  0  0.942747  0  0  0.11764  0  1.000892  0  0  0.120668  0  1.00084  0  0  0.110102  0.115459  0  1.001177  0
H  H10  1  0.00751481  0.24085985  0.21711127  1  0  0.094565  0  0.997741  0  0  0.102148  0  1.066819  0  0  0.104969  0  1.064607  0  0  0.107905  0.100046  0  1.068439  0
H  H11  1  0.49247191  0.75913266  0.71712418  1  0  0.094547  0  0.997672  0  0  0.102135  0  1.066752  0  0  0.104953  0  1.064547  0  0  0.107913  0.100031  0  1.068367  0
H  H12  1  0.99248477  0.75913911  0.78288774  1  0  0.09456  0  0.997788  0  0  0.102138  0  1.066862  0  0  0.104981  0  1.064575  0  0  0.107901  0.100041  0  1.06847  0
H  H13  1  0.50752577  0.24086249  0.28287628  1  0  0.094587  0  0.997649  0  0  0.102207  0  1.066639  0  0  0.105028  0  1.064435  0  0  0.107918  0.100114  0  1.068233  0
H  H14  1  0.63904910  0.22330696  0.41467679  1  0  0.078748  0  0.97909  0  0  0.082827  0  1.0501  0  0  0.085701  0  1.047712  0  0  0.114457  0.080695  0  1.051847  0
H  H15  1  0.86095677  0.77669119  0.91467338  1  0  0.078773  0  0.979033  0  0  0.082822  0  1.050055  0  0  0.085664  0  1.047727  0  0  0.114456  0.080685  0  1.051808  0
H  H16  1  0.36095378  0.77669428  0.58532584  1  0  0.078747  0  0.979083  0  0  0.082852  0  1.050031  0  0  0.085726  0  1.047641  0  0  0.114464  0.080719  0  1.051777  0
H  H17  1  0.13904102  0.22330853  0.08532708  1  0  0.078759  0  0.979019  0  0  0.0828  0  1.050053  0  0  0.085671  0  1.047672  0  0  0.11445  0.080667  0  1.051803  0
H  H18  1  0.11389791  0.50602449  0.11042850  1  0  0.081201  0  0.937907  0  0  0.089861  0  1.005108  0  0  0.093739  0  1.000377  0  0  0.114759  0.087037  0  1.008516  0
H  H19  1  0.38610391  0.49397749  0.61042831  1  0  0.081173  0  0.937994  0  0  0.089826  0  1.0052  0  0  0.093705  0  1.000466  0  0  0.11477  0.087003  0  1.008605  0
H  H20  1  0.88610356  0.49397827  0.88957196  1  0  0.081138  0  0.937911  0  0  0.089804  0  1.005114  0  0  0.093655  0  1.000417  0  0  0.114747  0.086978  0  1.008521  0
H  H21  1  0.61390146  0.50602224  0.38956709  1  0  0.08118  0  0.938  0  0  0.089816  0  1.005226  0  0  0.093689  0  1.000504  0  0  0.114756  0.086992  0  1.008632  0
H  H22  1  0.22518820  0.62168104  0.99728687  1  0  0.095447  0  0.930891  0  0  0.109438  0  0.984291  0  0  0.112281  0  0.982304  0  0  0.104891  0.107362  0  0.98575  0
H  H23  1  0.27481582  0.37832129  0.49728681  1  0  0.095415  0  0.931053  0  0  0.109412  0  0.984437  0  0  0.11225  0  0.982449  0  0  0.104912  0.107335  0  0.985892  0
H  H24  1  0.77481181  0.37832096  0.00271359  1  0  0.095452  0  0.931029  0  0  0.109485  0  0.984368  0  0  0.112327  0  0.98238  0  0  0.104903  0.107408  0  0.985823  0
H  H25  1  0.72518739  0.62167843  0.50271293  1  0  0.095464  0  0.93102  0  0  0.109518  0  0.984335  0  0  0.112367  0  0.982342  0  0  0.104923  0.107441  0  0.985792  0
H  H26  1  0.28182383  0.78496920  0.91066624  1  0  0.107639  0  0.957533  0  0  0.118692  0  1.017675  0  0  0.121625  0  1.018368  0  0  0.095165  0.116659  0  1.017267  0
H  H27  1  0.21817438  0.21503567  0.41066511  1  0  0.107657  0  0.957527  0  0  0.118712  0  1.01767  0  0  0.121651  0  1.018348  0  0  0.09516  0.116687  0  1.017256  0
H  H28  1  0.71817005  0.21503356  0.08933350  1  0  0.107648  0  0.957544  0  0  0.118693  0  1.017694  0  0  0.121632  0  1.018371  0  0  0.095152  0.116667  0  1.017279  0
H  H29  1  0.78182628  0.78496329  0.58933463  1  0  0.107663  0  0.957523  0  0  0.118722  0  1.017643  0  0  0.121659  0  1.018325  0  0  0.095173  0.116691  0  1.017228  0
H  H30  1  0.84571216  0.62556413  0.24179445  1  0  0.107618  0  0.978094  0  0  0.109495  0  1.049943  0  0  0.113915  0  1.045756  0  0  0.107763  0.106314  0  1.052922  0
H  H31  1  0.65429045  0.37444063  0.74178853  1  0  0.107582  0  0.97805  0  0  0.109464  0  1.049889  0  0  0.113877  0  1.045718  0  0  0.107745  0.106281  0  1.052876  0
H  H32  1  0.15428855  0.37443712  0.75820818  1  0  0.107544  0  0.978046  0  0  0.109429  0  1.049892  0  0  0.113843  0  1.045709  0  0  0.107718  0.106245  0  1.052873  0
H  H33  1  0.34571465  0.62556290  0.25820976  1  0  0.107509  0  0.978011  0  0  0.109354  0  1.049906  0  0  0.113772  0  1.045721  0  0  0.107693  0.106176  0  1.052882  0
H  H34  1  0.72738425  0.75743076  0.28406005  1  0  0.093276  0  1.006216  0  0  0.099441  0  1.072292  0  0  0.101383  0  1.074466  0  0  0.097374  0.098033  0  1.070929  0
H  H35  1  0.77261181  0.24257006  0.78405471  1  0  0.093204  0  1.006246  0  0  0.099401  0  1.072292  0  0  0.101342  0  1.074469  0  0  0.097363  0.097994  0  1.070927  0
H  H36  1  0.27260806  0.24256667  0.71594114  1  0  0.093166  0  1.006249  0  0  0.099403  0  1.072285  0  0  0.101349  0  1.074447  0  0  0.097344  0.097994  0  1.070924  0
H  H37  1  0.22739221  0.75743347  0.21594503  1  0  0.093136  0  1.006237  0  0  0.099399  0  1.072242  0  0  0.101343  0  1.074409  0  0  0.097365  0.09799  0  1.070881  0
H  H38  1  0.79081073  0.91686974  0.18207454  1  0  0.082237  0  0.932779  0  0  0.091191  0  0.995376  0  0  0.094382  0  0.992231  0  0  0.116953  0.088879  0  0.997643  0
H  H39  1  0.70918610  0.08313139  0.68207104  1  0  0.082309  0  0.93266  0  0  0.091241  0  0.995275  0  0  0.094432  0  0.99213  0  0  0.116979  0.088927  0  0.99754  0
H  H40  1  0.20917941  0.08312769  0.81792737  1  0  0.082293  0  0.932792  0  0  0.091243  0  0.995368  0  0  0.094433  0  0.992224  0  0  0.11697  0.08893  0  0.99763  0
H  H41  1  0.29082042  0.91687062  0.31793087  1  0  0.082346  0  0.932719  0  0  0.091273  0  0.995329  0  0  0.094464  0  0.992185  0  0  0.116994  0.088958  0  0.997594  0
H  H42  1  0.02748109  0.38787057  0.21459245  1  0  0.290543  0  0.940331  0  0  0.269949  0  1.011365  0  0  0.277931  0  1.005668  0  0  0.312479  0.264307  0  1.015426  0
H  H43  1  0.47252174  0.61213034  0.71459185  1  0  0.290474  0  0.940299  0  0  0.269866  0  1.011379  0  0  0.277847  0  1.005677  0  0  0.312434  0.264224  0  1.015436  0
H  H44  1  0.97252179  0.61213068  0.78540802  1  0  0.290471  0  0.940326  0  0  0.269859  0  1.011407  0  0  0.277184  0  1.005279  0  0  0.312449  0.264218  0  1.015468  0
H  H45  1  0.52747784  0.38786862  0.28540571  1  0  0.290544  0  0.940302  0  0  0.269376  0  1.010948  0  0  0.27727  0  1.005226  0  0  0.312472  0.263793  0  1.015033  0
C  C46  1  0.79974662  0.05119257  0.36542845  1  0  0.129767  0  3.691  0  0  0.09871  0  3.940795  0  0  0.107544  0  3.95567  0  0  0.050208  0.093046  0  3.930786  0
C  C47  1  0.70024720  0.94880040  0.86543682  1  0  0.129853  0  3.691019  0  0  0.098776  0  3.940855  0  0  0.1076  0  3.955724  0  0  0.050163  0.093103  0  3.93085  0
C  C48  1  0.20025366  0.94880563  0.63456984  1  0  0.129823  0  3.690924  0  0  0.098777  0  3.940727  0  0  0.107606  0  3.955611  0  0  0.050241  0.093115  0  3.930707  0
C  C49  1  0.29974912  0.05119856  0.13456002  1  0  0.12974  0  3.691103  0  0  0.09864  0  3.940964  0  0  0.107469  0  3.955845  0  0  0.050153  0.092978  0  3.930942  0
C  C50  1  0.91204618  0.10253718  0.29880685  1  0  -0.113492  0  3.730763  0  0  -0.122988  0  3.98553  0  0  -0.130069  0  4.004078  0  0  -0.080779  -0.118769  0  3.973326  0
C  C51  1  0.58794126  0.89745522  0.79881849  1  0  -0.113692  0  3.730834  0  0  -0.123308  0  3.985653  0  0  -0.130389  0  4.004202  0  0  -0.080839  -0.11908  0  3.973435  0
C  C52  1  0.08795047  0.89746025  0.70119217  1  0  -0.113593  0  3.730909  0  0  -0.12311  0  3.985673  0  0  -0.130209  0  4.004263  0  0  -0.08084  -0.11888  0  3.973453  0
C  C53  1  0.41205647  0.10254222  0.20117763  1  0  -0.113437  0  3.730739  0  0  -0.123133  0  3.985601  0  0  -0.130218  0  4.004158  0  0  -0.080807  -0.118904  0  3.973381  0
C  C54  1  0.92372050  0.20106244  0.27147752  1  0  -0.013321  0  3.686562  0  0  -0.045618  0  3.937156  0  0  -0.039109  0  3.953476  0  0  -0.06207  -0.049481  0  3.926105  0
C  C55  1  0.57627115  0.79893156  0.77148715  1  0  -0.013123  0  3.686304  0  0  -0.045438  0  3.936932  0  0  -0.038931  0  3.953243  0  0  -0.062057  -0.049296  0  3.92587  0
C  C56  1  0.07627690  0.79893651  0.72852222  1  0  -0.013266  0  3.686632  0  0  -0.045513  0  3.937197  0  0  -0.039006  0  3.95358  0  0  -0.062024  -0.049378  0  3.926152  0
C  C57  1  0.42372550  0.20106587  0.22851186  1  0  -0.013262  0  3.686248  0  0  -0.045608  0  3.936974  0  0  -0.039101  0  3.953294  0  0  -0.062075  -0.049471  0  3.925934  0
C  C58  1  0.82550474  0.24705702  0.31402767  1  0  -0.108525  0  3.75685  0  0  -0.082371  0  3.991292  0  0  -0.094564  0  4.014929  0  0  -0.010707  -0.074914  0  3.975676  0
C  C59  1  0.67449348  0.75293762  0.81403276  1  0  -0.10867  0  3.75669  0  0  -0.08236  0  3.991004  0  0  -0.094581  0  4.014723  0  0  -0.010686  -0.074916  0  3.975407  0
C  C60  1  0.17449597  0.75294422  0.68597135  1  0  -0.108487  0  3.75677  0  0  -0.082368  0  3.99119  0  0  -0.094594  0  4.014923  0  0  -0.010709  -0.07492  0  3.975596  0
C  C61  1  0.32550241  0.24705829  0.18596771  1  0  -0.108661  0  3.756899  0  0  -0.082423  0  3.991222  0  0  -0.094612  0  4.014854  0  0  -0.010727  -0.074969  0  3.975617  0
C  C62  1  0.71716885  0.18949316  0.38083388  1  0  0.121263  0  3.672407  0  0  0.084413  0  3.917392  0  0  0.092757  0  3.934103  0  0  0.053154  0.079125  0  3.90616  0
C  C63  1  0.78283288  0.81050281  0.88083353  1  0  0.121157  0  3.672334  0  0  0.084361  0  3.917221  0  0  0.092681  0  3.933985  0  0  0.053066  0.079081  0  3.905991  0
C  C64  1  0.28283257  0.81050732  0.61916730  1  0  0.121266  0  3.672405  0  0  0.084487  0  3.917308  0  0  0.092824  0  3.934043  0  0  0.053134  0.079207  0  3.906073  0
C  C65  1  0.21716415  0.18949539  0.11916621  1  0  0.121282  0  3.672434  0  0  0.084464  0  3.917348  0  0  0.09281  0  3.934052  0  0  0.053125  0.079183  0  3.906112  0
C  C66  1  0.81915380  0.35016132  0.28943353  1  0  0.509725  0  3.857297  0  0  0.460446  0  4.145308  0  0  0.491142  0  4.144379  0  0  0.235424  0.439972  0  4.145327  0
C  C67  1  0.68084612  0.64983644  0.78943584  1  0  0.50999  0  3.857039  0  0  0.460712  0  4.145208  0  0  0.491162  0  4.14443  0  0  0.235465  0.440208  0  4.145257  0
C  C68  1  0.18084578  0.64983764  0.71056621  1  0  0.509711  0  3.857362  0  0  0.460672  0  4.145235  0  0  0.491426  0  4.144319  0  0  0.235441  0.440163  0  4.145292  0
C  C69  1  0.31915237  0.35016251  0.21056679  1  0  0.509751  0  3.857477  0  0  0.460727  0  4.145348  0  0  0.491465  0  4.144399  0  0  0.235443  0.440207  0  4.1454  0
C  C70  1  0.03475301  0.54473885  0.13619839  1  0  0.061074  0  3.716212  0  0  0.025082  0  3.992346  0  0  0.034664  0  4.005765  0  0  0.054154  0.018857  0  3.983041  0
C  C71  1  0.46524938  0.45526457  0.63619586  1  0  0.061212  0  3.716104  0  0  0.025234  0  3.992249  0  0  0.034818  0  4.005664  0  0  0.054185  0.019007  0  3.982943  0
C  C72  1  0.96525063  0.45526391  0.86380280  1  0  0.061218  0  3.716118  0  0  0.025247  0  3.992261  0  0  0.034806  0  4.005775  0  0  0.054187  0.019029  0  3.982946  0
C  C73  1  0.53475388  0.54473744  0.36380098  1  0  0.061145  0  3.716183  0  0  0.025147  0  3.992394  0  0  0.034729  0  4.005817  0  0  0.054144  0.018923  0  3.983082  0
C  C74  1  0.05555874  0.64270125  0.09331667  1  0  -0.050571  0  3.842158  0  0  -0.039438  0  4.089561  0  0  -0.050181  0  4.119716  0  0  -0.035679  -0.032205  0  4.068903  0
C  C75  1  0.44444034  0.35730154  0.59330999  1  0  -0.050533  0  3.842095  0  0  -0.039473  0  4.08953  0  0  -0.050215  0  4.119679  0  0  -0.0357  -0.03224  0  4.068874  0
C  C76  1  0.94444127  0.35730075  0.90668669  1  0  -0.050593  0  3.842114  0  0  -0.039553  0  4.089597  0  0  -0.050312  0  4.119789  0  0  -0.035713  -0.032319  0  4.068936  0
C  C77  1  0.55556292  0.64270046  0.40668686  1  0  -0.050533  0  3.842206  0  0  -0.039473  0  4.089669  0  0  -0.050218  0  4.119828  0  0  -0.035698  -0.032236  0  4.069002  0
C  C78  1  0.16422504  0.67371004  0.01819565  1  0  -0.060248  0  3.781314  0  0  -0.086775  0  4.042805  0  0  -0.081919  0  4.064247  0  0  -0.083181  -0.089607  0  4.027776  0
C  C79  1  0.33577715  0.32629374  0.51819292  1  0  -0.060226  0  3.781517  0  0  -0.08677  0  4.043081  0  0  -0.081893  0  4.06448  0  0  -0.08321  -0.089599  0  4.028045  0
C  C80  1  0.83577426  0.32629272  0.98180626  1  0  -0.060256  0  3.781329  0  0  -0.086804  0  4.042852  0  0  -0.081939  0  4.064265  0  0  -0.083191  -0.089635  0  4.02782  0
C  C81  1  0.66422460  0.67370522  0.48180537  1  0  -0.060309  0  3.781465  0  0  -0.086888  0  4.042983  0  0  -0.082024  0  4.064389  0  0  -0.083195  -0.089723  0  4.027951  0
C  C82  1  0.19697314  0.76561347  0.96868989  1  0  -0.220403  0  3.765428  0  0  -0.244086  0  4.031243  0  0  -0.256764  0  4.054441  0  0  -0.124952  -0.235587  0  4.015301  0
C  C83  1  0.30302642  0.23439046  0.46868777  1  0  -0.220494  0  3.765492  0  0  -0.244236  0  4.031388  0  0  -0.256883  0  4.054514  0  0  -0.125006  -0.235746  0  4.015447  0
C  C84  1  0.80302290  0.23438928  0.03131202  1  0  -0.220452  0  3.765446  0  0  -0.24416  0  4.031278  0  0  -0.256804  0  4.054398  0  0  -0.124986  -0.235673  0  4.015337  0
C  C85  1  0.69697636  0.76560622  0.53131196  1  0  -0.220468  0  3.765381  0  0  -0.244178  0  4.031243  0  0  -0.256824  0  4.054368  0  0  -0.125039  -0.235681  0  4.015296  0
C  C86  1  0.12024571  0.83523922  0.99135536  1  0  0.294009  0  3.919582  0  0  0.279508  0  4.186588  0  0  0.297255  0  4.20105  0  0  0.084018  0.267529  0  4.176428  0
C  C87  1  0.37975330  0.16476389  0.49135168  1  0  0.294052  0  3.919524  0  0  0.27958  0  4.186509  0  0  0.29733  0  4.20096  0  0  0.084053  0.2676  0  4.176353  0
C  C88  1  0.87974996  0.16476278  0.00864656  1  0  0.29402  0  3.919503  0  0  0.279579  0  4.186448  0  0  0.297329  0  4.200895  0  0  0.084059  0.267604  0  4.176294  0
C  C89  1  0.62024958  0.83523735  0.50864806  1  0  0.294048  0  3.919318  0  0  0.27958  0  4.18632  0  0  0.297332  0  4.200768  0  0  0.084075  0.267607  0  4.176152  0
C  C90  1  0.01150323  0.80675222  0.07219254  1  0  0.06364  0  3.737609  0  0  0.06056  0  3.973956  0  0  0.059501  0  3.997519  0  0  0.09461  0.061147  0  3.958215  0
C  C91  1  0.48849893  0.19325216  0.57218814  1  0  0.063639  0  3.737732  0  0  0.060491  0  3.974017  0  0  0.059429  0  3.997588  0  0  0.094554  0.06108  0  3.958276  0
C  C92  1  0.98849244  0.19324978  0.92781082  1  0  0.063604  0  3.737656  0  0  0.060419  0  3.974009  0  0  0.059357  0  3.997577  0  0  0.09452  0.061002  0  3.958276  0
C  C93  1  0.51150395  0.80674908  0.42780943  1  0  0.063663  0  3.73765  0  0  0.060455  0  3.974025  0  0  0.059391  0  3.997596  0  0  0.094542  0.061032  0  3.958294  0
C  C94  1  0.97795071  0.71222132  0.12240171  1  0  0.011495  0  3.749556  0  0  0.024979  0  3.976164  0  0  0.025394  0  4.000446  0  0  -0.00103  0.024696  0  3.959754  0
C  C95  1  0.52205160  0.28777924  0.62239409  1  0  0.011372  0  3.749588  0  0  0.024997  0  3.976012  0  0  0.025411  0  4.000296  0  0  -0.000969  0.02471  0  3.959608  0
C  C96  1  0.02204745  0.28777916  0.87760382  1  0  0.011444  0  3.749633  0  0  0.025046  0  3.976127  0  0  0.025459  0  4.000424  0  0  -0.000972  0.024764  0  3.959718  0
C  C97  1  0.47795595  0.71222049  0.37760493  1  0  0.011335  0  3.749737  0  0  0.024926  0  3.976241  0  0  0.025342  0  4.000528  0  0  -0.001047  0.024653  0  3.959827  0
C  C98  1  0.87302025  0.69612737  0.20076539  1  0  -0.039587  0  3.664283  0  0  -0.064102  0  3.909167  0  0  -0.061969  0  3.925155  0  0  -0.064643  -0.065293  0  3.898172  0
C  C99  1  0.62698294  0.30387371  0.70075891  1  0  -0.039547  0  3.664219  0  0  -0.064095  0  3.909079  0  0  -0.061965  0  3.925073  0  0  -0.064644  -0.065289  0  3.898089  0
C  C100  1  0.12697971  0.30387235  0.79923797  1  0  -0.039563  0  3.664253  0  0  -0.064109  0  3.909129  0  0  -0.061983  0  3.925132  0  0  -0.064644  -0.065295  0  3.89813  0
C  C101  1  0.37302324  0.69612982  0.29924010  1  0  -0.03951  0  3.664275  0  0  -0.064023  0  3.909171  0  0  -0.061892  0  3.925166  0  0  -0.064565  -0.065223  0  3.89818  0
C  C102  1  0.80717731  0.76911425  0.22380079  1  0  -0.123774  0  3.762276  0  0  -0.132166  0  4.009346  0  0  -0.138342  0  4.030411  0  0  -0.090972  -0.128114  0  3.994964  0
C  C103  1  0.69282500  0.23088752  0.72379496  1  0  -0.123657  0  3.762285  0  0  -0.132075  0  4.009355  0  0  -0.13825  0  4.03042  0  0  -0.090992  -0.128027  0  3.994974  0
C  C104  1  0.19281901  0.23088471  0.77620112  1  0  -0.123521  0  3.762308  0  0  -0.131985  0  4.00935  0  0  -0.138161  0  4.03042  0  0  -0.090909  -0.127937  0  3.994969  0
C  C105  1  0.30718227  0.76911601  0.27620406  1  0  -0.123442  0  3.762219  0  0  -0.131934  0  4.009265  0  0  -0.138109  0  4.030331  0  0  -0.090944  -0.127888  0  3.994891  0
C  C106  1  0.84312538  0.85839226  0.16845007  1  0  0.12962  0  3.710494  0  0  0.096332  0  3.962248  0  0  0.104633  0  3.97675  0  0  0.047838  0.09103  0  3.952149  0
C  C107  1  0.65687448  0.14161044  0.66844446  1  0  0.12954  0  3.710439  0  0  0.09624  0  3.962179  0  0  0.104543  0  3.97668  0  0  0.04784  0.090941  0  3.952075  0
C  C108  1  0.15686769  0.14160670  0.83155256  1  0  0.129463  0  3.710734  0  0  0.096173  0  3.962457  0  0  0.104472  0  3.976964  0  0  0.047849  0.090875  0  3.952347  0
C  C109  1  0.34313209  0.85839385  0.33155600  1  0  0.129406  0  3.71039  0  0  0.096105  0  3.962131  0  0  0.104405  0  3.976632  0  0  0.047797  0.090811  0  3.952025  0
N  N110  1  0.94303097  0.87619476  0.09579854  1  0  -0.330442  0  3.354873  0  0  -0.254964  0  3.620273  0  0  -0.271574  0  3.637714  0  0  -0.329284  -0.243713  0  3.608288  0
N  N111  1  0.55697051  0.12380815  0.59579322  1  0  -0.330417  0  3.354933  0  0  -0.254871  0  3.620247  0  0  -0.271481  0  3.637689  0  0  -0.329248  -0.243616  0  3.608252  0
N  N112  1  0.05696426  0.12380420  0.90420410  1  0  -0.330354  0  3.355016  0  0  -0.254806  0  3.62035  0  0  -0.271415  0  3.637795  0  0  -0.329244  -0.243557  0  3.608364  0
N  N113  1  0.44303492  0.87619385  0.40420579  1  0  -0.330404  0  3.35491  0  0  -0.254792  0  3.620183  0  0  -0.271398  0  3.637625  0  0  -0.329218  -0.243542  0  3.6082  0
N  N114  1  0.70223603  0.09361990  0.40505448  1  0  -0.305119  0  3.228566  0  0  -0.235159  0  3.49444  0  0  -0.25153  0  3.509697  0  0  -0.31207  -0.224265  0  3.484008  0
N  N115  1  0.79776302  0.90637752  0.90505685  1  0  -0.305082  0  3.228618  0  0  -0.23505  0  3.494371  0  0  -0.251422  0  3.509635  0  0  -0.311989  -0.224157  0  3.483941  0
N  N116  1  0.29776430  0.90638058  0.59494671  1  0  -0.305172  0  3.22863  0  0  -0.235241  0  3.494499  0  0  -0.251616  0  3.509763  0  0  -0.312088  -0.224352  0  3.484064  0
N  N117  1  0.20223260  0.09362220  0.09494217  1  0  -0.305146  0  3.228745  0  0  -0.235097  0  3.494482  0  0  -0.251468  0  3.509744  0  0  -0.312037  -0.224209  0  3.484049  0
N  N118  1  0.93050918  0.50149463  0.20087838  1  0  -0.165922  0  3.036489  0  0  -0.149935  0  3.318327  0  0  -0.156352  0  3.333003  0  0  -0.224003  -0.145556  0  3.308252  0
N  N119  1  0.56949325  0.49850492  0.70087614  1  0  -0.166113  0  3.036393  0  0  -0.150105  0  3.318176  0  0  -0.15655  0  3.332901  0  0  -0.224102  -0.145727  0  3.308101  0
N  N120  1  0.06949370  0.49850661  0.79912353  1  0  -0.166107  0  3.036516  0  0  -0.150109  0  3.318314  0  0  -0.156497  0  3.332878  0  0  -0.224102  -0.145735  0  3.30824  0
N  N121  1  0.43050811  0.50149328  0.29912288  1  0  -0.1661  0  3.036484  0  0  -0.150065  0  3.318192  0  0  -0.156468  0  3.332845  0  0  -0.224044  -0.145696  0  3.308126  0
N  N122  1  0.93317575  0.40902597  0.23220691  1  0  -0.295009  0  3.444188  0  0  -0.23798  0  3.691584  0  0  -0.259472  0  3.706188  0  0  -0.288647  -0.223457  0  3.681305  0
N  N123  1  0.56682574  0.59097425  0.73220744  1  0  -0.294886  0  3.443894  0  0  -0.237733  0  3.691234  0  0  -0.259257  0  3.705945  0  0  -0.288524  -0.223202  0  3.680952  0
N  N124  1  0.06682675  0.59097451  0.76779427  1  0  -0.294803  0  3.444173  0  0  -0.237709  0  3.691429  0  0  -0.258385  0  3.705739  0  0  -0.288538  -0.223181  0  3.681158  0
N  N125  1  0.43317384  0.40902471  0.26779229  1  0  -0.294802  0  3.44419  0  0  -0.237035  0  3.691231  0  0  -0.258435  0  3.705794  0  0  -0.288543  -0.222562  0  3.680974  0
O  O126  1  0.14069292  0.91966151  0.94539242  1  0  -0.577099  0  2.02525  0  0  -0.517801  0  2.278795  0  0  -0.545983  0  2.274507  0  0  -0.334103  -0.497756  0  2.280604  0
O  O127  1  0.35930492  0.08033869  0.44539036  1  0  -0.577104  0  2.025179  0  0  -0.517776  0  2.278653  0  0  -0.545968  0  2.274387  0  0  -0.334088  -0.497734  0  2.280468  0
O  O128  1  0.85929760  0.08033668  0.05460877  1  0  -0.577099  0  2.025084  0  0  -0.517755  0  2.278511  0  0  -0.545954  0  2.274262  0  0  -0.334088  -0.497717  0  2.280335  0
O  O129  1  0.64070051  0.91966332  0.55461010  1  0  -0.577108  0  2.025031  0  0  -0.517768  0  2.278489  0  0  -0.545961  0  2.274228  0  0  -0.33409  -0.497727  0  2.2803  0
O  O130  1  0.71002787  0.37691569  0.31931853  1  0  -0.575054  0  1.989582  0  0  -0.534722  0  2.221281  0  0  -0.554771  0  2.211323  0  0  -0.309109  -0.52092  0  2.227708  0
O  O131  1  0.78996598  0.62307894  0.81932059  1  0  -0.57517  0  1.989554  0  0  -0.535202  0  2.221607  0  0  -0.554812  0  2.211412  0  0  -0.309183  -0.521353  0  2.22802  0
O  O132  1  0.28997171  0.62308327  0.68067976  1  0  -0.575069  0  1.989577  0  0  -0.535161  0  2.221509  0  0  -0.555309  0  2.211654  0  0  -0.309135  -0.521309  0  2.227922  0
O  O133  1  0.21002883  0.37691698  0.18068350  1  0  -0.575068  0  1.989688  0  0  -0.53522  0  2.221695  0  0  -0.55533  0  2.211768  0  0  -0.309136  -0.521367  0  2.228105  0
