# generated using pymatgen
data_DyH10C4O8F
_symmetry_space_group_name_H-M   'P 1'
_cell_length_a   7.03020804
_cell_length_b   7.34973780
_cell_length_c   17.23468500
_cell_angle_alpha   100.92588051
_cell_angle_beta   90.00031482
_cell_angle_gamma   89.99999376
_symmetry_Int_Tables_number   1
_chemical_formula_structural   DyH10C4O8F
_chemical_formula_sum   'Dy4 H40 C16 O32 F4'
_cell_volume   874.37710706
_cell_formula_units_Z   4
loop_
 _symmetry_equiv_pos_site_id
 _symmetry_equiv_pos_as_xyz
  1  'x, y, z'
loop_
 _atom_site_type_symbol
 _atom_site_label
 _atom_site_symmetry_multiplicity
 _atom_site_fract_x
 _atom_site_fract_y
 _atom_site_fract_z
 _atom_site_occupancy
 _atom_site_hle17_bader_spin_density
 _atom_site_hle17_ddec_charge
 _atom_site_hle17_ddec_spin_density
 _atom_site_hle17_ddec_sum_bond_order
 _atom_site_hle17_magmom
 _atom_site_hse06_10hf_bader_spin_density
 _atom_site_hse06_10hf_ddec_charge
 _atom_site_hse06_10hf_ddec_spin_density
 _atom_site_hse06_10hf_ddec_sum_bond_order
 _atom_site_hse06_10hf_magmom
 _atom_site_hse06_bader_spin_density
 _atom_site_hse06_ddec_charge
 _atom_site_hse06_ddec_spin_density
 _atom_site_hse06_ddec_sum_bond_order
 _atom_site_hse06_magmom
 _atom_site_pbe_bader_spin_density
 _atom_site_pbe_cm5_charge
 _atom_site_pbe_ddec_charge
 _atom_site_pbe_ddec_spin_density
 _atom_site_pbe_ddec_sum_bond_order
 _atom_site_pbe_magmom
Dy  Dy0  1  0.95115222  0.13516709  0.80013770  1  0  2.32023  0  1.620988  0  0  2.25113  0  1.947884  0  0  2.293785  0  1.905283  0  0  1.481552  2.140016  0  2.123017  0
Dy  Dy1  1  0.45114925  0.36483769  0.69985992  1  0  2.320268  0  1.620919  0  0  2.251175  0  1.947823  0  0  2.293831  0  1.905224  0  0  1.481554  2.140015  0  2.123036  0
Dy  Dy2  1  0.04884623  0.86483449  0.19986376  1  0  2.320212  0  1.621024  0  0  2.251111  0  1.947922  0  0  2.293766  0  1.905322  0  0  1.48155  2.139964  0  2.123106  0
Dy  Dy3  1  0.54885062  0.63516385  0.30013922  1  0  2.320205  0  1.621007  0  0  2.251096  0  1.947916  0  0  2.293753  0  1.905316  0  0  1.481555  2.139952  0  2.1231  0
H  H4  1  0.45087617  0.26361077  0.91260590  1  0  0.100809  0  0.938708  0  0  0.108029  0  1.00977  0  0  0.110713  0  1.00697  0  0  0.119812  0.106026  0  1.011954  0
H  H5  1  0.95086913  0.23638987  0.58739198  1  0  0.100923  0  0.938625  0  0  0.10813  0  1.009681  0  0  0.110814  0  1.006884  0  0  0.119826  0.106119  0  1.01187  0
H  H6  1  0.54912655  0.73638665  0.08739466  1  0  0.100848  0  0.93866  0  0  0.108076  0  1.009724  0  0  0.11076  0  1.006922  0  0  0.119825  0.106079  0  1.011908  0
H  H7  1  0.04913501  0.76361021  0.41260357  1  0  0.100894  0  0.938582  0  0  0.108112  0  1.00968  0  0  0.110796  0  1.006875  0  0  0.119814  0.106114  0  1.011872  0
H  H8  1  0.56607671  0.17439622  0.99073512  1  0  0.10835  0  0.953531  0  0  0.114829  0  1.017381  0  0  0.117849  0  1.015486  0  0  0.111086  0.112388  0  1.019552  0
H  H9  1  0.06606548  0.32561104  0.50926474  1  0  0.108371  0  0.953565  0  0  0.114843  0  1.0174  0  0  0.117863  0  1.015504  0  0  0.111086  0.112396  0  1.019568  0
H  H10  1  0.43392601  0.82560816  0.00926830  1  0  0.108342  0  0.953507  0  0  0.114863  0  1.017316  0  0  0.11788  0  1.015425  0  0  0.111065  0.112428  0  1.019489  0
H  H11  1  0.93394150  0.67438767  0.49073129  1  0  0.108293  0  0.953534  0  0  0.114877  0  1.017273  0  0  0.117896  0  1.015381  0  0  0.11109  0.112442  0  1.01945  0
H  H12  1  0.75603882  0.49363396  0.00766570  1  0  0.097809  0  0.927312  0  0  0.107224  0  0.992179  0  0  0.109131  0  0.991015  0  0  0.113751  0.10535  0  0.99412  0
H  H13  1  0.25602704  0.00636633  0.49233325  1  0  0.097727  0  0.927431  0  0  0.107157  0  0.99226  0  0  0.109081  0  0.991081  0  0  0.113736  0.105275  0  0.994207  0
H  H14  1  0.24396390  0.50636345  0.99233429  1  0  0.097816  0  0.927322  0  0  0.107223  0  0.992186  0  0  0.109128  0  0.991027  0  0  0.113739  0.105345  0  0.994127  0
H  H15  1  0.74396856  0.99362832  0.50766768  1  0  0.097675  0  0.92742  0  0  0.107159  0  0.992196  0  0  0.109104  0  0.990983  0  0  0.113741  0.105278  0  0.994142  0
H  H16  1  0.61977735  0.53110436  0.92411871  1  0  0.10573  0  0.94047  0  0  0.11649  0  1.004019  0  0  0.118826  0  1.002204  0  0  0.117617  0.114387  0  1.006092  0
H  H17  1  0.11976986  0.96889693  0.57588023  1  0  0.105844  0  0.940358  0  0  0.116548  0  1.003951  0  0  0.118917  0  1.002101  0  0  0.117637  0.114448  0  1.006024  0
H  H18  1  0.38022394  0.46889442  0.07588080  1  0  0.105834  0  0.94041  0  0  0.116567  0  1.00398  0  0  0.11892  0  1.002148  0  0  0.117649  0.114465  0  1.006052  0
H  H19  1  0.88023002  0.03110329  0.42412229  1  0  0.105774  0  0.940456  0  0  0.11653  0  1.004012  0  0  0.11886  0  1.002207  0  0  0.117619  0.114429  0  1.006085  0
H  H20  1  0.09179902  0.16906586  0.97355788  1  0  0.443778  0  0.851805  0  0  0.41298  0  0.913924  0  0  0.424005  0  0.897877  0  0  0.297344  0.404669  0  0.925923  0
H  H21  1  0.59180111  0.33093314  0.52644255  1  0  0.443821  0  0.851751  0  0  0.41302  0  0.913873  0  0  0.424044  0  0.897828  0  0  0.297347  0.404713  0  0.925866  0
H  H22  1  0.90820085  0.83093709  0.02644253  1  0  0.443796  0  0.851787  0  0  0.413  0  0.913903  0  0  0.424024  0  0.897857  0  0  0.297346  0.404689  0  0.925903  0
H  H23  1  0.40819734  0.66906287  0.47355674  1  0  0.443814  0  0.851762  0  0  0.413013  0  0.913885  0  0  0.424037  0  0.897839  0  0  0.297357  0.404703  0  0.925883  0
H  H24  1  0.22079481  0.02013585  0.91474865  1  0  0.434766  0  0.864011  0  0  0.405435  0  0.925078  0  0  0.415888  0  0.909762  0  0  0.301056  0.397759  0  0.936095  0
H  H25  1  0.72078914  0.47987020  0.58525320  1  0  0.434818  0  0.863957  0  0  0.405543  0  0.924956  0  0  0.415996  0  0.909637  0  0  0.301052  0.397863  0  0.935978  0
H  H26  1  0.77920648  0.97986711  0.08525234  1  0  0.434753  0  0.864019  0  0  0.405429  0  0.925076  0  0  0.415881  0  0.909761  0  0  0.301053  0.397751  0  0.936096  0
H  H27  1  0.27920931  0.52012995  0.41474584  1  0  0.43473  0  0.864054  0  0  0.405408  0  0.925127  0  0  0.415863  0  0.909809  0  0  0.301015  0.39773  0  0.936148  0
H  H28  1  0.11935284  0.73386222  0.74931808  1  0  0.452263  0  0.839305  0  0  0.423221  0  0.897991  0  0  0.434562  0  0.88133  0  0  0.306701  0.41441  0  0.910809  0
H  H29  1  0.61934801  0.76614735  0.75067976  1  0  0.452246  0  0.839332  0  0  0.423206  0  0.898013  0  0  0.434547  0  0.881352  0  0  0.306698  0.414394  0  0.910832  0
H  H30  1  0.88064560  0.26613929  0.25067990  1  0  0.45225  0  0.839331  0  0  0.423206  0  0.898018  0  0  0.434547  0  0.881359  0  0  0.306682  0.414396  0  0.910835  0
H  H31  1  0.38065328  0.23385561  0.24932123  1  0  0.452264  0  0.839288  0  0  0.423229  0  0.89796  0  0  0.43457  0  0.8813  0  0  0.306712  0.414419  0  0.910777  0
H  H32  1  0.04677950  0.78314474  0.83989339  1  0  0.431036  0  0.867948  0  0  0.399182  0  0.933925  0  0  0.409957  0  0.917975  0  0  0.303279  0.39142  0  0.94517  0
H  H33  1  0.54677060  0.71686203  0.66010581  1  0  0.431133  0  0.867842  0  0  0.399262  0  0.933839  0  0  0.41004  0  0.917883  0  0  0.303287  0.391501  0  0.945085  0
H  H34  1  0.95322179  0.21685819  0.16010586  1  0  0.431088  0  0.867878  0  0  0.399209  0  0.933899  0  0  0.40999  0  0.917936  0  0  0.303284  0.391448  0  0.945143  0
H  H35  1  0.45323211  0.28313815  0.33989438  1  0  0.431164  0  0.867787  0  0  0.399277  0  0.93382  0  0  0.410056  0  0.917861  0  0  0.303308  0.391518  0  0.945063  0
H  H36  1  0.74608189  0.99796700  0.65768235  1  0  0.42939  0  0.878956  0  0  0.395954  0  0.948397  0  0  0.407782  0  0.930891  0  0  0.295486  0.387616  0  0.960346  0
H  H37  1  0.24608658  0.50203436  0.84231456  1  0  0.429396  0  0.87896  0  0  0.395959  0  0.948399  0  0  0.407786  0  0.930893  0  0  0.295476  0.387621  0  0.960348  0
H  H38  1  0.25392083  0.00203453  0.34231621  1  0  0.429369  0  0.878988  0  0  0.39593  0  0.948432  0  0  0.407759  0  0.930924  0  0  0.295473  0.387592  0  0.960382  0
H  H39  1  0.75391330  0.49796858  0.15768527  1  0  0.429417  0  0.878937  0  0  0.395979  0  0.948376  0  0  0.407807  0  0.930869  0  0  0.295454  0.387641  0  0.960326  0
H  H40  1  0.90300183  0.83828129  0.65322938  1  0  0.437611  0  0.860439  0  0  0.405319  0  0.926265  0  0  0.417003  0  0.909141  0  0  0.296748  0.396645  0  0.938816  0
H  H41  1  0.40300799  0.66171888  0.84677011  1  0  0.437669  0  0.860353  0  0  0.405284  0  0.926308  0  0  0.416965  0  0.90919  0  0  0.296741  0.396615  0  0.938852  0
H  H42  1  0.09699946  0.16172165  0.34677045  1  0  0.437598  0  0.860456  0  0  0.405255  0  0.926349  0  0  0.416936  0  0.909231  0  0  0.296741  0.396581  0  0.9389  0
H  H43  1  0.59699331  0.33827989  0.15322882  1  0  0.437619  0  0.860432  0  0  0.405231  0  0.926368  0  0  0.416908  0  0.909258  0  0  0.296707  0.396558  0  0.938917  0
C  C44  1  0.56462217  0.99171321  0.87769398  1  0  0.715151  0  3.821459  0  0  0.65728  0  4.13494  0  0  0.691886  0  4.123774  0  0  0.234915  0.633843  0  4.138787  0
C  C45  1  0.06461535  0.50828943  0.62230552  1  0  0.715238  0  3.821227  0  0  0.657607  0  4.134454  0  0  0.692214  0  4.123277  0  0  0.234995  0.634153  0  4.138313  0
C  C46  1  0.43537770  0.00828705  0.12231086  1  0  0.715347  0  3.821329  0  0  0.657489  0  4.134785  0  0  0.692096  0  4.123612  0  0  0.235002  0.634051  0  4.138643  0
C  C47  1  0.93538452  0.49171066  0.37769003  1  0  0.715164  0  3.821304  0  0  0.657443  0  4.134633  0  0  0.69205  0  4.12346  0  0  0.234922  0.634009  0  4.138489  0
C  C48  1  0.57416139  0.18446587  0.92788553  1  0  -0.093672  0  3.628694  0  0  -0.145574  0  3.890694  0  0  -0.144163  0  3.890693  0  0  -0.067037  -0.146553  0  3.888287  0
C  C49  1  0.07415102  0.31553584  0.57211275  1  0  -0.093948  0  3.628933  0  0  -0.145812  0  3.890826  0  0  -0.144399  0  3.890813  0  0  -0.06708  -0.146763  0  3.888384  0
C  C50  1  0.42583848  0.81553435  0.07211699  1  0  -0.093833  0  3.628822  0  0  -0.145812  0  3.890883  0  0  -0.1444  0  3.890872  0  0  -0.067059  -0.146815  0  3.888513  0
C  C51  1  0.92585312  0.68446288  0.42788327  1  0  -0.093847  0  3.628764  0  0  -0.145869  0  3.890787  0  0  -0.144451  0  3.890771  0  0  -0.067114  -0.146885  0  3.888439  0
C  C52  1  0.74954035  0.46689256  0.94263288  1  0  -0.078461  0  3.619629  0  0  -0.131667  0  3.879708  0  0  -0.129926  0  3.880986  0  0  -0.064134  -0.133046  0  3.877335  0
C  C53  1  0.24952981  0.03310653  0.55736559  1  0  -0.078436  0  3.61965  0  0  -0.131655  0  3.8797  0  0  -0.129949  0  3.880974  0  0  -0.064182  -0.133032  0  3.877337  0
C  C54  1  0.25046094  0.53310623  0.05736721  1  0  -0.078628  0  3.619678  0  0  -0.131807  0  3.87977  0  0  -0.130084  0  3.881053  0  0  -0.064172  -0.133181  0  3.877395  0
C  C55  1  0.75047006  0.96688949  0.44263428  1  0  -0.07836  0  3.619674  0  0  -0.13168  0  3.879745  0  0  -0.129952  0  3.881007  0  0  -0.064177  -0.133057  0  3.877379  0
C  C56  1  0.92035726  0.55238998  0.90949541  1  0  0.701769  0  3.83976  0  0  0.648406  0  4.147235  0  0  0.681299  0  4.138564  0  0  0.228571  0.625752  0  4.150842  0
C  C57  1  0.42034997  0.94761156  0.59050307  1  0  0.701683  0  3.839871  0  0  0.648442  0  4.147125  0  0  0.681331  0  4.138465  0  0  0.22854  0.625791  0  4.150729  0
C  C58  1  0.07964546  0.44760744  0.09050515  1  0  0.7018  0  3.839885  0  0  0.648415  0  4.147371  0  0  0.681308  0  4.138703  0  0  0.228552  0.625759  0  4.150978  0
C  C59  1  0.57964991  0.05238863  0.40949829  1  0  0.701654  0  3.839977  0  0  0.648445  0  4.147199  0  0  0.681331  0  4.138536  0  0  0.228515  0.625798  0  4.150804  0
O  O60  1  0.68931513  0.94689422  0.82365313  1  0  -0.724337  0  2.068255  0  0  -0.678267  0  2.31612  0  0  -0.703393  0  2.303107  0  0  -0.369161  -0.650127  0  2.326363  0
O  O61  1  0.18930762  0.55310573  0.67634529  1  0  -0.724443  0  2.068385  0  0  -0.678381  0  2.316136  0  0  -0.703504  0  2.303109  0  0  -0.369173  -0.650235  0  2.326393  0
O  O62  1  0.31067478  0.05309909  0.17635002  1  0  -0.724495  0  2.068197  0  0  -0.678405  0  2.31605  0  0  -0.703534  0  2.303035  0  0  -0.369251  -0.650264  0  2.326297  0
O  O63  1  0.81068514  0.44689300  0.32365190  1  0  -0.724391  0  2.068318  0  0  -0.678327  0  2.316111  0  0  -0.703453  0  2.303093  0  0  -0.369173  -0.650187  0  2.326353  0
O  O64  1  0.74742357  0.27217606  0.91191887  1  0  -0.344794  0  2.468611  0  0  -0.279222  0  2.718356  0  0  -0.294366  0  2.720961  0  0  -0.272244  -0.259939  0  2.714612  0
O  O65  1  0.24741200  0.22782441  0.58807912  1  0  -0.344799  0  2.468733  0  0  -0.279171  0  2.718443  0  0  -0.294311  0  2.721064  0  0  -0.272199  -0.259887  0  2.714686  0
O  O66  1  0.25257772  0.72782135  0.08808169  1  0  -0.34468  0  2.468768  0  0  -0.279085  0  2.718505  0  0  -0.294221  0  2.721111  0  0  -0.272229  -0.259794  0  2.714768  0
O  O67  1  0.75258787  0.77217296  0.41191912  1  0  -0.344752  0  2.468751  0  0  -0.279079  0  2.718487  0  0  -0.29423  0  2.721114  0  0  -0.272157  -0.259778  0  2.714748  0
O  O68  1  0.43116819  0.88791913  0.89231797  1  0  -0.622774  0  2.006403  0  0  -0.553884  0  2.21813  0  0  -0.580515  0  2.20769  0  0  -0.292902  -0.536563  0  2.22668  0
O  O69  1  0.93115717  0.61208658  0.60768085  1  0  -0.622556  0  2.005864  0  0  -0.554167  0  2.21789  0  0  -0.580812  0  2.207465  0  0  -0.292993  -0.536837  0  2.226448  0
O  O70  1  0.56882742  0.11207837  0.10768724  1  0  -0.622776  0  2.006416  0  0  -0.553913  0  2.218139  0  0  -0.580545  0  2.207708  0  0  -0.29288  -0.536587  0  2.226689  0
O  O71  1  0.06884128  0.38791210  0.39231343  1  0  -0.622581  0  2.006055  0  0  -0.553934  0  2.217913  0  0  -0.580577  0  2.20749  0  0  -0.292891  -0.536607  0  2.226461  0
O  O72  1  0.01983022  0.44648977  0.85746581  1  0  -0.733245  0  2.113657  0  0  -0.682732  0  2.360824  0  0  -0.708284  0  2.348446  0  0  -0.379373  -0.655181  0  2.370715  0
O  O73  1  0.51982822  0.05351460  0.64252965  1  0  -0.733116  0  2.113683  0  0  -0.682676  0  2.360818  0  0  -0.708249  0  2.34849  0  0  -0.379324  -0.655119  0  2.370707  0
O  O74  1  0.98017392  0.55351461  0.14253703  1  0  -0.733296  0  2.113551  0  0  -0.682762  0  2.360689  0  0  -0.708323  0  2.348329  0  0  -0.379349  -0.655203  0  2.370583  0
O  O75  1  0.48017735  0.94648551  0.35746706  1  0  -0.733181  0  2.113627  0  0  -0.682736  0  2.360743  0  0  -0.708299  0  2.348388  0  0  -0.379343  -0.655181  0  2.370633  0
O  O76  1  0.95576888  0.72183557  0.93332460  1  0  -0.605525  0  1.953129  0  0  -0.543325  0  2.161129  0  0  -0.568152  0  2.151446  0  0  -0.295901  -0.527066  0  2.168686  0
O  O77  1  0.45575986  0.77816325  0.56667490  1  0  -0.605568  0  1.953166  0  0  -0.54339  0  2.1611  0  0  -0.568214  0  2.151416  0  0  -0.295871  -0.527132  0  2.168654  0
O  O78  1  0.04423241  0.27817158  0.06667904  1  0  -0.605493  0  1.953428  0  0  -0.54325  0  2.161407  0  0  -0.568079  0  2.151725  0  0  -0.295889  -0.527002  0  2.168981  0
O  O79  1  0.54424001  0.22182861  0.43332465  1  0  -0.605494  0  1.953379  0  0  -0.543319  0  2.161295  0  0  -0.568143  0  2.15161  0  0  -0.295842  -0.527082  0  2.168866  0
O  O80  1  0.07655354  0.83538632  0.79251753  1  0  -0.923334  0  1.882465  0  0  -0.882544  0  2.076559  0  0  -0.900954  0  2.042363  0  0  -0.656979  -0.858979  0  2.106939  0
O  O81  1  0.57654529  0.66462325  0.70748196  1  0  -0.923439  0  1.882385  0  0  -0.882621  0  2.076483  0  0  -0.901028  0  2.042291  0  0  -0.656987  -0.859051  0  2.106869  0
O  O82  1  0.92344491  0.16461521  0.20748103  1  0  -0.923389  0  1.882411  0  0  -0.8826  0  2.076542  0  0  -0.901009  0  2.042346  0  0  -0.656973  -0.859023  0  2.106902  0
O  O83  1  0.42345315  0.33537972  0.29251961  1  0  -0.923479  0  1.882314  0  0  -0.882679  0  2.076426  0  0  -0.901088  0  2.042232  0  0  -0.65702  -0.859089  0  2.106756  0
O  O84  1  0.11639535  0.11180517  0.91712465  1  0  -0.945164  0  1.897659  0  0  -0.910391  0  2.098748  0  0  -0.929339  0  2.066106  0  0  -0.659517  -0.885672  0  2.127479  0
O  O85  1  0.61638966  0.38820215  0.58287590  1  0  -0.945304  0  1.897601  0  0  -0.910516  0  2.098582  0  0  -0.929477  0  2.065973  0  0  -0.659525  -0.885789  0  2.12732  0
O  O86  1  0.88360452  0.88819640  0.08287623  1  0  -0.945166  0  1.897662  0  0  -0.910394  0  2.098735  0  0  -0.929353  0  2.066122  0  0  -0.659524  -0.885669  0  2.12747  0
O  O87  1  0.38360452  0.61180354  0.41712356  1  0  -0.945194  0  1.897673  0  0  -0.910399  0  2.098708  0  0  -0.929355  0  2.066088  0  0  -0.659521  -0.885678  0  2.12744  0
O  O88  1  0.88257153  0.97512472  0.66947989  1  0  -0.927932  0  1.862221  0  0  -0.889144  0  2.062109  0  0  -0.908634  0  2.027051  0  0  -0.648867  -0.864604  0  2.092215  0
O  O89  1  0.38257748  0.52487402  0.83051887  1  0  -0.927904  0  1.862087  0  0  -0.889137  0  2.062159  0  0  -0.908621  0  2.027095  0  0  -0.648843  -0.86459  0  2.09226  0
O  O90  1  0.11742834  0.02487410  0.33052195  1  0  -0.927844  0  1.862171  0  0  -0.889077  0  2.062204  0  0  -0.90856  0  2.027138  0  0  -0.648847  -0.86453  0  2.092307  0
O  O91  1  0.61742239  0.47512751  0.16948027  1  0  -0.927894  0  1.862152  0  0  -0.889087  0  2.062247  0  0  -0.90857  0  2.027187  0  0  -0.648804  -0.864545  0  2.092356  0
F  F92  1  0.22544077  0.20179867  0.74956207  1  0  -0.779524  0  0.762575  0  0  -0.748688  0  0.943408  0  0  -0.76491  0  0.922688  0  0  -0.501797  -0.712506  0  0.973795  0
F  F93  1  0.72543309  0.29819905  0.75043798  1  0  -0.77952  0  0.762644  0  0  -0.748716  0  0.943504  0  0  -0.764936  0  0.922783  0  0  -0.501784  -0.712533  0  0.973892  0
F  F94  1  0.77456052  0.79820429  0.25043892  1  0  -0.779486  0  0.762616  0  0  -0.748654  0  0.943447  0  0  -0.764875  0  0.922727  0  0  -0.501792  -0.712468  0  0.973834  0
F  F95  1  0.27456251  0.70179979  0.24956501  1  0  -0.779495  0  0.762614  0  0  -0.74868  0  0.943477  0  0  -0.764902  0  0.922757  0  0  -0.501784  -0.712497  0  0.973866  0
