# generated using pymatgen
data_Mn2H9C13N5O8
_symmetry_space_group_name_H-M   'P 1'
_cell_length_a   10.14379141
_cell_length_b   10.45887880
_cell_length_c   11.21096097
_cell_angle_alpha   116.78608805
_cell_angle_beta   96.18668045
_cell_angle_gamma   112.30033052
_symmetry_Int_Tables_number   1
_chemical_formula_structural   Mn2H9C13N5O8
_chemical_formula_sum   'Mn4 H18 C26 N10 O16'
_cell_volume   924.70953366
_cell_formula_units_Z   2
loop_
 _symmetry_equiv_pos_site_id
 _symmetry_equiv_pos_as_xyz
  1  'x, y, z'
loop_
 _atom_site_type_symbol
 _atom_site_label
 _atom_site_symmetry_multiplicity
 _atom_site_fract_x
 _atom_site_fract_y
 _atom_site_fract_z
 _atom_site_occupancy
 _atom_site_hle17_ddec_charge
 _atom_site_hle17_ddec_spin_density
 _atom_site_hle17_ddec_sum_bond_order
 _atom_site_hle17_magmom
 _atom_site_hse06_10hf_ddec_charge
 _atom_site_hse06_10hf_ddec_spin_density
 _atom_site_hse06_10hf_ddec_sum_bond_order
 _atom_site_hse06_10hf_magmom
 _atom_site_hse06_ddec_charge
 _atom_site_hse06_ddec_spin_density
 _atom_site_hse06_ddec_sum_bond_order
 _atom_site_hse06_magmom
 _atom_site_pbe_cm5_charge
 _atom_site_pbe_ddec_charge
 _atom_site_pbe_ddec_spin_density
 _atom_site_pbe_ddec_sum_bond_order
 _atom_site_pbe_magmom
Mn  Mn0  1  0.33565123  0.60480055  0.29062943  1  1.172164  4.768388  1.881187  4.646  1.029596  4.66902  2.394756  4.489  1.082431  4.732472  2.322599  4.571  0.612157  0.989426  4.597703  2.447837  4.4
Mn  Mn1  1  0.66434853  0.39519905  0.70937050  1  1.172188  4.768381  1.881197  4.646  1.029617  4.669017  2.394746  4.489  1.082428  4.732471  2.32263  4.571  0.612167  0.989451  4.597706  2.447811  4.4
Mn  Mn2  1  0.49999927  0.50000013  0.00000048  1  1.230351  4.79134  1.78997  4.674  1.085551  4.692444  2.30173  4.518  1.136271  4.750249  2.226616  4.594  0.614908  1.04744  4.630175  2.355794  4.437
Mn  Mn3  1  0.49999957  0.99999970  0.49999939  1  1.133664  4.758648  1.913197  4.641  0.991188  4.670478  2.415707  4.496  1.045828  4.724749  2.349049  4.569  0.610948  0.949414  4.61157  2.465104  4.418
H  H4  1  0.09113057  0.44642077  0.93485975  1  0.138018  -0.00162  0.907689  -0.001  0.143356  -0.000519  0.971583  0.0  0.148184  -0.000697  0.965645  0.0  0.145091  0.139477  -0.000413  0.976386  0.0
H  H5  1  0.90887019  0.55357883  0.06514027  1  0.138006  -0.001614  0.907697  -0.001  0.14334  -0.00052  0.971598  0.0  0.148171  -0.000697  0.96566  0.0  0.145084  0.139463  -0.000413  0.976399  0.0
H  H6  1  0.80256367  0.92338702  0.71895486  1  0.115731  -0.000997  0.957437  -0.001  0.118779  0.000396  1.030103  0.0  0.122872  0.000177  1.025619  0.0  0.109759  0.11512  0.000732  1.034154  0.0
H  H7  1  0.19743510  0.07661259  0.28104496  1  0.11572  -0.000985  0.957463  -0.001  0.118761  0.000396  1.030121  0.0  0.122852  0.000175  1.025642  0.0  0.109757  0.115106  0.000732  1.034171  0.0
H  H8  1  0.00811295  0.91757561  0.86305074  1  0.110991  0.000244  0.970135  0.001  0.116733  -6.8e-05  1.032627  0.0  0.120177  -0.000109  1.03246  0.0  0.109401  0.114064  9.8e-05  1.033144  0.0
H  H9  1  0.99188681  0.08242399  0.13694740  1  0.110999  0.000245  0.970102  0.001  0.116728  -6.8e-05  1.032616  0.0  0.120178  -0.000109  1.032443  0.0  0.109408  0.114062  9.8e-05  1.03313  0.0
H  H10  1  0.25154663  0.18301961  0.03151799  1  0.139886  -0.001604  0.899694  -0.001  0.148446  -0.00062  0.955668  0.0  0.15283  -0.000729  0.950244  0.0  0.14797  0.144351  -0.000401  0.961103  0.0
H  H11  1  0.74845402  0.81697754  0.96847921  1  0.139908  -0.001608  0.899646  -0.001  0.148414  -0.00062  0.955663  0.0  0.152795  -0.000727  0.950246  0.0  0.147961  0.144323  -0.0004  0.961097  0.0
H  H12  1  0.91586134  0.66063991  0.30753008  1  0.102578  -0.000534  0.978574  -0.001  0.108815  0.000274  1.048143  0.0  0.112104  1.3e-05  1.044737  0.0  0.106498  0.10623  0.000525  1.051171  0.0
H  H13  1  0.08414051  0.33936213  0.69247107  1  0.102572  -0.000528  0.978578  -0.001  0.108807  0.000275  1.048152  0.0  0.112096  1.3e-05  1.044745  0.0  0.106494  0.10622  0.000525  1.051179  0.0
H  H14  1  0.13898161  0.72732985  0.49424332  1  0.122552  -0.000943  0.969324  0.0  0.124667  -0.001102  1.039042  0.0  0.128743  -0.001234  1.037749  0.0  0.112944  0.121758  -0.000988  1.039827  0.0
H  H15  1  0.86101980  0.27267342  0.50575830  1  0.122554  -0.000927  0.969365  0.0  0.12467  -0.001101  1.039078  0.0  0.128746  -0.001234  1.037784  0.0  0.112944  0.121762  -0.000987  1.039862  0.0
H  H16  1  0.09028286  0.69559526  0.69855648  1  0.119838  -0.000552  0.907546  -0.001  0.132939  9.3e-05  0.958278  0.0  0.136533  -4.1e-05  0.955023  0.0  0.137807  0.13019  0.000127  0.960734  0.0
H  H17  1  0.90971745  0.30440556  0.30144490  1  0.119816  -0.000556  0.907558  -0.001  0.132916  9.2e-05  0.958289  0.0  0.136512  -4.1e-05  0.955033  0.0  0.1378  0.130169  0.000127  0.960743  0.0
H  H18  1  0.63833238  0.56572123  0.55551183  1  0.137108  -0.000554  0.946455  -0.001  0.138807  0.000213  1.018956  0.0  0.143528  3.9e-05  1.013991  0.0  0.139321  0.135068  0.000344  1.02288  0.0
H  H19  1  0.36166838  0.43427837  0.44448819  1  0.137101  -0.000535  0.946474  -0.001  0.138796  0.000213  1.018986  0.0  0.143516  3.9e-05  1.014023  0.0  0.139299  0.135058  0.000344  1.022909  0.0
H  H20  1  0.64488495  0.98864288  0.25816644  1  0.00038  0.001834  0.916565  0.002  0.012031  0.003283  0.983438  0.002  0.010349  0.002358  0.980404  0.001  0.111637  0.013864  0.004021  0.984697  0.002
H  H21  1  0.35511536  0.01135795  0.74183494  1  0.000381  0.001834  0.916577  0.002  0.012034  0.003283  0.983445  0.002  0.010351  0.002359  0.980414  0.002  0.111638  0.013868  0.004021  0.984707  0.002
C  C22  1  0.93102086  0.18361726  0.81418026  1  -0.089215  -0.018485  3.749613  -0.013  -0.062524  -0.009294  3.989068  -0.007  -0.074217  -0.011886  4.007779  -0.008  -0.00543  -0.056827  -0.006757  3.979718  -0.007
C  C23  1  0.06897945  0.81638356  0.18581933  1  -0.08911  -0.018424  3.749573  -0.013  -0.062494  -0.009303  3.98911  -0.007  -0.074183  -0.011882  4.007819  -0.008  -0.005422  -0.056797  -0.006757  3.979761  -0.007
C  C24  1  0.76143905  0.60809875  0.41619660  1  -0.07178  -0.007479  3.735434  -0.005  -0.046551  -0.002734  3.97054  -0.002  -0.056267  -0.00455  3.990559  -0.003  -0.000948  -0.0411  -0.001156  3.957999  -0.002
C  C25  1  0.23856225  0.39190207  0.58380309  1  -0.071795  -0.007437  3.735481  -0.005  -0.046578  -0.002733  3.970605  -0.002  -0.056294  -0.00455  3.990623  -0.003  -0.000964  -0.041126  -0.001155  3.958063  -0.002
C  C26  1  0.62681864  0.57295190  0.31043330  1  0.688875  0.008505  3.871005  0.009  0.639013  0.014595  4.159737  0.014  0.674044  0.011295  4.15404  0.012  0.234755  0.61482  0.017979  4.162125  0.017
C  C27  1  0.37318266  0.42704892  0.68956728  1  0.688876  0.008505  3.87099  0.009  0.639038  0.014595  4.159692  0.014  0.674066  0.011294  4.153992  0.012  0.234764  0.614839  0.017981  4.162088  0.017
C  C28  1  0.06519055  0.32495818  0.91093021  1  0.030951  0.026743  3.539742  0.024  -0.027199  0.027667  3.805967  0.023  -0.013196  0.022644  3.810618  0.019  0.061658  -0.037114  0.033645  3.805185  0.027
C  C29  1  0.93480921  0.67504141  0.08906882  1  0.030941  0.026687  3.539703  0.024  -0.027178  0.027677  3.805949  0.023  -0.013175  0.022626  3.8106  0.019  0.061672  -0.037087  0.033645  3.805159  0.027
C  C30  1  0.90908175  0.03345833  0.79340333  1  -0.008361  0.029923  3.656823  0.025  -0.050625  0.035489  3.915294  0.027  -0.038903  0.026366  3.92573  0.02  -0.065914  -0.059823  0.046438  3.911171  0.035
C  C31  1  0.09091802  0.96654127  0.20659570  1  -0.008398  0.029859  3.656916  0.025  -0.050614  0.035489  3.915391  0.027  -0.038898  0.026377  3.92583  0.02  -0.065898  -0.059822  0.046437  3.911274  0.035
C  C32  1  0.02289838  0.03064900  0.87228545  1  -0.112893  -0.022416  3.761748  -0.016  -0.1214  -0.011661  4.024519  -0.009  -0.130495  -0.014134  4.042551  -0.01  -0.081353  -0.116158  -0.009438  4.014769  -0.009
C  C33  1  0.97710183  0.96934936  0.12771222  1  -0.112882  -0.022375  3.761737  -0.016  -0.121396  -0.011664  4.02447  -0.009  -0.130492  -0.014128  4.042497  -0.01  -0.081386  -0.116153  -0.009438  4.014719  -0.009
C  C34  1  0.15636152  0.17334647  0.96674659  1  0.050215  0.025015  3.559433  0.023  0.000414  0.026142  3.82462  0.022  0.01424  0.020907  3.831039  0.018  0.05893  -0.01107  0.035522  3.824344  0.028
C  C35  1  0.84363769  0.82665190  0.03325009  1  0.050132  0.024995  3.559422  0.023  0.000404  0.026144  3.824587  0.022  0.014238  0.020889  3.830995  0.018  0.058909  -0.011081  0.035523  3.824318  0.028
C  C36  1  0.90354877  0.65383514  0.39978869  1  -0.02658  0.014565  3.681425  0.012  -0.061784  0.016384  3.930977  0.013  -0.054318  0.012927  3.944637  0.01  -0.069719  -0.066404  0.019933  3.922256  0.015
C  C37  1  0.09645209  0.34616690  0.60021236  1  -0.02653  0.01455  3.681417  0.012  -0.061743  0.016381  3.930991  0.013  -0.054276  0.012927  3.944648  0.01  -0.069707  -0.066357  0.019933  3.922262  0.015
C  C38  1  0.57414888  0.85709859  0.21807453  1  0.619602  0.006477  3.866502  0.009  0.551025  0.013928  4.159731  0.014  0.585543  0.010151  4.15566  0.011  0.1742  0.527048  0.018248  4.160544  0.017
C  C39  1  0.42585143  0.14290224  0.78192685  1  0.619503  0.006474  3.866652  0.009  0.550922  0.013929  4.15988  0.014  0.58544  0.01015  4.155806  0.011  0.174109  0.526931  0.018248  4.160706  0.017
C  C40  1  0.02579132  0.69002094  0.50219974  1  -0.095139  -0.01072  3.757538  -0.008  -0.105888  -0.005295  4.018392  -0.004  -0.111981  -0.00674  4.036801  -0.005  -0.078294  -0.102173  -0.003977  4.005811  -0.004
C  C41  1  0.97420954  0.30998110  0.49780131  1  -0.095158  -0.010775  3.757575  -0.008  -0.105902  -0.005295  4.018423  -0.004  -0.111993  -0.006734  4.036829  -0.005  -0.078268  -0.102186  -0.003977  4.005842  -0.004
C  C42  1  0.00351452  0.67477895  0.61568821  1  -0.003258  0.01246  3.616543  0.011  -0.047517  0.012545  3.880155  0.01  -0.040137  0.01053  3.892662  0.009  0.039128  -0.051928  0.015754  3.871192  0.012
C  C43  1  0.99648887  0.32522432  0.38431360  1  -0.003237  0.012468  3.616595  0.011  -0.047489  0.012544  3.880181  0.01  -0.040111  0.010527  3.89269  0.009  0.039124  -0.051908  0.015753  3.871225  0.012
C  C44  1  0.81341720  0.19413852  0.73067292  1  0.662813  0.007477  3.8991  0.008  0.614584  0.012972  4.185219  0.013  0.648562  0.009865  4.18181  0.01  0.227002  0.591461  0.016517  4.186307  0.015
C  C45  1  0.18658256  0.80586109  0.26932789  1  0.6628  0.007477  3.898962  0.008  0.614601  0.012971  4.185092  0.013  0.648578  0.009862  4.181684  0.01  0.227056  0.591485  0.016516  4.186174  0.015
C  C46  1  0.74398505  0.59734374  0.53314960  1  0.001839  0.013811  3.54407  0.012  -0.051569  0.014818  3.805506  0.011  -0.042692  0.0125  3.816725  0.01  0.050668  -0.057606  0.017574  3.798727  0.013
C  C47  1  0.25601526  0.40265708  0.46685089  1  0.00182  0.01372  3.544148  0.012  -0.051583  0.014819  3.80557  0.011  -0.042704  0.012498  3.816788  0.01  0.050709  -0.05762  0.017572  3.798795  0.013
N  N48  1  0.17520198  0.31651788  0.98215392  1  0.286765  -0.013126  3.62695  -0.011  0.334945  0.000744  3.892424  0.002  0.334284  -0.007393  3.911911  -0.005  -0.106041  0.333476  0.009798  3.879294  0.011
N  N49  1  0.82479779  0.68348171  0.01784511  1  0.2868  -0.01308  3.62692  -0.011  0.334972  0.00074  3.892378  0.002  0.334311  -0.007388  3.911865  -0.005  -0.106021  0.3335  0.009797  3.879252  0.011
N  N50  1  0.39209404  0.78006200  0.51573819  1  -0.668859  0.015564  2.767122  -0.013  -0.639055  0.034553  3.10391  -0.005  -0.668227  0.019294  3.104054  -0.016  -0.324112  -0.616538  0.048876  3.1032  0.006
N  N51  1  0.60790671  0.21993760  0.48426183  1  -0.66885  0.015525  2.767057  -0.013  -0.639045  0.034558  3.103852  -0.005  -0.668209  0.019281  3.10398  -0.016  -0.324118  -0.616528  0.048878  3.103136  0.006
N  N52  1  0.46239568  0.78479041  0.61408120  1  0.403363  -0.004249  4.214951  -0.002  0.437349  0.012515  4.504442  0.013  0.453279  0.004766  4.537212  0.006  0.0897  0.426039  0.018294  4.480455  0.018
N  N53  1  0.53760365  0.21521041  0.38591830  1  0.40341  -0.004248  4.214954  -0.002  0.437393  0.012519  4.504444  0.013  0.453324  0.004765  4.53721  0.006  0.089742  0.426084  0.018295  4.480456  0.018
N  N54  1  0.52907689  0.79178138  0.71004192  1  -0.362279  0.08807  2.354442  0.087  -0.370142  0.087507  2.57128  0.08  -0.377254  0.08363  2.582191  0.078  -0.183814  -0.362454  0.09414  2.562507  0.085
N  N55  1  0.47092342  0.20821945  0.28995947  1  -0.362316  0.088101  2.354495  0.087  -0.370173  0.087498  2.57134  0.08  -0.377285  0.083637  2.582251  0.078  -0.183841  -0.362492  0.094134  2.562568  0.085
N  N56  1  0.86344531  0.62697308  0.62894511  1  0.266578  -0.004987  3.718821  -0.004  0.323331  0.002122  3.979683  0.002  0.322202  -0.001896  4.003793  -0.001  -0.112003  0.323096  0.005513  3.962668  0.005
N  N57  1  0.13655500  0.37302774  0.37105627  1  0.266588  -0.00492  3.718865  -0.004  0.323354  0.00212  3.979714  0.002  0.322224  -0.001899  4.003824  -0.001  -0.11201  0.323115  0.005513  3.962705  0.005
O  O58  1  0.30604225  0.45336674  0.06997830  1  -0.581967  0.051687  1.978577  0.023  -0.519604  0.059539  2.274615  0.023  -0.547717  0.058125  2.260871  0.024  -0.21902  -0.49817  0.062702  2.283619  0.025
O  O59  1  0.69395752  0.54663286  0.93002162  1  -0.581975  0.051686  1.978553  0.023  -0.519618  0.059539  2.274592  0.023  -0.547728  0.058133  2.260849  0.024  -0.219023  -0.498182  0.0627  2.283597  0.025
O  O60  1  0.51020014  0.82589547  0.30114397  1  -0.637161  0.057978  2.191382  0.035  -0.555076  0.074475  2.474246  0.047  -0.589909  0.067935  2.460597  0.041  -0.294316  -0.529037  0.080755  2.482599  0.053
O  O61  1  0.48979809  0.17410291  0.69885619  1  -0.637129  0.057976  2.191396  0.035  -0.555047  0.074475  2.474271  0.047  -0.589877  0.067935  2.46062  0.041  -0.294296  -0.528998  0.080756  2.482613  0.053
O  O62  1  0.51013573  0.55924148  0.34682987  1  -0.649459  0.032172  2.092643  0.02  -0.588484  0.038721  2.365396  0.023  -0.620358  0.034554  2.353195  0.019  -0.303983  -0.564279  0.043098  2.372408  0.027
O  O63  1  0.48986557  0.44075935  0.65317250  1  -0.64942  0.032173  2.092648  0.02  -0.588459  0.038721  2.365397  0.023  -0.620326  0.034559  2.353192  0.019  -0.303981  -0.564268  0.043097  2.372444  0.027
O  O64  1  0.64325220  0.56270805  0.19652847  1  -0.636241  0.031707  2.020129  0.02  -0.579612  0.04115  2.28033  0.027  -0.609248  0.036449  2.267733  0.022  -0.300367  -0.557176  0.045911  2.287683  0.031
O  O65  1  0.35674756  0.43729156  0.80347235  1  -0.636271  0.031709  2.020079  0.02  -0.579649  0.041151  2.280276  0.027  -0.609286  0.036447  2.267683  0.022  -0.30039  -0.557205  0.045913  2.287629  0.031
O  O66  1  0.56445722  0.75414558  0.09756542  1  -0.594586  0.031944  2.094805  0.02  -0.533623  0.040969  2.360191  0.026  -0.564482  0.036172  2.348289  0.021  -0.297923  -0.510026  0.045673  2.367089  0.03
O  O67  1  0.43554507  0.24585524  0.90243615  1  -0.594522  0.031947  2.094903  0.02  -0.533557  0.040966  2.36029  0.026  -0.564414  0.036171  2.348386  0.021  -0.297871  -0.509955  0.045673  2.367187  0.03
O  O68  1  0.82645227  0.33546516  0.77584239  1  -0.637445  0.030934  2.035786  0.019  -0.580271  0.03944  2.300361  0.025  -0.610186  0.03507  2.288583  0.02  -0.304116  -0.558087  0.044056  2.307408  0.029
O  O69  1  0.17354749  0.66453444  0.22415753  1  -0.637445  0.030939  2.035715  0.019  -0.580294  0.039439  2.300306  0.025  -0.61021  0.035071  2.288524  0.02  -0.304139  -0.558112  0.044054  2.307354  0.029
O  O70  1  0.71309505  0.06043666  0.62052909  1  -0.618768  0.031064  2.052571  0.019  -0.556674  0.038235  2.307388  0.023  -0.587522  0.034172  2.297565  0.019  -0.3002  -0.534019  0.041875  2.313278  0.026
O  O71  1  0.28690427  0.93956416  0.37947041  1  -0.618725  0.031059  2.052483  0.019  -0.556663  0.038236  2.307321  0.023  -0.587514  0.034172  2.297507  0.019  -0.300213  -0.53401  0.041875  2.313216  0.026
O  O72  1  0.84594012  0.61207372  0.73809417  1  -0.558322  0.026704  1.821893  0.015  -0.515629  0.032046  2.08128  0.016  -0.543871  0.029501  2.078622  0.014  -0.234004  -0.493958  0.036404  2.082684  0.02
O  O73  1  0.15405866  0.38792589  0.26190655  1  -0.558298  0.026708  1.821847  0.015  -0.515628  0.032045  2.081243  0.016  -0.543878  0.029503  2.078593  0.014  -0.234015  -0.493948  0.036403  2.082644  0.02
