# generated using pymatgen
data_Zn3H20C30S2(N5O4)2
_symmetry_space_group_name_H-M   'P 1'
_cell_length_a   9.28817534
_cell_length_b   11.22982309
_cell_length_c   16.81227548
_cell_angle_alpha   86.30678876
_cell_angle_beta   80.97925064
_cell_angle_gamma   65.57818261
_symmetry_Int_Tables_number   1
_chemical_formula_structural   Zn3H20C30S2(N5O4)2
_chemical_formula_sum   'Zn6 H40 C60 S4 N20 O16'
_cell_volume   1576.94755446
_cell_formula_units_Z   2
loop_
 _symmetry_equiv_pos_site_id
 _symmetry_equiv_pos_as_xyz
  1  'x, y, z'
loop_
 _atom_site_type_symbol
 _atom_site_label
 _atom_site_symmetry_multiplicity
 _atom_site_fract_x
 _atom_site_fract_y
 _atom_site_fract_z
 _atom_site_occupancy
 _atom_site_hle17_bader_spin_density
 _atom_site_hle17_ddec_charge
 _atom_site_hle17_ddec_spin_density
 _atom_site_hle17_ddec_sum_bond_order
 _atom_site_hle17_magmom
 _atom_site_hse06_10hf_bader_spin_density
 _atom_site_hse06_10hf_ddec_charge
 _atom_site_hse06_10hf_ddec_spin_density
 _atom_site_hse06_10hf_ddec_sum_bond_order
 _atom_site_hse06_10hf_magmom
 _atom_site_hse06_bader_spin_density
 _atom_site_hse06_ddec_charge
 _atom_site_hse06_ddec_spin_density
 _atom_site_hse06_ddec_sum_bond_order
 _atom_site_hse06_magmom
 _atom_site_pbe_bader_spin_density
 _atom_site_pbe_cm5_charge
 _atom_site_pbe_ddec_charge
 _atom_site_pbe_ddec_spin_density
 _atom_site_pbe_ddec_sum_bond_order
 _atom_site_pbe_magmom
Zn  Zn0  1  0.26149369  0.47808775  0.25000007  1  0  0.985846  0  2.018728  0  0  0.796006  0  2.497213  0  0  0.838963  0  2.448002  0  0  0.72481  0.76624  0  2.530541  0
Zn  Zn1  1  0.73850674  0.52191199  0.74999950  1  0  0.985753  0  2.01879  0  0  0.795907  0  2.497276  0  0  0.838865  0  2.448065  0  0  0.724778  0.766139  0  2.530603  0
Zn  Zn2  1  0.05380839  0.34184491  0.09546199  1  0  0.957445  0  1.856473  0  0  0.782823  0  2.318376  0  0  0.831654  0  2.265212  0  0  0.621794  0.748446  0  2.355493  0
Zn  Zn3  1  0.60468892  0.34179697  0.40470757  1  0  0.957074  0  1.858061  0  0  0.782527  0  2.3203  0  0  0.831292  0  2.267169  0  0  0.621862  0.748204  0  2.357399  0
Zn  Zn4  1  0.94618826  0.65815582  0.90453903  1  0  0.957416  0  1.856467  0  0  0.782806  0  2.318364  0  0  0.83164  0  2.265197  0  0  0.621797  0.748431  0  2.355478  0
Zn  Zn5  1  0.39531299  0.65819984  0.59529081  1  0  0.957055  0  1.858006  0  0  0.782551  0  2.320241  0  0  0.831323  0  2.267103  0  0  0.621865  0.748232  0  2.357338  0
H  H6  1  0.98329488  0.07998765  0.30584712  1  0  0.109694  0  0.978686  0  0  0.117922  0  1.041849  0  0  0.121642  0  1.039166  0  0  0.103983  0.115085  0  1.04409  0
H  H7  1  0.93785751  0.07960883  0.19413189  1  0  0.110587  0  0.977841  0  0  0.118104  0  1.041621  0  0  0.121891  0  1.038819  0  0  0.104189  0.115302  0  1.043821  0
H  H8  1  0.01670772  0.92001209  0.69415286  1  0  0.109714  0  0.978629  0  0  0.117941  0  1.041786  0  0  0.121662  0  1.039098  0  0  0.104006  0.115095  0  1.044037  0
H  H9  1  0.06214507  0.92039092  0.80586988  1  0  0.110615  0  0.977865  0  0  0.118123  0  1.041635  0  0  0.121911  0  1.038839  0  0  0.104198  0.115323  0  1.043833  0
H  H10  1  0.06583006  0.91114614  0.41306945  1  0  0.095753  0  0.952656  0  0  0.104571  0  1.016155  0  0  0.107554  0  1.015439  0  0  0.098535  0.102277  0  1.017053  0
H  H11  1  0.02365791  0.91091559  0.08675413  1  0  0.095521  0  0.953394  0  0  0.104171  0  1.017207  0  0  0.107191  0  1.01647  0  0  0.098483  0.101923  0  1.018061  0
H  H12  1  0.93417362  0.08885360  0.58693104  1  0  0.095808  0  0.952599  0  0  0.10456  0  1.016149  0  0  0.107597  0  1.015376  0  0  0.098552  0.10227  0  1.017052  0
H  H13  1  0.97634132  0.08908220  0.91324562  1  0  0.09552  0  0.953386  0  0  0.104176  0  1.017197  0  0  0.107193  0  1.016459  0  0  0.098477  0.101929  0  1.018051  0
H  H14  1  0.43138806  0.03566137  0.44916472  1  0  0.109937  0  0.988122  0  0  0.11636  0  1.055191  0  0  0.120801  0  1.051075  0  0  0.104657  0.113231  0  1.058051  0
H  H15  1  0.53332491  0.03565782  0.05115443  1  0  0.110622  0  0.987513  0  0  0.117285  0  1.054202  0  0  0.121633  0  1.050245  0  0  0.104891  0.114195  0  1.057015  0
H  H16  1  0.56861525  0.96434131  0.55083508  1  0  0.109947  0  0.988138  0  0  0.116402  0  1.055158  0  0  0.120846  0  1.051042  0  0  0.104689  0.113275  0  1.058016  0
H  H17  1  0.46667383  0.96434095  0.94884591  1  0  0.11068  0  0.987502  0  0  0.117361  0  1.054142  0  0  0.121705  0  1.050195  0  0  0.10492  0.114267  0  1.056966  0
H  H18  1  0.35355565  0.19947431  0.34086656  1  0  0.10778  0  0.948888  0  0  0.116793  0  1.010493  0  0  0.11964  0  1.009572  0  0  0.105214  0.114738  0  1.011196  0
H  H19  1  0.44786756  0.19955191  0.15948011  1  0  0.107619  0  0.949706  0  0  0.117143  0  1.010689  0  0  0.120003  0  1.009693  0  0  0.105023  0.115078  0  1.011403  0
H  H20  1  0.64644645  0.80052641  0.65913461  1  0  0.107788  0  0.948897  0  0  0.116811  0  1.010478  0  0  0.119661  0  1.009554  0  0  0.10523  0.114758  0  1.01118  0
H  H21  1  0.55213128  0.80044882  0.84052074  1  0  0.107587  0  0.949768  0  0  0.117115  0  1.01076  0  0  0.119977  0  1.00976  0  0  0.105  0.115049  0  1.011471  0
H  H22  1  0.38404321  0.78772911  0.03591895  1  0  0.120712  0  0.974246  0  0  0.125583  0  1.041813  0  0  0.128705  0  1.041289  0  0  0.110112  0.123386  0  1.042257  0
H  H23  1  0.82863950  0.78700202  0.46446044  1  0  0.120311  0  0.974914  0  0  0.125684  0  1.041889  0  0  0.128784  0  1.041408  0  0  0.110034  0.123493  0  1.042329  0
H  H24  1  0.61595553  0.21226966  0.96408139  1  0  0.120721  0  0.974321  0  0  0.125593  0  1.04187  0  0  0.128714  0  1.041349  0  0  0.110126  0.123397  0  1.042314  0
H  H25  1  0.17136806  0.21299870  0.53553968  1  0  0.120408  0  0.974924  0  0  0.125759  0  1.041894  0  0  0.128857  0  1.041415  0  0  0.110071  0.123571  0  1.042323  0
H  H26  1  0.43436580  0.92713842  0.12872032  1  0  0.104469  0  0.957672  0  0  0.114441  0  1.016721  0  0  0.116706  0  1.015559  0  0  0.111707  0.112845  0  1.017431  0
H  H27  1  0.63906585  0.92694697  0.37181599  1  0  0.104753  0  0.956536  0  0  0.11462  0  1.015826  0  0  0.116987  0  1.014526  0  0  0.11189  0.112978  0  1.016596  0
H  H28  1  0.56564082  0.07285546  0.87128017  1  0  0.104495  0  0.957568  0  0  0.114413  0  1.016702  0  0  0.11668  0  1.015538  0  0  0.111692  0.112817  0  1.017412  0
H  H29  1  0.36093596  0.07305865  0.62818738  1  0  0.104633  0  0.956601  0  0  0.114543  0  1.015865  0  0  0.11691  0  1.014563  0  0  0.111862  0.112901  0  1.016633  0
H  H30  1  0.43133485  0.86877933  0.27640058  1  0  0.102142  0  0.966347  0  0  0.110465  0  1.02928  0  0  0.112194  0  1.031172  0  0  0.106805  0.109311  0  1.028013  0
H  H31  1  0.70033247  0.86899166  0.22403412  1  0  0.102587  0  0.966718  0  0  0.111642  0  1.028667  0  0  0.113392  0  1.030522  0  0  0.10744  0.110479  0  1.027416  0
H  H32  1  0.56867009  0.13121357  0.72359890  1  0  0.102106  0  0.96634  0  0  0.110413  0  1.029298  0  0  0.112142  0  1.03119  0  0  0.1068  0.109259  0  1.02803  0
H  H33  1  0.29966618  0.13101591  0.77596884  1  0  0.10262  0  0.966697  0  0  0.11166  0  1.028656  0  0  0.113413  0  1.030505  0  0  0.107444  0.110496  0  1.027406  0
H  H34  1  0.37405445  0.67558710  0.32423858  1  0  0.085653  0  0.940037  0  0  0.090999  0  1.007431  0  0  0.093615  0  1.005589  0  0  0.112066  0.089095  0  1.008702  0
H  H35  1  0.95055450  0.67573185  0.17595034  1  0  0.085714  0  0.939971  0  0  0.091628  0  1.00662  0  0  0.094223  0  1.004826  0  0  0.112286  0.089721  0  1.007894  0
H  H36  1  0.62594479  0.32441070  0.67576057  1  0  0.085636  0  0.940065  0  0  0.090995  0  1.007452  0  0  0.093609  0  1.005611  0  0  0.112079  0.089089  0  1.008722  0
H  H37  1  0.04944044  0.32427670  0.82404932  1  0  0.085792  0  0.940107  0  0  0.091702  0  1.006733  0  0  0.094294  0  1.004944  0  0  0.112322  0.089797  0  1.008006  0
H  H38  1  0.36030514  0.61140732  0.89576627  1  0  0.280374  0  0.909315  0  0  0.26663  0  0.983081  0  0  0.27193  0  0.978496  0  0  0.29654  0.263135  0  0.985795  0
H  H39  1  0.02873906  0.61118847  0.60433419  1  0  0.279864  0  0.91003  0  0  0.266415  0  0.983082  0  0  0.271751  0  0.97846  0  0  0.296742  0.262895  0  0.985823  0
H  H40  1  0.63969311  0.38859243  0.10423408  1  0  0.280366  0  0.909322  0  0  0.266627  0  0.983086  0  0  0.27193  0  0.978496  0  0  0.296557  0.263132  0  0.985802  0
H  H41  1  0.97126394  0.38880834  0.39566470  1  0  0.279845  0  0.910076  0  0  0.266384  0  0.983144  0  0  0.271719  0  0.978523  0  0  0.296718  0.262864  0  0.985884  0
H  H42  1  0.21720057  0.73924831  0.94418921  1  0  0.288645  0  0.913252  0  0  0.277983  0  0.980552  0  0  0.28253  0  0.977152  0  0  0.300427  0.274856  0  0.982778  0
H  H43  1  0.04356547  0.73907335  0.55583220  1  0  0.288895  0  0.912327  0  0  0.277958  0  0.980125  0  0  0.282506  0  0.976709  0  0  0.300394  0.274839  0  0.982359  0
H  H44  1  0.78279986  0.26075144  0.05581036  1  0  0.288641  0  0.913258  0  0  0.277978  0  0.980569  0  0  0.282525  0  0.97717  0  0  0.300431  0.274852  0  0.982795  0
H  H45  1  0.95643704  0.26092444  0.44416668  1  0  0.288924  0  0.912294  0  0  0.277984  0  0.980089  0  0  0.28253  0  0.976676  0  0  0.300399  0.274864  0  0.982322  0
C  C46  1  0.08567710  0.06590394  0.33508640  1  0  -0.076681  0  3.715941  0  0  -0.100949  0  3.96351  0  0  -0.100697  0  3.981417  0  0  -0.08514  -0.100914  0  3.951528  0
C  C47  1  0.84940529  0.06560267  0.16496809  1  0  -0.077999  0  3.717047  0  0  -0.101305  0  3.964572  0  0  -0.101101  0  3.982471  0  0  -0.085247  -0.101292  0  3.952549  0
C  C48  1  0.91432283  0.93409679  0.66491436  1  0  -0.076759  0  3.715947  0  0  -0.101052  0  3.963452  0  0  -0.100799  0  3.981368  0  0  -0.0852  -0.101009  0  3.951477  0
C  C49  1  0.15059720  0.93439512  0.83503198  1  0  -0.077942  0  3.717123  0  0  -0.10123  0  3.964631  0  0  -0.101032  0  3.982534  0  0  -0.085215  -0.101218  0  3.952608  0
C  C50  1  0.12990199  0.97328196  0.39610827  1  0  -0.072875  0  3.730589  0  0  -0.095158  0  3.983003  0  0  -0.09589  0  4.002346  0  0  -0.085819  -0.094794  0  3.97015  0
C  C51  1  0.89749787  0.97306194  0.10386331  1  0  -0.071951  0  3.732325  0  0  -0.094363  0  3.984128  0  0  -0.095144  0  4.003564  0  0  -0.086075  -0.094015  0  3.97122  0
C  C52  1  0.87010597  0.02671583  0.60389016  1  0  -0.072982  0  3.730567  0  0  -0.095199  0  3.982999  0  0  -0.09598  0  4.002318  0  0  -0.085824  -0.094844  0  3.970152  0
C  C53  1  0.10249967  0.02693487  0.89613662  1  0  -0.072036  0  3.732479  0  0  -0.094466  0  3.984299  0  0  -0.095258  0  4.003722  0  0  -0.086118  -0.09412  0  3.971397  0
C  C54  1  0.25743762  0.95923602  0.43621742  1  0  -0.059432  0  3.763026  0  0  -0.037433  0  3.993997  0  0  -0.043546  0  4.015745  0  0  -0.017431  -0.033344  0  3.979412  0
C  C55  1  0.78380977  0.95915302  0.06381861  1  0  -0.060469  0  3.76457  0  0  -0.037906  0  3.994963  0  0  -0.043991  0  4.016639  0  0  -0.016954  -0.033885  0  3.980498  0
C  C56  1  0.74256715  0.04076373  0.56378357  1  0  -0.059069  0  3.762946  0  0  -0.037128  0  3.993889  0  0  -0.043244  0  4.015654  0  0  -0.017363  -0.033039  0  3.979303  0
C  C57  1  0.21618314  0.04084868  0.93618209  1  0  -0.060451  0  3.764561  0  0  -0.037875  0  3.994938  0  0  -0.043913  0  4.016551  0  0  -0.016952  -0.033855  0  3.980474  0
C  C58  1  0.33666456  0.04198145  0.41613028  1  0  -0.092406  0  3.743924  0  0  -0.114429  0  3.994543  0  0  -0.115293  0  4.012347  0  0  -0.088354  -0.113715  0  3.982263  0
C  C59  1  0.62189281  0.04191957  0.08410394  1  0  -0.092686  0  3.745761  0  0  -0.114899  0  3.996086  0  0  -0.115709  0  4.013943  0  0  -0.088513  -0.114197  0  3.9838  0
C  C60  1  0.66333926  0.95802026  0.58386892  1  0  -0.09252  0  3.744016  0  0  -0.114554  0  3.994655  0  0  -0.115422  0  4.012461  0  0  -0.088405  -0.113837  0  3.982372  0
C  C61  1  0.37810383  0.95808116  0.91589888  1  0  -0.092773  0  3.745743  0  0  -0.114984  0  3.996072  0  0  -0.115809  0  4.013915  0  0  -0.088527  -0.114283  0  3.983783  0
C  C62  1  0.29287641  0.13443305  0.35545534  1  0  -0.0626  0  3.71869  0  0  -0.085843  0  3.96745  0  0  -0.085988  0  3.986846  0  0  -0.082941  -0.085463  0  3.953969  0
C  C63  1  0.57352911  0.13437077  0.14480489  1  0  -0.064036  0  3.720611  0  0  -0.087692  0  3.969834  0  0  -0.08785  0  3.98924  0  0  -0.083789  -0.087272  0  3.956304  0
C  C64  1  0.70712573  0.86556767  0.64454286  1  0  -0.062622  0  3.718809  0  0  -0.08592  0  3.967541  0  0  -0.086063  0  3.986931  0  0  -0.083001  -0.08554  0  3.954059  0
C  C65  1  0.42647034  0.86563093  0.85519468  1  0  -0.063983  0  3.720554  0  0  -0.087665  0  3.9698  0  0  -0.087821  0  3.989203  0  0  -0.083776  -0.08724  0  3.956261  0
C  C66  1  0.16837310  0.14593271  0.31363893  1  0  -0.073519  0  3.760278  0  0  -0.046289  0  3.985503  0  0  -0.053457  0  4.007396  0  0  -0.01743  -0.041671  0  3.970739  0
C  C67  1  0.68674081  0.14577855  0.18650112  1  0  -0.071778  0  3.759104  0  0  -0.045265  0  3.984944  0  0  -0.052416  0  4.00686  0  0  -0.016794  -0.040665  0  3.970187  0
C  C68  1  0.83162902  0.85406801  0.68636046  1  0  -0.073519  0  3.760306  0  0  -0.046151  0  3.98533  0  0  -0.053314  0  4.007219  0  0  -0.017362  -0.041533  0  3.970566  0
C  C69  1  0.31325962  0.85422120  0.81349845  1  0  -0.07179  0  3.759123  0  0  -0.045273  0  3.984949  0  0  -0.05242  0  4.006862  0  0  -0.016804  -0.040671  0  3.970189  0
C  C70  1  0.12416784  0.24737074  0.24905745  1  0  0.668258  0  3.877362  0  0  0.61764  0  4.163481  0  0  0.653194  0  4.153917  0  0  0.21808  0.593431  0  4.169475  0
C  C71  1  0.62967085  0.24741043  0.25101813  1  0  0.667184  0  3.877179  0  0  0.616884  0  4.163169  0  0  0.652428  0  4.153642  0  0  0.217769  0.59268  0  4.16913  0
C  C72  1  0.87583050  0.75263096  0.75094399  1  0  0.668196  0  3.877398  0  0  0.617551  0  4.163509  0  0  0.653097  0  4.15395  0  0  0.21804  0.593342  0  4.169502  0
C  C73  1  0.37032959  0.75258931  0.74898084  1  0  0.667017  0  3.877296  0  0  0.616745  0  4.163267  0  0  0.652287  0  4.153737  0  0  0.217756  0.592539  0  4.169226  0
C  C74  1  0.31532662  0.85642769  0.49878501  1  0  0.625214  0  3.921297  0  0  0.580358  0  4.204853  0  0  0.613934  0  4.198747  0  0  0.193254  0.557651  0  4.208368  0
C  C75  1  0.82840257  0.85649429  0.00111701  1  0  0.625712  0  3.917874  0  0  0.580569  0  4.201655  0  0  0.614135  0  4.195555  0  0  0.193354  0.557881  0  4.205166  0
C  C76  1  0.68467317  0.14357108  0.50121763  1  0  0.62494  0  3.921499  0  0  0.580176  0  4.204941  0  0  0.613751  0  4.198843  0  0  0.193221  0.557469  0  4.208454  0
C  C77  1  0.17158987  0.14350839  0.99888251  1  0  0.625711  0  3.917838  0  0  0.580546  0  4.20164  0  0  0.614098  0  4.195538  0  0  0.193336  0.557857  0  4.205149  0
C  C78  1  0.22690372  0.49039537  0.99622220  1  0  0.294416  0  3.800847  0  0  0.254037  0  4.09865  0  0  0.273635  0  4.110829  0  0  0.215035  0.24086  0  4.09091  0
C  C79  1  0.28294125  0.49008129  0.50389424  1  0  0.292015  0  3.804361  0  0  0.251747  0  4.101937  0  0  0.271284  0  4.11422  0  0  0.213928  0.238592  0  4.094166  0
C  C80  1  0.77309295  0.50960536  0.00377763  1  0  0.294608  0  3.800545  0  0  0.254146  0  4.098454  0  0  0.273737  0  4.110643  0  0  0.215087  0.240968  0  4.090715  0
C  C81  1  0.71705968  0.50991748  0.49610474  1  0  0.292132  0  3.80457  0  0  0.251981  0  4.102036  0  0  0.271532  0  4.114298  0  0  0.213975  0.238827  0  4.094265  0
C  C82  1  0.30061740  0.58025301  0.08725450  1  0  0.228993  0  3.720042  0  0  0.187596  0  3.992194  0  0  0.202298  0  4.003523  0  0  0.23528  0.177228  0  3.985468  0
C  C83  1  0.11957214  0.57983838  0.41283589  1  0  0.226831  0  3.721732  0  0  0.185886  0  3.992891  0  0  0.200614  0  4.004247  0  0  0.234425  0.175568  0  3.986072  0
C  C84  1  0.69937662  0.41974869  0.91274432  1  0  0.229026  0  3.719953  0  0  0.187581  0  3.992175  0  0  0.202282  0  4.003505  0  0  0.235295  0.177265  0  3.985381  0
C  C85  1  0.88043267  0.42016136  0.58716213  1  0  0.226754  0  3.721637  0  0  0.185846  0  3.992778  0  0  0.200573  0  4.004136  0  0  0.234428  0.175533  0  3.985957  0
C  C86  1  0.34632674  0.66277511  0.13245059  1  0  0.158817  0  3.780165  0  0  0.157531  0  4.028407  0  0  0.161817  0  4.04742  0  0  0.119792  0.153819  0  4.016475  0
C  C87  1  0.99132181  0.66237279  0.36771281  1  0  0.159213  0  3.779236  0  0  0.158519  0  4.025979  0  0  0.162787  0  4.044991  0  0  0.120139  0.154801  0  4.014044  0
C  C88  1  0.65367031  0.33722268  0.86754993  1  0  0.158888  0  3.779986  0  0  0.157615  0  4.02824  0  0  0.161906  0  4.047249  0  0  0.119814  0.153888  0  4.0163  0
C  C89  1  0.00867970  0.33762695  0.63228786  1  0  0.159146  0  3.779275  0  0  0.15843  0  4.026075  0  0  0.1627  0  4.045085  0  0  0.120074  0.154703  0  4.014152  0
C  C90  1  0.38136978  0.76706771  0.10007980  1  0  -0.115688  0  3.66025  0  0  -0.139413  0  3.911374  0  0  -0.143703  0  3.929734  0  0  -0.074973  -0.136326  0  3.899921  0
C  C91  1  0.85198388  0.76658684  0.40025123  1  0  -0.116239  0  3.658379  0  0  -0.140533  0  3.909134  0  0  -0.144823  0  3.927512  0  0  -0.075575  -0.137445  0  3.897681  0
C  C92  1  0.61863053  0.23293008  0.89992045  1  0  -0.11583  0  3.66036  0  0  -0.139524  0  3.911463  0  0  -0.143816  0  3.929821  0  0  -0.075022  -0.136439  0  3.900015  0
C  C93  1  0.14802102  0.23341487  0.59974848  1  0  -0.116292  0  3.658225  0  0  -0.140566  0  3.909029  0  0  -0.144857  0  3.92741  0  0  -0.07555  -0.137479  0  3.897581  0
C  C94  1  0.41132290  0.84319157  0.15220084  1  0  0.016418  0  3.67642  0  0  -0.000301  0  3.922623  0  0  0.00279  0  3.939868  0  0  -0.056849  -0.002117  0  3.911242  0
C  C95  1  0.74599626  0.84299335  0.34821021  1  0  0.016759  0  3.674674  0  0  -7.1e-05  0  3.92143  0  0  0.002962  0  3.938627  0  0  -0.056958  -0.001863  0  3.910089  0
C  C96  1  0.58867947  0.15680427  0.84779992  1  0  0.016563  0  3.676237  0  0  -0.000146  0  3.922484  0  0  0.002946  0  3.939722  0  0  -0.05676  -0.001963  0  3.911104  0
C  C97  1  0.25400109  0.15701031  0.65179183  1  0  0.016932  0  3.67467  0  0  6.4e-05  0  3.921402  0  0  0.003097  0  3.938601  0  0  -0.056921  -0.001728  0  3.910061  0
C  C98  1  0.40950813  0.81153128  0.23366060  1  0  -0.107482  0  3.714696  0  0  -0.121496  0  3.96509  0  0  -0.127043  0  3.986483  0  0  -0.075863  -0.118354  0  3.950222  0
C  C99  1  0.77939183  0.81154096  0.26669898  1  0  -0.108247  0  3.716478  0  0  -0.122971  0  3.967258  0  0  -0.128527  0  3.988657  0  0  -0.076413  -0.119822  0  3.952368  0
C  C100  1  0.59049751  0.18846456  0.76633989  1  0  -0.107457  0  3.714586  0  0  -0.121438  0  3.965002  0  0  -0.126985  0  3.986397  0  0  -0.075896  -0.118294  0  3.950131  0
C  C101  1  0.22060664  0.18846270  0.73330178  1  0  -0.108291  0  3.716498  0  0  -0.122991  0  3.967277  0  0  -0.128546  0  3.988679  0  0  -0.076426  -0.119842  0  3.952391  0
C  C102  1  0.37650997  0.70419127  0.26091761  1  0  0.149585  0  3.677638  0  0  0.120531  0  3.930086  0  0  0.127329  0  3.946219  0  0  0.054369  0.116698  0  3.918214  0
C  C103  1  0.91960285  0.70418659  0.23930881  1  0  0.150399  0  3.67731  0  0  0.120779  0  3.929842  0  0  0.127567  0  3.945964  0  0  0.054704  0.116958  0  3.917973  0
C  C104  1  0.62349034  0.29580653  0.73908264  1  0  0.149451  0  3.677653  0  0  0.120385  0  3.93013  0  0  0.127182  0  3.946265  0  0  0.054282  0.116553  0  3.918253  0
C  C105  1  0.08039294  0.29581805  0.76069272  1  0  0.150146  0  3.677429  0  0  0.120528  0  3.929971  0  0  0.127315  0  3.946095  0  0  0.054584  0.116708  0  3.9181  0
S  S106  1  0.18849000  0.46219248  0.90510146  1  0  -0.445149  0  2.041979  0  0  -0.420515  0  2.389205  0  0  -0.438662  0  2.378905  0  0  -0.191467  -0.407525  0  2.396637  0
S  S107  1  0.34930578  0.46208983  0.59504583  1  0  -0.444089  0  2.044036  0  0  -0.419305  0  2.390827  0  0  -0.43736  0  2.380477  0  0  -0.190567  -0.406375  0  2.398329  0
S  S108  1  0.81150836  0.53780922  0.09489820  1  0  -0.445265  0  2.041965  0  0  -0.420593  0  2.389217  0  0  -0.438741  0  2.378921  0  0  -0.191531  -0.407605  0  2.396649  0
S  S109  1  0.65069772  0.53790601  0.40495186  1  0  -0.44414  0  2.044146  0  0  -0.419369  0  2.39088  0  0  -0.43743  0  2.380525  0  0  -0.190584  -0.40644  0  2.398382  0
N  N110  1  0.24988031  0.49380138  0.12425425  1  0  -0.268035  0  3.198185  0  0  -0.218731  0  3.491364  0  0  -0.231568  0  3.504818  0  0  -0.230216  -0.210188  0  3.482803  0
N  N111  1  0.25683968  0.49345564  0.37581935  1  0  -0.266785  0  3.196995  0  0  -0.217686  0  3.489953  0  0  -0.23054  0  3.503398  0  0  -0.22981  -0.209159  0  3.481382  0
N  N112  1  0.75011795  0.50619837  0.87574490  1  0  -0.268063  0  3.198321  0  0  -0.218758  0  3.491513  0  0  -0.231591  0  3.504965  0  0  -0.230219  -0.21023  0  3.482936  0
N  N113  1  0.74316345  0.50654313  0.62417825  1  0  -0.266693  0  3.19691  0  0  -0.21756  0  3.489868  0  0  -0.230411  0  3.503312  0  0  -0.229771  -0.209032  0  3.481293  0
N  N114  1  0.20482765  0.43748615  0.06876780  1  0  -0.276555  0  3.170616  0  0  -0.21154  0  3.462523  0  0  -0.230308  0  3.476143  0  0  -0.229684  -0.199478  0  3.454335  0
N  N115  1  0.35808945  0.43719929  0.43133454  1  0  -0.276704  0  3.170628  0  0  -0.211802  0  3.462951  0  0  -0.230544  0  3.476582  0  0  -0.229657  -0.199755  0  3.45477  0
N  N116  1  0.79517012  0.56251458  0.93123136  1  0  -0.276646  0  3.170672  0  0  -0.211587  0  3.462588  0  0  -0.230355  0  3.476208  0  0  -0.229704  -0.199527  0  3.454404  0
N  N117  1  0.64191308  0.56279850  0.56866256  1  0  -0.276786  0  3.170834  0  0  -0.212013  0  3.463249  0  0  -0.230756  0  3.476868  0  0  -0.229724  -0.199966  0  3.455069  0
N  N118  1  0.29028805  0.57927601  0.00747023  1  0  0.008107  0  3.551874  0  0  0.088066  0  3.779792  0  0  0.074448  0  3.800818  0  0  -0.144391  0.097066  0  3.766033  0
N  N119  1  0.13071402  0.57889168  0.49262807  1  0  0.011729  0  3.553062  0  0  0.091605  0  3.780466  0  0  0.077982  0  3.801583  0  0  -0.143018  0.100592  0  3.76664  0
N  N120  1  0.70971022  0.42072374  0.99252832  1  0  0.008128  0  3.551685  0  0  0.088135  0  3.779642  0  0  0.074519  0  3.800673  0  0  -0.144348  0.09712  0  3.76587  0
N  N121  1  0.86928958  0.42110612  0.50737013  1  0  0.011717  0  3.553088  0  0  0.091532  0  3.780478  0  0  0.077904  0  3.801592  0  0  -0.143008  0.100517  0  3.76665  0
N  N122  1  0.32467208  0.66139397  0.94939656  1  0  -0.495419  0  2.942552  0  0  -0.501257  0  3.186209  0  0  -0.509403  0  3.188183  0  0  -0.491127  -0.495162  0  3.18485  0
N  N123  1  0.01414890  0.66106637  0.55070712  1  0  -0.49594  0  2.943209  0  0  -0.502141  0  3.188115  0  0  -0.510306  0  3.190027  0  0  -0.491517  -0.496032  0  3.186797  0
N  N124  1  0.67532726  0.33860578  0.05060369  1  0  -0.495388  0  2.942516  0  0  -0.501247  0  3.186177  0  0  -0.509394  0  3.188151  0  0  -0.491143  -0.495153  0  3.184821  0
N  N125  1  0.98585410  0.33893044  0.44929176  1  0  -0.495952  0  2.943324  0  0  -0.502107  0  3.188195  0  0  -0.510273  0  3.190112  0  0  -0.491479  -0.495999  0  3.186876  0
N  N126  1  0.34431166  0.63225732  0.21186815  1  0  -0.350946  0  3.271396  0  0  -0.283763  0  3.532158  0  0  -0.300189  0  3.549327  0  0  -0.315173  -0.272126  0  3.519928  0
N  N127  1  0.02382671  0.63208591  0.28824581  1  0  -0.352267  0  3.269098  0  0  -0.284973  0  3.529106  0  0  -0.30136  0  3.546253  0  0  -0.315435  -0.273368  0  3.516892  0
N  N128  1  0.65568779  0.36774438  0.78813201  1  0  -0.350898  0  3.271229  0  0  -0.283727  0  3.532022  0  0  -0.300152  0  3.549189  0  0  -0.31513  -0.272089  0  3.519793  0
N  N129  1  0.97616960  0.36791775  0.71175334  1  0  -0.352077  0  3.269116  0  0  -0.284782  0  3.529139  0  0  -0.301166  0  3.54628  0  0  -0.315353  -0.273176  0  3.516927  0
O  O130  1  0.42316121  0.85319979  0.53692878  1  0  -0.599234  0  1.947963  0  0  -0.545038  0  2.175682  0  0  -0.570862  0  2.168832  0  0  -0.312751  -0.526846  0  2.179674  0
O  O131  1  0.72355835  0.85338099  0.96309714  1  0  -0.598684  0  1.943346  0  0  -0.544794  0  2.171417  0  0  -0.570577  0  2.164488  0  0  -0.312712  -0.526634  0  2.175457  0
O  O132  1  0.57683224  0.14680289  0.46307660  1  0  -0.599157  0  1.948033  0  0  -0.544985  0  2.175703  0  0  -0.570811  0  2.168857  0  0  -0.312729  -0.526794  0  2.179694  0
O  O133  1  0.27643307  0.14662365  0.03690535  1  0  -0.598623  0  1.943276  0  0  -0.54474  0  2.17139  0  0  -0.57053  0  2.164468  0  0  -0.312666  -0.526576  0  2.175427  0
O  O134  1  0.25539991  0.76980548  0.51055110  1  0  -0.65613  0  2.035651  0  0  -0.588952  0  2.295447  0  0  -0.617669  0  2.284556  0  0  -0.335108  -0.56902  0  2.302275  0
O  O135  1  0.97489904  0.76985469  0.98910566  1  0  -0.656865  0  2.035771  0  0  -0.58964  0  2.296114  0  0  -0.618326  0  2.285152  0  0  -0.335475  -0.569712  0  2.302951  0
O  O136  1  0.74460042  0.23019231  0.48944796  1  0  -0.65607  0  2.035678  0  0  -0.588927  0  2.295471  0  0  -0.61762  0  2.284535  0  0  -0.335115  -0.568994  0  2.302301  0
O  O137  1  0.02509471  0.23014310  0.01089632  1  0  -0.656915  0  2.035826  0  0  -0.589668  0  2.296173  0  0  -0.618352  0  2.285217  0  0  -0.335478  -0.569752  0  2.303043  0
O  O138  1  0.05486158  0.23026776  0.19346728  1  0  -0.599302  0  2.066579  0  0  -0.525681  0  2.325566  0  0  -0.554806  0  2.311953  0  0  -0.307399  -0.505337  0  2.334186  0
O  O139  1  0.71554073  0.22974789  0.30690842  1  0  -0.598734  0  2.066847  0  0  -0.525514  0  2.326178  0  0  -0.554624  0  2.312563  0  0  -0.307535  -0.505166  0  2.334787  0
O  O140  1  0.94513518  0.76973492  0.80653426  1  0  -0.599286  0  2.066591  0  0  -0.5257  0  2.325613  0  0  -0.554821  0  2.312003  0  0  -0.307435  -0.505357  0  2.334231  0
O  O141  1  0.28445766  0.77024502  0.69309219  1  0  -0.598644  0  2.066867  0  0  -0.525473  0  2.326221  0  0  -0.554579  0  2.312604  0  0  -0.307539  -0.505123  0  2.334826  0
O  O142  1  0.15779612  0.34526001  0.25170207  1  0  -0.653572  0  2.121449  0  0  -0.591235  0  2.404625  0  0  -0.616577  0  2.388059  0  0  -0.328147  -0.573537  0  2.415324  0
O  O143  1  0.49886636  0.34593579  0.24801827  1  0  -0.653117  0  2.118815  0  0  -0.590627  0  2.401137  0  0  -0.615939  0  2.384604  0  0  -0.327722  -0.572997  0  2.411917  0
O  O144  1  0.84220333  0.65474169  0.74829750  1  0  -0.653532  0  2.121502  0  0  -0.591171  0  2.404628  0  0  -0.616529  0  2.388109  0  0  -0.328102  -0.573471  0  2.415325  0
O  O145  1  0.50114035  0.65406885  0.75197998  1  0  -0.653011  0  2.118863  0  0  -0.590492  0  2.401095  0  0  -0.61583  0  2.384629  0  0  -0.327705  -0.572878  0  2.411908  0
