# generated using pymatgen
data_TbCuH16C16(NO)8
_symmetry_space_group_name_H-M   'P 1'
_cell_length_a   9.24198976
_cell_length_b   10.86503684
_cell_length_c   10.86505621
_cell_angle_alpha   88.04756261
_cell_angle_beta   72.69220918
_cell_angle_gamma   72.69214260
_symmetry_Int_Tables_number   1
_chemical_formula_structural   TbCuH16C16(NO)8
_chemical_formula_sum   'Tb2 Cu2 H32 C32 N16 O16'
_cell_volume   992.66997006
_cell_formula_units_Z   2
loop_
 _symmetry_equiv_pos_site_id
 _symmetry_equiv_pos_as_xyz
  1  'x, y, z'
loop_
 _atom_site_type_symbol
 _atom_site_label
 _atom_site_symmetry_multiplicity
 _atom_site_fract_x
 _atom_site_fract_y
 _atom_site_fract_z
 _atom_site_occupancy
 _atom_site_pbe_bader_spin_density
 _atom_site_pbe_cm5_charge
 _atom_site_pbe_ddec_charge
 _atom_site_pbe_ddec_spin_density
 _atom_site_pbe_ddec_sum_bond_order
 _atom_site_pbe_magmom
Tb  Tb0  1  0.25000180  0.03279887  0.96719903  1  0  1.483288  2.162789  0  2.065667  0
Tb  Tb1  1  0.74999909  0.96719780  0.03280065  1  0  1.483303  2.162661  0  2.065891  0
Cu  Cu2  1  0.49999943  0.99999927  0.49999900  1  0  0.574944  0.350897  0  1.991944  0
Cu  Cu3  1  0.99999969  0.50000152  0.99999945  1  0  0.574955  0.350908  0  1.991932  0
H  H4  1  0.56670814  0.74835234  0.36399945  1  0  0.104469  0.109369  0  1.012603  0
H  H5  1  0.93329020  0.63599821  0.25165140  1  0  0.104451  0.109346  0  1.01256  0
H  H6  1  0.43328989  0.25165790  0.63600312  1  0  0.104468  0.109344  0  1.012561  0
H  H7  1  0.06670951  0.36399552  0.74834503  1  0  0.104453  0.109333  0  1.012539  0
H  H8  1  0.43464649  0.63906123  0.55303263  1  0  0.098602  0.098226  0  1.019681  0
H  H9  1  0.06535831  0.44696327  0.36094042  1  0  0.098597  0.098224  0  1.019696  0
H  H10  1  0.56535562  0.36094415  0.44696542  1  0  0.098582  0.098195  0  1.019716  0
H  H11  1  0.93464071  0.55303534  0.63906057  1  0  0.098605  0.098248  0  1.019712  0
H  H12  1  0.14460778  0.67705982  0.61452231  1  0  0.103643  0.096138  0  1.031476  0
H  H13  1  0.35539525  0.38547709  0.32293954  1  0  0.103648  0.096141  0  1.031438  0
H  H14  1  0.85539503  0.32294072  0.38547486  1  0  0.103649  0.096138  0  1.031444  0
H  H15  1  0.64460155  0.61452442  0.67706282  1  0  0.103644  0.096127  0  1.031438  0
H  H16  1  0.11568355  0.93089201  0.30245857  1  0  0.114051  0.120768  0  1.007781  0
H  H17  1  0.38431498  0.69753907  0.06910878  1  0  0.114015  0.120687  0  1.007718  0
H  H18  1  0.88431248  0.06910851  0.69754219  1  0  0.114013  0.120747  0  1.007705  0
H  H19  1  0.61568591  0.30245762  0.93089274  1  0  0.114037  0.120759  0  1.007781  0
H  H20  1  0.11054377  0.92806593  0.79078231  1  0  0.295349  0.3955  0  0.942524  0
H  H21  1  0.38945506  0.20921783  0.07193534  1  0  0.295338  0.395486  0  0.942545  0
H  H22  1  0.88945376  0.07193363  0.20921811  1  0  0.295302  0.395459  0  0.942573  0
H  H23  1  0.61054848  0.79078080  0.92806357  1  0  0.295323  0.395501  0  0.942517  0
H  H24  1  0.18453418  0.02750809  0.70671938  1  0  0.289141  0.358311  0  0.996403  0
H  H25  1  0.31546433  0.29328093  0.97249268  1  0  0.289149  0.35832  0  0.996382  0
H  H26  1  0.81546334  0.97249145  0.29327920  1  0  0.289142  0.358308  0  0.996401  0
H  H27  1  0.68453736  0.70671964  0.02750754  1  0  0.289132  0.3583  0  0.996419  0
H  H28  1  0.41662681  0.76384890  0.83461318  1  0  0.296217  0.360998  0  0.991528  0
H  H29  1  0.08337378  0.16538360  0.23615166  1  0  0.296229  0.360992  0  0.99153  0
H  H30  1  0.58337636  0.23615067  0.16538394  1  0  0.29622  0.360996  0  0.991523  0
H  H31  1  0.91662487  0.83461596  0.76384847  1  0  0.296211  0.360967  0  0.991567  0
H  H32  1  0.53499092  0.84478132  0.77284429  1  0  0.298685  0.34782  0  1.012605  0
H  H33  1  0.96501093  0.22715360  0.15521870  1  0  0.298666  0.34777  0  1.012659  0
H  H34  1  0.46501189  0.15521924  0.22715472  1  0  0.298663  0.347764  0  1.012668  0
H  H35  1  0.03498922  0.77284500  0.84478017  1  0  0.298662  0.347752  0  1.01269  0
C  C36  1  0.43128994  0.91076696  0.21279112  1  0  0.225801  0.632834  0  4.18833  0
C  C37  1  0.06871203  0.78720591  0.08923279  1  0  0.225816  0.632926  0  4.188379  0
C  C38  1  0.56871554  0.08923558  0.78720987  1  0  0.225823  0.632959  0  4.188213  0
C  C39  1  0.93128280  0.21278878  0.91076671  1  0  0.225855  0.632983  0  4.18827  0
C  C40  1  0.34848925  0.84599786  0.32316007  1  0  -0.021684  -0.053661  0  3.987111  0
C  C41  1  0.15151099  0.67683729  0.15400420  1  0  -0.021726  -0.053786  0  3.987098  0
C  C42  1  0.65151137  0.15400850  0.67684016  1  0  -0.021672  -0.05377  0  3.986977  0
C  C43  1  0.84848799  0.32315840  0.84599510  1  0  -0.021696  -0.053736  0  3.987102  0
C  C44  1  0.43884455  0.76426888  0.39398029  1  0  -0.088935  -0.109715  0  4.006462  0
C  C45  1  0.06115556  0.60601718  0.23573497  1  0  -0.088864  -0.109594  0  4.006272  0
C  C46  1  0.56115494  0.23573748  0.60602023  1  0  -0.088896  -0.109606  0  4.006326  0
C  C47  1  0.93884421  0.39397951  0.76426776  1  0  -0.088906  -0.109636  0  4.006409  0
C  C48  1  0.36539628  0.70290697  0.49774979  1  0  -0.092114  -0.075988  0  4.010857  0
C  C49  1  0.13460520  0.50224805  0.29709429  1  0  -0.092086  -0.075982  0  4.010858  0
C  C50  1  0.63460245  0.29709841  0.50225006  1  0  -0.092112  -0.075966  0  4.010838  0
C  C51  1  0.86539569  0.49774863  0.70290632  1  0  -0.092107  -0.076048  0  4.010895  0
C  C52  1  0.20174415  0.72465176  0.53289524  1  0  -0.078983  -0.089159  0  3.928252  0
C  C53  1  0.29825748  0.46710481  0.27534994  1  0  -0.079021  -0.089181  0  3.928182  0
C  C54  1  0.79825756  0.27535170  0.46710392  1  0  -0.079026  -0.089184  0  3.928152  0
C  C55  1  0.70174194  0.53289575  0.72465179  1  0  -0.078979  -0.089081  0  3.928067  0
C  C56  1  0.10945462  0.80815728  0.46431004  1  0  -0.005786  0.020589  0  4.00774  0
C  C57  1  0.39054772  0.53568833  0.19184199  1  0  -0.005844  0.020511  0  4.007685  0
C  C58  1  0.89054520  0.19184519  0.53568873  1  0  -0.005809  0.020503  0  4.007811  0
C  C59  1  0.60945284  0.46431224  0.80815945  1  0  -0.005846  0.020513  0  4.007639  0
C  C60  1  0.18449450  0.86737481  0.35804040  1  0  -0.072702  -0.104619  0  3.895705  0
C  C61  1  0.31550651  0.64195739  0.13262619  1  0  -0.072686  -0.104506  0  3.89564  0
C  C62  1  0.81550908  0.13262670  0.64195654  1  0  -0.072653  -0.104527  0  3.895655  0
C  C63  1  0.68449102  0.35804218  0.86737607  1  0  -0.072705  -0.104594  0  3.89566  0
C  C64  1  0.93701465  0.83407527  0.50703669  1  0  0.220441  0.235033  0  4.050836  0
C  C65  1  0.56298700  0.49296180  0.16592591  1  0  0.22048  0.235104  0  4.050814  0
C  C66  1  0.06298627  0.16592431  0.49296286  1  0  0.220442  0.235089  0  4.050794  0
C  C67  1  0.43701167  0.50703781  0.83407789  1  0  0.220472  0.235029  0  4.050852  0
N  N68  1  0.83591591  0.89003456  0.43964288  1  0  -0.199627  -0.239666  0  3.210922  0
N  N69  1  0.66408516  0.56035575  0.10996593  1  0  -0.199573  -0.239605  0  3.211008  0
N  N70  1  0.16408351  0.10996597  0.56035700  1  0  -0.199587  -0.239617  0  3.210937  0
N  N71  1  0.33591350  0.43964383  0.89003512  1  0  -0.199583  -0.239604  0  3.21103  0
N  N72  1  0.69155352  0.89711739  0.52027322  1  0  -0.1746  -0.033812  0  3.72906  0
N  N73  1  0.80844812  0.47972599  0.10288241  1  0  -0.174643  -0.033851  0  3.72912  0
N  N74  1  0.30844663  0.10288122  0.47972657  1  0  -0.174601  -0.033806  0  3.72905  0
N  N75  1  0.19155167  0.52027359  0.89711834  1  0  -0.174636  -0.033813  0  3.729139  0
N  N76  1  0.70312689  0.84636896  0.63133270  1  0  -0.078897  -0.046458  0  3.294486  0
N  N77  1  0.79687490  0.36866521  0.15363110  1  0  -0.078889  -0.046449  0  3.294618  0
N  N78  1  0.29687326  0.15362964  0.36866617  1  0  -0.078911  -0.046481  0  3.294524  0
N  N79  1  0.20312525  0.63133340  0.84636868  1  0  -0.078911  -0.046473  0  3.294558  0
N  N80  1  0.85583190  0.80700825  0.62568046  1  0  -0.197868  -0.249817  0  3.265372  0
N  N81  1  0.64416997  0.37431888  0.19299176  1  0  -0.197869  -0.249862  0  3.265449  0
N  N82  1  0.14416865  0.19299231  0.37432006  1  0  -0.197882  -0.249856  0  3.265401  0
N  N83  1  0.35582981  0.62568069  0.80700807  1  0  -0.197862  -0.249817  0  3.265413  0
O  O84  1  0.56981101  0.91198530  0.20901082  1  0  -0.399993  -0.657709  0  2.337869  0
O  O85  1  0.93019155  0.79098655  0.08801521  1  0  -0.400035  -0.6578  0  2.337982  0
O  O86  1  0.43019671  0.08801437  0.79099157  1  0  -0.400014  -0.657812  0  2.338011  0
O  O87  1  0.06980172  0.20900332  0.91198767  1  0  -0.400013  -0.657806  0  2.338016  0
O  O88  1  0.36281523  0.96149446  0.12956890  1  0  -0.408514  -0.699482  0  2.358308  0
O  O89  1  0.13718791  0.87042680  0.03850380  1  0  -0.40846  -0.699467  0  2.358339  0
O  O90  1  0.63719473  0.03850518  0.87042831  1  0  -0.408526  -0.699494  0  2.358323  0
O  O91  1  0.86280242  0.12957076  0.96149580  1  0  -0.408554  -0.69952  0  2.358388  0
O  O92  1  0.19724420  0.96831919  0.77716600  1  0  -0.651736  -0.855592  0  2.143989  0
O  O93  1  0.30275600  0.22283258  0.03168030  1  0  -0.651746  -0.855644  0  2.144114  0
O  O94  1  0.80275482  0.03167940  0.22283224  1  0  -0.651698  -0.855589  0  2.144182  0
O  O95  1  0.69724492  0.77716701  0.96832016  1  0  -0.651711  -0.855608  0  2.144117  0
O  O96  1  0.46231903  0.82981749  0.85680211  1  0  -0.60406  -0.816717  0  2.256752  0
O  O97  1  0.03768404  0.14319490  0.17018192  1  0  -0.604052  -0.816609  0  2.256647  0
O  O98  1  0.53768415  0.17018209  0.14319594  1  0  -0.604038  -0.816598  0  2.25672  0
O  O99  1  0.96231575  0.85680467  0.82981791  1  0  -0.604047  -0.816591  0  2.256715  0
