# generated using pymatgen
data_CdH3C5N2ClO2
_symmetry_space_group_name_H-M   'P 1'
_cell_length_a   12.80876903
_cell_length_b   12.80879688
_cell_length_c   12.80878982
_cell_angle_alpha   63.26072719
_cell_angle_beta   84.25276015
_cell_angle_gamma   116.73918541
_symmetry_Int_Tables_number   1
_chemical_formula_structural   CdH3C5N2ClO2
_chemical_formula_sum   'Cd8 H24 C40 N16 Cl8 O16'
_cell_volume   1550.75713217
_cell_formula_units_Z   8
loop_
 _symmetry_equiv_pos_site_id
 _symmetry_equiv_pos_as_xyz
  1  'x, y, z'
loop_
 _atom_site_type_symbol
 _atom_site_label
 _atom_site_symmetry_multiplicity
 _atom_site_fract_x
 _atom_site_fract_y
 _atom_site_fract_z
 _atom_site_occupancy
 _atom_site_hle17_bader_spin_density
 _atom_site_hle17_ddec_charge
 _atom_site_hle17_ddec_spin_density
 _atom_site_hle17_ddec_sum_bond_order
 _atom_site_hle17_magmom
 _atom_site_hse06_10hf_bader_spin_density
 _atom_site_hse06_10hf_ddec_charge
 _atom_site_hse06_10hf_ddec_spin_density
 _atom_site_hse06_10hf_ddec_sum_bond_order
 _atom_site_hse06_10hf_magmom
 _atom_site_hse06_bader_spin_density
 _atom_site_hse06_ddec_charge
 _atom_site_hse06_ddec_spin_density
 _atom_site_hse06_ddec_sum_bond_order
 _atom_site_hse06_magmom
 _atom_site_pbe_bader_spin_density
 _atom_site_pbe_cm5_charge
 _atom_site_pbe_ddec_charge
 _atom_site_pbe_ddec_spin_density
 _atom_site_pbe_ddec_sum_bond_order
 _atom_site_pbe_magmom
Cd  Cd0  1  0.85961493  0.99999968  0.14038415  1  0  1.035673  0  1.875112  0  0  0.858063  0  2.33928  0  0  0.907857  0  2.294548  0  0  0.6938  0.822599  0  2.370079  0
Cd  Cd1  1  0.14038543  0.00000044  0.85961434  1  0  1.035689  0  1.87508  0  0  0.858066  0  2.339273  0  0  0.907863  0  2.294542  0  0  0.693815  0.822602  0  2.370068  0
Cd  Cd2  1  0.35961514  0.00000030  0.64038464  1  0  1.035695  0  1.875088  0  0  0.858077  0  2.339271  0  0  0.907872  0  2.29454  0  0  0.693817  0.822615  0  2.370067  0
Cd  Cd3  1  0.64038426  0.00000039  0.35961510  1  0  1.035671  0  1.875101  0  0  0.858052  0  2.339273  0  0  0.907846  0  2.294543  0  0  0.693807  0.822588  0  2.370071  0
Cd  Cd4  1  0.40606768  0.50000034  0.90606721  1  0  1.031353  0  1.894416  0  0  0.857358  0  2.358884  0  0  0.908216  0  2.31231  0  0  0.666774  0.821045  0  2.390723  0
Cd  Cd5  1  0.59393172  0.49999957  0.09393252  1  0  1.03138  0  1.894388  0  0  0.857385  0  2.358854  0  0  0.908243  0  2.312281  0  0  0.666786  0.821074  0  2.390693  0
Cd  Cd6  1  0.90606912  0.31213821  0.59393083  1  0  1.031389  0  1.894338  0  0  0.857405  0  2.358768  0  0  0.908268  0  2.312191  0  0  0.666764  0.821094  0  2.390606  0
Cd  Cd7  1  0.09393122  0.68786384  0.40606855  1  0  1.031384  0  1.894346  0  0  0.857388  0  2.358789  0  0  0.908248  0  2.312215  0  0  0.666747  0.821076  0  2.390628  0
H  H8  1  0.84887409  0.28129052  0.95643616  1  0  0.086498  0  0.92028  0  0  0.095965  0  0.980655  0  0  0.098575  0  0.977626  0  0  0.118472  0.093978  0  0.982923  0
H  H9  1  0.76227337  0.71870882  0.43241674  1  0  0.08647  0  0.920297  0  0  0.095937  0  0.980672  0  0  0.098551  0  0.977646  0  0  0.118453  0.093951  0  0.982941  0
H  H10  1  0.95643554  0.80530958  0.76227369  1  0  0.086496  0  0.920289  0  0  0.095963  0  0.980657  0  0  0.098579  0  0.977624  0  0  0.118468  0.093976  0  0.982925  0
H  H11  1  0.43241793  0.19469137  0.84887355  1  0  0.086477  0  0.920318  0  0  0.095954  0  0.980673  0  0  0.098562  0  0.977649  0  0  0.118469  0.093967  0  0.982942  0
H  H12  1  0.34887399  0.80530973  0.93241664  1  0  0.08648  0  0.920295  0  0  0.095945  0  0.98067  0  0  0.098555  0  0.977645  0  0  0.118467  0.093958  0  0.982938  0
H  H13  1  0.26227310  0.19468972  0.45643579  1  0  0.086491  0  0.92029  0  0  0.095948  0  0.980661  0  0  0.09856  0  0.977633  0  0  0.118462  0.093962  0  0.98293  0
H  H14  1  0.45643579  0.71870938  0.34887461  1  0  0.086495  0  0.920312  0  0  0.09596  0  0.980691  0  0  0.098571  0  0.977665  0  0  0.118462  0.093975  0  0.98296  0
H  H15  1  0.93241688  0.28129002  0.26227381  1  0  0.086463  0  0.920311  0  0  0.095929  0  0.980678  0  0  0.098544  0  0.977648  0  0  0.118448  0.093942  0  0.982947  0
H  H16  1  0.00532229  0.54779545  0.82233292  1  0  0.12803  0  0.929146  0  0  0.138063  0  0.983436  0  0  0.141651  0  0.982566  0  0  0.11632  0.13549  0  0.984285  0
H  H17  1  0.62987119  0.45220446  0.54247397  1  0  0.12803  0  0.929128  0  0  0.138055  0  0.983427  0  0  0.141643  0  0.982557  0  0  0.116322  0.135481  0  0.984277  0
H  H18  1  0.82233257  0.82765528  0.62987112  1  0  0.128023  0  0.92912  0  0  0.138055  0  0.983409  0  0  0.141641  0  0.982541  0  0  0.116325  0.135481  0  0.984259  0
H  H19  1  0.54247370  0.17234520  0.00532285  1  0  0.128041  0  0.929141  0  0  0.138077  0  0.983423  0  0  0.141664  0  0.982554  0  0  0.116332  0.135503  0  0.98427  0
H  H20  1  0.50532146  0.82765496  0.04247389  1  0  0.128028  0  0.929125  0  0  0.138061  0  0.983412  0  0  0.141648  0  0.982543  0  0  0.116336  0.135487  0  0.984262  0
H  H21  1  0.12987027  0.17234398  0.32233366  1  0  0.128042  0  0.929117  0  0  0.138069  0  0.983407  0  0  0.141655  0  0.982538  0  0  0.116332  0.135494  0  0.984258  0
H  H22  1  0.32233342  0.45220537  0.50532169  1  0  0.128009  0  0.929156  0  0  0.138039  0  0.983446  0  0  0.141628  0  0.982575  0  0  0.116316  0.135465  0  0.984297  0
H  H23  1  0.04247343  0.54779463  0.12987232  1  0  0.128019  0  0.929166  0  0  0.138045  0  0.983461  0  0  0.141635  0  0.982589  0  0  0.116311  0.135471  0  0.984312  0
H  H24  1  0.22968858  0.64026437  0.81061592  1  0  0.097206  0  0.950307  0  0  0.103086  0  1.015676  0  0  0.105916  0  1.01259  0  0  0.11826  0.100891  0  1.018058  0
H  H25  1  0.54911957  0.35973614  0.41057551  1  0  0.097245  0  0.950268  0  0  0.103086  0  1.015673  0  0  0.105917  0  1.012588  0  0  0.118254  0.100892  0  1.018057  0
H  H26  1  0.81061691  0.04030616  0.54911920  1  0  0.097218  0  0.950287  0  0  0.103062  0  1.015694  0  0  0.105893  0  1.01261  0  0  0.118254  0.100868  0  1.018077  0
H  H27  1  0.41057564  0.95969549  0.22968900  1  0  0.097226  0  0.950285  0  0  0.103072  0  1.015694  0  0  0.105902  0  1.01261  0  0  0.118251  0.100876  0  1.018078  0
H  H28  1  0.72968953  0.04030649  0.91057483  1  0  0.097239  0  0.950249  0  0  0.103117  0  1.015617  0  0  0.105946  0  1.012534  0  0  0.118271  0.100921  0  1.017999  0
H  H29  1  0.04911861  0.95969479  0.31061661  1  0  0.09722  0  0.95028  0  0  0.103064  0  1.015693  0  0  0.105894  0  1.012608  0  0  0.118255  0.100868  0  1.018077  0
H  H30  1  0.31061656  0.35973578  0.72968879  1  0  0.0972  0  0.950317  0  0  0.103043  0  1.015724  0  0  0.105874  0  1.012638  0  0  0.118243  0.100848  0  1.018106  0
H  H31  1  0.91057598  0.64026391  0.04912028  1  0  0.09722  0  0.950264  0  0  0.103062  0  1.015675  0  0  0.105893  0  1.012591  0  0  0.118246  0.100868  0  1.018058  0
C  C32  1  0.15215413  0.20239705  0.03706680  1  0  0.596198  0  3.917457  0  0  0.541669  0  4.220984  0  0  0.575823  0  4.21296  0  0  0.208583  0.518449  0  4.225699  0
C  C33  1  0.76053770  0.79760381  0.05024215  1  0  0.596116  0  3.917555  0  0  0.541603  0  4.221073  0  0  0.575758  0  4.213049  0  0  0.208554  0.518382  0  4.225789  0
C  C34  1  0.03706708  0.18921969  0.76053685  1  0  0.596198  0  3.917388  0  0  0.541654  0  4.220956  0  0  0.575808  0  4.212931  0  0  0.20859  0.518433  0  4.225673  0
C  C35  1  0.05024345  0.81077959  0.15215346  1  0  0.596144  0  3.917476  0  0  0.541609  0  4.221026  0  0  0.575763  0  4.213  0  0  0.208564  0.518388  0  4.22574  0
C  C36  1  0.65215281  0.18922119  0.55024237  1  0  0.59613  0  3.917532  0  0  0.541599  0  4.221081  0  0  0.575752  0  4.213059  0  0  0.208557  0.518379  0  4.225795  0
C  C37  1  0.26053603  0.81078003  0.53706770  1  0  0.596145  0  3.917521  0  0  0.541584  0  4.22111  0  0  0.575737  0  4.213087  0  0  0.208513  0.518363  0  4.225826  0
C  C38  1  0.53706651  0.79760372  0.65215347  1  0  0.596162  0  3.917491  0  0  0.541603  0  4.221074  0  0  0.575757  0  4.213048  0  0  0.208551  0.518382  0  4.225787  0
C  C39  1  0.55024250  0.20239623  0.26053716  1  0  0.59619  0  3.917439  0  0  0.541648  0  4.221001  0  0  0.575801  0  4.212978  0  0  0.208575  0.518427  0  4.225715  0
C  C40  1  0.10776995  0.30147574  0.98273828  1  0  0.274017  0  3.718069  0  0  0.255126  0  3.968178  0  0  0.265827  0  3.982262  0  0  0.248361  0.247825  0  3.958886  0
C  C41  1  0.71578571  0.69852489  0.19370677  1  0  0.27399  0  3.718101  0  0  0.25509  0  3.968218  0  0  0.265789  0  3.982302  0  0  0.248361  0.24779  0  3.958926  0
C  C42  1  0.98273820  0.09050734  0.71578482  1  0  0.274004  0  3.718074  0  0  0.255096  0  3.968228  0  0  0.265798  0  3.98231  0  0  0.248337  0.247797  0  3.958935  0
C  C43  1  0.19370685  0.90949225  0.10776887  1  0  0.273994  0  3.718097  0  0  0.255093  0  3.968221  0  0  0.265792  0  3.982305  0  0  0.248343  0.247792  0  3.958928  0
C  C44  1  0.60776853  0.09050811  0.69370661  1  0  0.274018  0  3.718064  0  0  0.255113  0  3.968195  0  0  0.265815  0  3.982277  0  0  0.248346  0.247813  0  3.958901  0
C  C45  1  0.21578523  0.90949212  0.48273916  1  0  0.274002  0  3.718061  0  0  0.255121  0  3.96818  0  0  0.265822  0  3.982265  0  0  0.248364  0.247821  0  3.958889  0
C  C46  1  0.48273914  0.69852405  0.60776925  1  0  0.273979  0  3.718103  0  0  0.255084  0  3.968229  0  0  0.265783  0  3.982315  0  0  0.248346  0.247784  0  3.958936  0
C  C47  1  0.69370685  0.30147574  0.21578496  1  0  0.274009  0  3.718066  0  0  0.255113  0  3.968192  0  0  0.265812  0  3.982277  0  0  0.248367  0.247813  0  3.958897  0
C  C48  1  0.94874433  0.33148382  0.94215829  1  0  0.205313  0  3.647916  0  0  0.165939  0  3.908157  0  0  0.177114  0  3.922918  0  0  0.078685  0.158666  0  3.898196  0
C  C49  1  0.72635768  0.66851640  0.38273914  1  0  0.205229  0  3.647964  0  0  0.165845  0  3.908218  0  0  0.177013  0  3.922985  0  0  0.078657  0.158573  0  3.898256  0
C  C50  1  0.94215863  0.89090313  0.72635733  1  0  0.205272  0  3.647912  0  0  0.1659  0  3.908139  0  0  0.17707  0  3.922904  0  0  0.07869  0.158628  0  3.898177  0
C  C51  1  0.38274031  0.10909773  0.94874362  1  0  0.205271  0  3.647909  0  0  0.165906  0  3.908124  0  0  0.17708  0  3.922881  0  0  0.078679  0.158633  0  3.898163  0
C  C52  1  0.44874426  0.89090307  0.88273966  1  0  0.205325  0  3.647875  0  0  0.165961  0  3.908097  0  0  0.177133  0  3.922859  0  0  0.078708  0.158689  0  3.898135  0
C  C53  1  0.22635547  0.10909605  0.44215976  1  0  0.205251  0  3.647921  0  0  0.165917  0  3.908105  0  0  0.177089  0  3.922866  0  0  0.078675  0.158644  0  3.898144  0
C  C54  1  0.44215872  0.66851584  0.44874414  1  0  0.205209  0  3.647927  0  0  0.165826  0  3.908182  0  0  0.176997  0  3.922944  0  0  0.078667  0.158553  0  3.898223  0
C  C55  1  0.88273942  0.33148310  0.22635712  1  0  0.205242  0  3.64804  0  0  0.165878  0  3.908251  0  0  0.177047  0  3.923017  0  0  0.078682  0.158606  0  3.898287  0
C  C56  1  0.03401029  0.47675624  0.87020115  1  0  -0.138639  0  3.655746  0  0  -0.152912  0  3.910809  0  0  -0.163029  0  3.930197  0  0  -0.067199  -0.146665  0  3.898189  0
C  C57  1  0.65304311  0.52324465  0.44274564  1  0  -0.138583  0  3.655712  0  0  -0.152847  0  3.910766  0  0  -0.162963  0  3.930154  0  0  -0.067178  -0.146599  0  3.898145  0
C  C58  1  0.87020070  0.90421107  0.65304251  1  0  -0.138628  0  3.655689  0  0  -0.152888  0  3.910744  0  0  -0.163004  0  3.930133  0  0  -0.067171  -0.146639  0  3.898123  0
C  C59  1  0.44274659  0.09578942  0.03401032  1  0  -0.138622  0  3.655705  0  0  -0.152891  0  3.910756  0  0  -0.163009  0  3.930143  0  0  -0.067158  -0.146642  0  3.898133  0
C  C60  1  0.53401045  0.90421085  0.94274633  1  0  -0.138612  0  3.655682  0  0  -0.152878  0  3.910744  0  0  -0.162994  0  3.930131  0  0  -0.067164  -0.14663  0  3.898124  0
C  C61  1  0.15304201  0.09578867  0.37020081  1  0  -0.138618  0  3.655694  0  0  -0.152878  0  3.910722  0  0  -0.162995  0  3.930109  0  0  -0.067139  -0.146629  0  3.898101  0
C  C62  1  0.37020155  0.52324363  0.53400969  1  0  -0.138554  0  3.655745  0  0  -0.152818  0  3.910785  0  0  -0.162935  0  3.930172  0  0  -0.06718  -0.146571  0  3.898166  0
C  C63  1  0.94274670  0.47675591  0.15304278  1  0  -0.138566  0  3.65576  0  0  -0.152835  0  3.910797  0  0  -0.162952  0  3.930187  0  0  -0.067166  -0.146587  0  3.898176  0
C  C64  1  0.15780776  0.52768792  0.86338973  1  0  0.208638  0  3.612596  0  0  0.171931  0  3.868077  0  0  0.183422  0  3.881575  0  0  0.077538  0.164425  0  3.859075  0
C  C65  1  0.60892195  0.47231195  0.36988042  1  0  0.20856  0  3.612551  0  0  0.171895  0  3.868005  0  0  0.183388  0  3.8815  0  0  0.077525  0.164389  0  3.859004  0
C  C66  1  0.86339004  0.02119764  0.60892193  1  0  0.20865  0  3.612533  0  0  0.171968  0  3.868017  0  0  0.18346  0  3.881513  0  0  0.077579  0.164462  0  3.859016  0
C  C67  1  0.36987999  0.97880250  0.15780789  1  0  0.208617  0  3.612523  0  0  0.171923  0  3.868013  0  0  0.183415  0  3.881511  0  0  0.077566  0.164418  0  3.85901  0
C  C68  1  0.65780788  0.02119838  0.86987980  1  0  0.208594  0  3.612499  0  0  0.171888  0  3.867985  0  0  0.18338  0  3.881484  0  0  0.077556  0.164383  0  3.858982  0
C  C69  1  0.10892183  0.97880227  0.36339036  1  0  0.208641  0  3.612536  0  0  0.171949  0  3.868023  0  0  0.183441  0  3.88152  0  0  0.077568  0.164443  0  3.859021  0
C  C70  1  0.36339080  0.47231213  0.65780697  1  0  0.208627  0  3.612572  0  0  0.171952  0  3.86804  0  0  0.183444  0  3.881536  0  0  0.077539  0.164447  0  3.859037  0
C  C71  1  0.86988019  0.52768705  0.10892249  1  0  0.208593  0  3.612572  0  0  0.171914  0  3.868047  0  0  0.183405  0  3.881545  0  0  0.07753  0.164408  0  3.859045  0
N  N72  1  0.98573931  0.24495646  0.99939514  1  0  -0.36171  0  3.240307  0  0  -0.290216  0  3.502313  0  0  -0.311309  0  3.519111  0  0  -0.31629  -0.276062  0  3.491039  0
N  N73  1  0.75564741  0.75504303  0.25921723  1  0  -0.361578  0  3.240287  0  0  -0.290081  0  3.502286  0  0  -0.311174  0  3.519089  0  0  -0.31625  -0.275927  0  3.491013  0
N  N74  1  0.99939512  0.98513463  0.75564687  1  0  -0.361643  0  3.240282  0  0  -0.290133  0  3.50227  0  0  -0.311227  0  3.519072  0  0  -0.316279  -0.275981  0  3.490995  0
N  N75  1  0.25921815  0.01486482  0.98573949  1  0  -0.361632  0  3.240283  0  0  -0.290145  0  3.502287  0  0  -0.311237  0  3.519085  0  0  -0.316282  -0.275992  0  3.491014  0
N  N76  1  0.48573946  0.98513497  0.75921769  1  0  -0.36168  0  3.240294  0  0  -0.290182  0  3.502292  0  0  -0.311275  0  3.519091  0  0  -0.316295  -0.276028  0  3.491016  0
N  N77  1  0.25564688  0.01486538  0.49939597  1  0  -0.361633  0  3.240249  0  0  -0.290156  0  3.502234  0  0  -0.31125  0  3.519033  0  0  -0.316284  -0.276002  0  3.49096  0
N  N78  1  0.49939520  0.75504254  0.48573984  1  0  -0.361564  0  3.240246  0  0  -0.290056  0  3.502229  0  0  -0.311147  0  3.519031  0  0  -0.316235  -0.275902  0  3.490954  0
N  N79  1  0.75921822  0.24495712  0.25564648  1  0  -0.361603  0  3.240356  0  0  -0.290109  0  3.502345  0  0  -0.311202  0  3.519147  0  0  -0.316258  -0.275955  0  3.491068  0
N  N80  1  0.19411990  0.43993586  0.91922970  1  0  -0.364338  0  3.19538  0  0  -0.297913  0  3.453242  0  0  -0.318338  0  3.469467  0  0  -0.311928  -0.284151  0  3.442102  0
N  N81  1  0.64083333  0.56006448  0.24581581  1  0  -0.364317  0  3.195338  0  0  -0.297889  0  3.45318  0  0  -0.318314  0  3.469405  0  0  -0.31192  -0.284126  0  3.442041  0
N  N82  1  0.91923020  0.11334995  0.64083415  1  0  -0.364352  0  3.195386  0  0  -0.297923  0  3.453252  0  0  -0.318347  0  3.469474  0  0  -0.311913  -0.284162  0  3.442113  0
N  N83  1  0.24581538  0.88664914  0.19412067  1  0  -0.364338  0  3.1953  0  0  -0.297887  0  3.453141  0  0  -0.318311  0  3.469364  0  0  -0.311903  -0.284126  0  3.442002  0
N  N84  1  0.69412024  0.11335062  0.74581583  1  0  -0.364331  0  3.195311  0  0  -0.297898  0  3.453177  0  0  -0.318323  0  3.469402  0  0  -0.311914  -0.284136  0  3.442037  0
N  N85  1  0.14083394  0.88664991  0.41923020  1  0  -0.364331  0  3.195342  0  0  -0.297899  0  3.453192  0  0  -0.318324  0  3.469417  0  0  -0.311913  -0.284136  0  3.442052  0
N  N86  1  0.41923095  0.56006444  0.69412009  1  0  -0.364367  0  3.195327  0  0  -0.297932  0  3.453172  0  0  -0.318357  0  3.469397  0  0  -0.311936  -0.28417  0  3.442031  0
N  N87  1  0.74581557  0.43993563  0.14083349  1  0  -0.364339  0  3.195335  0  0  -0.297905  0  3.453181  0  0  -0.318327  0  3.469404  0  0  -0.311925  -0.284143  0  3.442041  0
Cl  Cl88  1  0.65193322  0.99999972  0.15193233  1  0  -0.608628  0  0.945149  0  0  -0.554563  0  1.227879  0  0  -0.573414  0  1.206122  0  0  -0.306501  -0.540226  0  1.242708  0
Cl  Cl89  1  0.84806680  0.00000013  0.34806769  1  0  -0.608627  0  0.945146  0  0  -0.554559  0  1.227882  0  0  -0.573407  0  1.206118  0  0  -0.306493  -0.540222  0  1.24271  0
Cl  Cl90  1  0.15193237  0.80386511  0.84806740  1  0  -0.608636  0  0.945138  0  0  -0.554563  0  1.227862  0  0  -0.573417  0  1.206107  0  0  -0.3065  -0.540227  0  1.242688  0
Cl  Cl91  1  0.34806820  0.19613523  0.65193245  1  0  -0.608651  0  0.945152  0  0  -0.554581  0  1.227879  0  0  -0.573433  0  1.206123  0  0  -0.306508  -0.540244  0  1.242707  0
Cl  Cl92  1  0.60990772  0.50000082  0.89009321  1  0  -0.57932  0  0.87026  0  0  -0.513886  0  1.110232  0  0  -0.533658  0  1.087948  0  0  -0.335585  -0.499626  0  1.125246  0
Cl  Cl93  1  0.89008942  0.49999938  0.60991031  1  0  -0.579339  0  0.870232  0  0  -0.513904  0  1.110181  0  0  -0.533665  0  1.087881  0  0  -0.335582  -0.499644  0  1.125198  0
Cl  Cl94  1  0.10990998  0.50000091  0.39009030  1  0  -0.579338  0  0.870241  0  0  -0.513905  0  1.110195  0  0  -0.533673  0  1.087908  0  0  -0.335579  -0.499644  0  1.125208  0
Cl  Cl95  1  0.39009358  0.50000027  0.10990580  1  0  -0.57933  0  0.870241  0  0  -0.513896  0  1.110211  0  0  -0.533666  0  1.087926  0  0  -0.335608  -0.499636  0  1.125225  0
O  O96  1  0.06810519  0.07143932  0.10744924  1  0  -0.590117  0  2.047769  0  0  -0.529638  0  2.301808  0  0  -0.557775  0  2.292522  0  0  -0.312923  -0.50978  0  2.307597  0
O  O97  1  0.82111066  0.92855968  0.00333445  1  0  -0.590062  0  2.047843  0  0  -0.529597  0  2.301864  0  0  -0.557729  0  2.292575  0  0  -0.312912  -0.509744  0  2.307669  0
O  O98  1  0.10744839  0.17555289  0.82111255  1  0  -0.59011  0  2.047779  0  0  -0.529634  0  2.301838  0  0  -0.557771  0  2.292553  0  0  -0.312909  -0.509771  0  2.307616  0
O  O99  1  0.00333433  0.82444549  0.06810532  1  0  -0.590071  0  2.047779  0  0  -0.529594  0  2.301816  0  0  -0.557728  0  2.292529  0  0  -0.3129  -0.509741  0  2.30762  0
O  O100  1  0.56810497  0.17555389  0.50333370  1  0  -0.590086  0  2.047849  0  0  -0.529607  0  2.30188  0  0  -0.55774  0  2.292598  0  0  -0.312902  -0.509755  0  2.307685  0
O  O101  1  0.32111169  0.82444667  0.60744882  1  0  -0.590055  0  2.047798  0  0  -0.52958  0  2.301851  0  0  -0.557713  0  2.292568  0  0  -0.312875  -0.509726  0  2.307653  0
O  O102  1  0.60744894  0.92855953  0.56810534  1  0  -0.590086  0  2.047809  0  0  -0.529599  0  2.301859  0  0  -0.557733  0  2.292572  0  0  -0.312912  -0.509746  0  2.307661  0
O  O103  1  0.50333322  0.07143935  0.32111072  1  0  -0.590086  0  2.047786  0  0  -0.529606  0  2.301823  0  0  -0.557737  0  2.292535  0  0  -0.312921  -0.509752  0  2.307627  0
O  O104  1  0.26965306  0.25759845  0.00730812  1  0  -0.580657  0  2.011605  0  0  -0.524615  0  2.259073  0  0  -0.552404  0  2.250842  0  0  -0.317176  -0.504992  0  2.264053  0
O  O105  1  0.73509428  0.74240027  0.98794672  1  0  -0.58064  0  2.011634  0  0  -0.524596  0  2.259083  0  0  -0.552391  0  2.250868  0  0  -0.317157  -0.504971  0  2.264064  0
O  O106  1  0.00730647  0.27695812  0.73509469  1  0  -0.580664  0  2.01156  0  0  -0.524603  0  2.25902  0  0  -0.552401  0  2.250809  0  0  -0.31716  -0.504979  0  2.263999  0
O  O107  1  0.98794594  0.72304084  0.26965219  1  0  -0.580658  0  2.011608  0  0  -0.5246  0  2.259053  0  0  -0.5524  0  2.250847  0  0  -0.317163  -0.504976  0  2.264033  0
O  O108  1  0.76965274  0.27695888  0.48794632  1  0  -0.580651  0  2.011608  0  0  -0.524593  0  2.259047  0  0  -0.552397  0  2.250853  0  0  -0.317152  -0.504968  0  2.264026  0
O  O109  1  0.23509555  0.72304199  0.50730641  1  0  -0.580674  0  2.011598  0  0  -0.524601  0  2.259045  0  0  -0.552406  0  2.250847  0  0  -0.317139  -0.504977  0  2.264025  0
O  O110  1  0.50730667  0.74240080  0.76965255  1  0  -0.580664  0  2.011612  0  0  -0.524609  0  2.259091  0  0  -0.552402  0  2.250871  0  0  -0.31717  -0.504983  0  2.264071  0
O  O111  1  0.48794573  0.25759893  0.23509433  1  0  -0.580698  0  2.011599  0  0  -0.524647  0  2.259063  0  0  -0.552444  0  2.250851  0  0  -0.317189  -0.505024  0  2.264045  0
