# generated using pymatgen
data_CuH9C9BrN3O
_symmetry_space_group_name_H-M   'P 1'
_cell_length_a   7.61367858
_cell_length_b   9.84411277
_cell_length_c   14.78100823
_cell_angle_alpha   105.29040644
_cell_angle_beta   94.95522357
_cell_angle_gamma   108.56928416
_symmetry_Int_Tables_number   1
_chemical_formula_structural   CuH9C9BrN3O
_chemical_formula_sum   'Cu4 H36 C36 Br4 N12 O4'
_cell_volume   995.25064281
_cell_formula_units_Z   4
loop_
 _symmetry_equiv_pos_site_id
 _symmetry_equiv_pos_as_xyz
  1  'x, y, z'
loop_
 _atom_site_type_symbol
 _atom_site_label
 _atom_site_symmetry_multiplicity
 _atom_site_fract_x
 _atom_site_fract_y
 _atom_site_fract_z
 _atom_site_occupancy
 _atom_site_hle17_bader_spin_density
 _atom_site_hle17_ddec_charge
 _atom_site_hle17_ddec_spin_density
 _atom_site_hle17_ddec_sum_bond_order
 _atom_site_hle17_magmom
 _atom_site_hse06_10hf_bader_spin_density
 _atom_site_hse06_10hf_ddec_charge
 _atom_site_hse06_10hf_ddec_spin_density
 _atom_site_hse06_10hf_ddec_sum_bond_order
 _atom_site_hse06_10hf_magmom
 _atom_site_hse06_bader_spin_density
 _atom_site_hse06_ddec_charge
 _atom_site_hse06_ddec_spin_density
 _atom_site_hse06_ddec_sum_bond_order
 _atom_site_hse06_magmom
 _atom_site_pbe_bader_spin_density
 _atom_site_pbe_cm5_charge
 _atom_site_pbe_ddec_charge
 _atom_site_pbe_ddec_spin_density
 _atom_site_pbe_ddec_sum_bond_order
 _atom_site_pbe_magmom
Cu  Cu0  1  0.22452128  0.06841983  0.45854752  1  0  0.473958  0  2.030785  0  0  0.422282  0  2.47882  0  0  0.425216  0  2.440335  0  0  0.459778  0.42064  0  2.505046  0
Cu  Cu1  1  0.77547045  0.93158108  0.54145425  1  0  0.473986  0  2.030757  0  0  0.422303  0  2.478791  0  0  0.42525  0  2.440307  0  0  0.459807  0.420684  0  2.504982  0
Cu  Cu2  1  0.40096045  0.45553686  0.08455343  1  0  0.43871  0  2.060956  0  0  0.386468  0  2.511996  0  0  0.387209  0  2.474056  0  0  0.436703  0.386513  0  2.537657  0
Cu  Cu3  1  0.59905078  0.54446651  0.91544691  1  0  0.438711  0  2.061044  0  0  0.386461  0  2.512117  0  0  0.38721  0  2.474172  0  0  0.436738  0.386511  0  2.537794  0
H  H4  1  0.16893632  0.29445191  0.66284031  1  0  0.111054  0  0.98799  0  0  0.119136  0  1.052176  0  0  0.122358  0  1.050489  0  0  0.095779  0.116996  0  1.053558  0
H  H5  1  0.83104864  0.70554553  0.33715651  1  0  0.111036  0  0.987973  0  0  0.119092  0  1.052173  0  0  0.122313  0  1.05049  0  0  0.095766  0.116954  0  1.053557  0
H  H6  1  0.12855750  0.52544084  0.76429785  1  0  0.087438  0  0.977316  0  0  0.098504  0  1.040261  0  0  0.10041  0  1.040969  0  0  0.094826  0.097051  0  1.039726  0
H  H7  1  0.87143688  0.47456009  0.23570336  1  0  0.087411  0  0.977413  0  0  0.098464  0  1.040364  0  0  0.100368  0  1.041074  0  0  0.094817  0.09701  0  1.039827  0
H  H8  1  0.15968481  0.74585296  0.70647952  1  0  0.093015  0  0.961286  0  0  0.103546  0  1.024597  0  0  0.105434  0  1.0255  0  0  0.096339  0.100857  0  1.026353  0
H  H9  1  0.84032211  0.25415262  0.29352440  1  0  0.093062  0  0.96126  0  0  0.103581  0  1.024593  0  0  0.105472  0  1.025493  0  0  0.096386  0.100898  0  1.02635  0
H  H10  1  0.23396167  0.74559417  0.54657926  1  0  0.118683  0  0.967116  0  0  0.127515  0  1.030102  0  0  0.130767  0  1.028617  0  0  0.100365  0.125937  0  1.030241  0
H  H11  1  0.76602706  0.25440894  0.45342276  1  0  0.118662  0  0.967237  0  0  0.127484  0  1.030225  0  0  0.130736  0  1.028739  0  0  0.100324  0.125908  0  1.03036  0
H  H12  1  0.20036521  0.38319357  0.23862553  1  0  0.07258  0  0.93684  0  0  0.08075  0  1.00922  0  0  0.081279  0  1.008064  0  0  0.106117  0.080525  0  1.010055  0
H  H13  1  0.79963084  0.61680512  0.76137198  1  0  0.072577  0  0.936882  0  0  0.080729  0  1.009273  0  0  0.081281  0  1.008086  0  0  0.106122  0.080511  0  1.010107  0
H  H14  1  0.44377663  0.42986176  0.28600034  1  0  0.068722  0  0.964606  0  0  0.071216  0  1.042682  0  0  0.071349  0  1.043236  0  0  0.103252  0.07119  0  1.042483  0
H  H15  1  0.55621150  0.57013686  0.71400087  1  0  0.068717  0  0.964647  0  0  0.071225  0  1.042658  0  0  0.071359  0  1.04321  0  0  0.103221  0.071193  0  1.042456  0
H  H16  1  0.52982745  0.67398635  0.24588762  1  0  0.102863  0  0.956595  0  0  0.109951  0  1.022117  0  0  0.11217  0  1.021661  0  0  0.092463  0.108472  0  1.022179  0
H  H17  1  0.47016596  0.32601232  0.75411180  1  0  0.102802  0  0.956603  0  0  0.109919  0  1.022114  0  0  0.11215  0  1.021632  0  0  0.092427  0.108442  0  1.022175  0
H  H18  1  0.11732295  0.52592091  0.13239267  1  0  0.131084  0  0.967281  0  0  0.143035  0  1.031015  0  0  0.145265  0  1.030127  0  0  0.091811  0.141685  0  1.031289  0
H  H19  1  0.88267704  0.47407779  0.86760096  1  0  0.131087  0  0.967253  0  0  0.143055  0  1.030978  0  0  0.145276  0  1.030101  0  0  0.091797  0.14171  0  1.031252  0
H  H20  1  0.30321148  0.69367303  0.12312709  1  0  0.139239  0  0.963743  0  0  0.145779  0  1.033904  0  0  0.149046  0  1.031214  0  0  0.09467  0.144176  0  1.034461  0
H  H21  1  0.69679516  0.30632577  0.87686954  1  0  0.13921  0  0.963772  0  0  0.145764  0  1.033904  0  0  0.149036  0  1.03121  0  0  0.094656  0.144161  0  1.034463  0
H  H22  1  0.60004541  0.89052839  0.14563653  1  0  0.119792  0  0.95224  0  0  0.128221  0  1.015792  0  0  0.131345  0  1.014381  0  0  0.105248  0.126411  0  1.016109  0
H  H23  1  0.39995065  0.10947031  0.85436301  1  0  0.119787  0  0.95221  0  0  0.128221  0  1.015758  0  0  0.13134  0  1.014358  0  0  0.105231  0.12641  0  1.016069  0
H  H24  1  0.90977463  0.98201292  0.09757539  1  0  0.10037  0  0.96129  0  0  0.106893  0  1.029394  0  0  0.109789  0  1.028136  0  0  0.10043  0.103577  0  1.03271  0
H  H25  1  0.09022011  0.01797345  0.90242332  1  0  0.100312  0  0.961285  0  0  0.106861  0  1.029372  0  0  0.109773  0  1.028074  0  0  0.1004  0.103544  0  1.032695  0
H  H26  1  0.00956418  0.21306042  0.04907351  1  0  0.089851  0  0.985666  0  0  0.091031  0  1.066782  0  0  0.095212  0  1.062978  0  0  0.092914  0.087771  0  1.069874  0
H  H27  1  0.99044443  0.78693061  0.95092796  1  0  0.089909  0  0.985651  0  0  0.091094  0  1.066773  0  0  0.095248  0  1.062993  0  0  0.09295  0.087832  0  1.06986  0
H  H28  1  0.80210160  0.36574598  0.04817045  1  0  0.109997  0  0.985898  0  0  0.11994  0  1.04815  0  0  0.122758  0  1.046781  0  0  0.096192  0.117556  0  1.049945  0
H  H29  1  0.19791685  0.63424961  0.95182682  1  0  0.10996  0  0.985938  0  0  0.119943  0  1.048162  0  0  0.12276  0  1.046794  0  0  0.096142  0.117554  0  1.04996  0
H  H30  1  0.03123233  0.89748930  0.24190978  1  0  0.09234  0  0.931179  0  0  0.105851  0  0.990788  0  0  0.106512  0  0.990846  0  0  0.102345  0.105181  0  0.991234  0
H  H31  1  0.96877164  0.10250945  0.75808470  1  0  0.092348  0  0.931122  0  0  0.105835  0  0.990764  0  0  0.106533  0  0.990784  0  0  0.102336  0.105165  0  0.991208  0
H  H32  1  0.14072300  0.09460446  0.25818866  1  0  0.071711  0  0.960634  0  0  0.072137  0  1.044692  0  0  0.073571  0  1.042337  0  0  0.103441  0.071205  0  1.04637  0
H  H33  1  0.85928015  0.90539543  0.74180869  1  0  0.071711  0  0.960633  0  0  0.07213  0  1.044719  0  0  0.073569  0  1.042369  0  0  0.10346  0.071199  0  1.046395  0
H  H34  1  0.45028055  0.08257080  0.34064016  1  0  0.09711  0  0.951525  0  0  0.104423  0  1.020074  0  0  0.106139  0  1.020284  0  0  0.093894  0.10334  0  1.019725  0
H  H35  1  0.54971614  0.91743243  0.65936493  1  0  0.097098  0  0.951555  0  0  0.104409  0  1.020094  0  0  0.106132  0  1.020293  0  0  0.093896  0.103324  0  1.019749  0
H  H36  1  0.15516129  0.79222167  0.35766686  1  0  0.131573  0  0.973065  0  0  0.142494  0  1.037077  0  0  0.14471  0  1.036748  0  0  0.091062  0.141118  0  1.036914  0
H  H37  1  0.84482912  0.20777922  0.64233484  1  0  0.131583  0  0.973132  0  0  0.142491  0  1.037158  0  0  0.144701  0  1.03685  0  0  0.09105  0.141118  0  1.036984  0
H  H38  1  0.40495384  0.88510414  0.41946362  1  0  0.131443  0  0.976099  0  0  0.136097  0  1.051736  0  0  0.140539  0  1.046801  0  0  0.085084  0.132852  0  1.055296  0
H  H39  1  0.59503598  0.11489227  0.58053931  1  0  0.131478  0  0.976058  0  0  0.136124  0  1.051696  0  0  0.140565  0  1.046764  0  0  0.085092  0.132876  0  1.055261  0
C  C40  1  0.22243680  0.38980955  0.54713271  1  0  0.125683  0  3.809734  0  0  0.122275  0  4.062615  0  0  0.123294  0  4.084305  0  0  0.095244  0.121299  0  4.048749  0
C  C41  1  0.77754696  0.61019122  0.45286463  1  0  0.125714  0  3.809688  0  0  0.122317  0  4.062572  0  0  0.123343  0  4.084269  0  0  0.095209  0.121342  0  4.04872  0
C  C42  1  0.18128128  0.39141017  0.63815703  1  0  -0.121776  0  3.710619  0  0  -0.135017  0  3.951144  0  0  -0.13702  0  3.969927  0  0  -0.086778  -0.133871  0  3.939085  0
C  C43  1  0.81870103  0.60858723  0.36183966  1  0  -0.121804  0  3.710604  0  0  -0.13503  0  3.951145  0  0  -0.137018  0  3.969891  0  0  -0.086795  -0.133892  0  3.939104  0
C  C44  1  0.15991602  0.52064545  0.69330889  1  0  -0.061139  0  3.743689  0  0  -0.078027  0  3.997344  0  0  -0.079855  0  4.018143  0  0  -0.09176  -0.076857  0  3.983655  0
C  C45  1  0.84007257  0.47935428  0.30669050  1  0  -0.061178  0  3.743744  0  0  -0.078053  0  3.997378  0  0  -0.079879  0  4.018181  0  0  -0.091777  -0.076881  0  3.983697  0
C  C46  1  0.17927754  0.64699146  0.66066603  1  0  -0.059698  0  3.73308  0  0  -0.083086  0  3.995308  0  0  -0.083621  0  4.016083  0  0  -0.094484  -0.082735  0  3.983167  0
C  C47  1  0.82071286  0.35300941  0.33933365  1  0  -0.059701  0  3.733132  0  0  -0.083081  0  3.995339  0  0  -0.083618  0  4.016113  0  0  -0.094516  -0.082735  0  3.983206  0
C  C48  1  0.22177623  0.64868974  0.57146282  1  0  -0.119958  0  3.728026  0  0  -0.138623  0  3.984342  0  0  -0.141397  0  4.002861  0  0  -0.089228  -0.137169  0  3.971584  0
C  C49  1  0.77820838  0.35130994  0.42853572  1  0  -0.120028  0  3.728052  0  0  -0.138658  0  3.98438  0  0  -0.141429  0  4.002895  0  0  -0.089184  -0.137204  0  3.971625  0
C  C50  1  0.24316322  0.51757129  0.51615225  1  0  0.052002  0  3.795663  0  0  0.038938  0  4.049936  0  0  0.041202  0  4.071799  0  0  0.099264  0.037488  0  4.035546  0
C  C51  1  0.75681692  0.48242721  0.48384454  1  0  0.052094  0  3.795303  0  0  0.038956  0  4.049663  0  0  0.041219  0  4.071523  0  0  0.099243  0.037505  0  4.035271  0
C  C52  1  0.33420392  0.47631260  0.27319574  1  0  0.048586  0  3.646873  0  0  -0.018369  0  3.927543  0  0  -0.008596  0  3.928993  0  0  -0.075468  -0.025453  0  3.926357  0
C  C53  1  0.66578719  0.52368379  0.72680183  1  0  0.04853  0  3.646883  0  0  -0.018347  0  3.92756  0  0  -0.008576  0  3.928978  0  0  -0.075479  -0.02544  0  3.926381  0
C  C54  1  0.39088966  0.58551731  0.21852811  1  0  -0.083375  0  3.746629  0  0  -0.09667  0  4.031971  0  0  -0.094649  0  4.041282  0  0  -0.158087  -0.097129  0  4.024623  0
C  C55  1  0.60910725  0.41448028  0.78147195  1  0  -0.083283  0  3.746531  0  0  -0.09665  0  4.031919  0  0  -0.094628  0  4.041227  0  0  -0.158091  -0.097111  0  4.024587  0
C  C56  1  0.26659149  0.59633182  0.14912011  1  0  -0.272994  0  3.637781  0  0  -0.326282  0  3.917703  0  0  -0.322781  0  3.920501  0  0  -0.229215  -0.328291  0  3.914137  0
C  C57  1  0.73340755  0.40366465  0.85087512  1  0  -0.272931  0  3.637811  0  0  -0.326238  0  3.917716  0  0  -0.322734  0  3.920528  0  0  -0.229134  -0.328252  0  3.914168  0
C  C58  1  0.52893968  0.07943991  0.12324231  1  0  0.056803  0  3.802283  0  0  0.046168  0  4.050614  0  0  0.04874  0  4.072892  0  0  0.105706  0.044412  0  4.036051  0
C  C59  1  0.47107204  0.92056459  0.87675892  1  0  0.056868  0  3.802112  0  0  0.046176  0  4.050566  0  0  0.048743  0  4.072846  0  0  0.105714  0.044416  0  4.03601  0
C  C60  1  0.64332247  0.99313156  0.12532260  1  0  -0.123993  0  3.73439  0  0  -0.143857  0  3.992017  0  0  -0.146405  0  4.010965  0  0  -0.089008  -0.142543  0  3.979268  0
C  C61  1  0.35667891  0.00686723  0.87467922  1  0  -0.124  0  3.734214  0  0  -0.14385  0  3.991878  0  0  -0.146396  0  4.010842  0  0  -0.088965  -0.142528  0  3.979126  0
C  C62  1  0.81633800  0.04602511  0.09867243  1  0  -0.047633  0  3.722081  0  0  -0.069891  0  3.985372  0  0  -0.07104  0  4.006936  0  0  -0.088173  -0.06885  0  3.971917  0
C  C63  1  0.18366313  0.95396695  0.90132822  1  0  -0.047507  0  3.722092  0  0  -0.069811  0  3.985439  0  0  -0.07093  0  4.006929  0  0  -0.08812  -0.068763  0  3.971952  0
C  C64  1  0.87341995  0.17857457  0.07092038  1  0  -0.069489  0  3.754948  0  0  -0.090788  0  4.02145  0  0  -0.093468  0  4.042225  0  0  -0.095965  -0.088701  0  4.007063  0
C  C65  1  0.12658745  0.82141980  0.92908026  1  0  -0.069489  0  3.755119  0  0  -0.090812  0  4.02162  0  0  -0.093463  0  4.042421  0  0  -0.095945  -0.088724  0  4.007235  0
C  C66  1  0.75993594  0.26374676  0.06933217  1  0  -0.127524  0  3.724668  0  0  -0.144335  0  3.968529  0  0  -0.145741  0  3.987893  0  0  -0.088479  -0.143156  0  3.95591  0
C  C67  1  0.24007325  0.73624874  0.93066739  1  0  -0.127654  0  3.72493  0  0  -0.144482  0  3.96875  0  0  -0.14589  0  3.988111  0  0  -0.08854  -0.143298  0  3.956124  0
C  C68  1  0.58461178  0.21299165  0.09683376  1  0  0.115284  0  3.828262  0  0  0.116306  0  4.074913  0  0  0.115898  0  4.098313  0  0  0.094716  0.11624  0  4.059718  0
C  C69  1  0.41539849  0.78700945  0.90316547  1  0  0.115331  0  3.828171  0  0  0.116327  0  4.074898  0  0  0.115921  0  4.098303  0  0  0.09465  0.11626  0  4.059702  0
C  C70  1  0.16580178  0.98921725  0.25197050  1  0  0.050114  0  3.60338  0  0  -0.01415  0  3.877796  0  0  -0.005048  0  3.878823  0  0  -0.078449  -0.020641  0  3.87704  0
C  C71  1  0.83419873  0.01078262  0.74802876  1  0  0.050089  0  3.603396  0  0  -0.014227  0  3.877837  0  0  -0.005135  0  3.878897  0  0  -0.07848  -0.020716  0  3.87708  0
C  C72  1  0.30852616  0.00069974  0.33216490  1  0  -0.105459  0  3.765796  0  0  -0.123651  0  4.063884  0  0  -0.121663  0  4.072978  0  0  -0.172333  -0.12394  0  4.056608  0
C  C73  1  0.69146992  0.99929898  0.66783668  1  0  -0.105474  0  3.765792  0  0  -0.12366  0  4.063896  0  0  -0.121669  0  4.072999  0  0  -0.17235  -0.123949  0  4.056625  0
C  C74  1  0.28362644  0.89172951  0.37826922  1  0  -0.286886  0  3.666081  0  0  -0.338906  0  3.949991  0  0  -0.33634  0  3.953631  0  0  -0.240912  -0.340572  0  3.947067  0
C  C75  1  0.71636566  0.10826916  0.62173218  1  0  -0.286913  0  3.66607  0  0  -0.338907  0  3.949973  0  0  -0.336344  0  3.953612  0  0  -0.240912  -0.340573  0  3.947058  0
Br  Br76  1  0.19110840  0.02156029  0.60808909  1  0  -0.548314  0  1.087356  0  0  -0.486044  0  1.410186  0  0  -0.502843  0  1.384406  0  0  -0.271971  -0.474035  0  1.428532  0
Br  Br77  1  0.80895627  0.97846620  0.39192638  1  0  -0.548254  0  1.087492  0  0  -0.486008  0  1.41039  0  0  -0.502806  0  1.384607  0  0  -0.271919  -0.473999  0  1.428738  0
Br  Br78  1  0.24649467  0.36788608  0.91905546  1  0  -0.52133  0  1.1278  0  0  -0.459647  0  1.455586  0  0  -0.475759  0  1.428574  0  0  -0.261218  -0.447848  0  1.475155  0
Br  Br79  1  0.75353897  0.63211418  0.08094328  1  0  -0.521365  0  1.127774  0  0  -0.459658  0  1.455496  0  0  -0.475763  0  1.42848  0  0  -0.261249  -0.447863  0  1.475077  0
N  N80  1  0.28070546  0.47302215  0.42668274  1  0  0.192072  0  3.56663  0  0  0.227858  0  3.849167  0  0  0.226394  0  3.865623  0  0  -0.016429  0.228183  0  3.838022  0
N  N81  1  0.71927782  0.52697752  0.57331573  1  0  0.192188  0  3.566234  0  0  0.228052  0  3.848758  0  0  0.226593  0  3.865212  0  0  -0.016309  0.228386  0  3.837588  0
N  N82  1  0.28260150  0.33355234  0.40153851  1  0  -0.113379  0  2.898469  0  0  -0.10589  0  3.192555  0  0  -0.101598  0  3.201296  0  0  -0.082036  -0.108458  0  3.187138  0
N  N83  1  0.71739251  0.66645083  0.59846172  1  0  -0.113376  0  2.89829  0  0  -0.105872  0  3.192336  0  0  -0.101577  0  3.201081  0  0  -0.082067  -0.108438  0  3.186906  0
N  N84  1  0.24769458  0.28078795  0.47463945  1  0  -0.234818  0  3.268671  0  0  -0.201545  0  3.60207  0  0  -0.205888  0  3.604252  0  0  -0.253242  -0.200049  0  3.602117  0
N  N85  1  0.75229943  0.71921521  0.52536078  1  0  -0.234875  0  3.268578  0  0  -0.201613  0  3.601998  0  0  -0.205974  0  3.604196  0  0  -0.253205  -0.200126  0  3.602057  0
N  N86  1  0.43994636  0.26906829  0.10270909  1  0  -0.224263  0  3.246166  0  0  -0.184909  0  3.562228  0  0  -0.189585  0  3.566925  0  0  -0.236174  -0.182839  0  3.560023  0
N  N87  1  0.56006621  0.73093509  0.89729131  1  0  -0.224282  0  3.245934  0  0  -0.184915  0  3.562009  0  0  -0.189588  0  3.566704  0  0  -0.236171  -0.182839  0  3.559804  0
N  N88  1  0.29860067  0.17693015  0.12786360  1  0  -0.101685  0  2.881078  0  0  -0.092052  0  3.168007  0  0  -0.087682  0  3.175927  0  0  -0.075456  -0.094523  0  3.162698  0
N  N89  1  0.70140984  0.82307768  0.87213748  1  0  -0.101757  0  2.881007  0  0  -0.092117  0  3.167942  0  0  -0.087747  0  3.175854  0  0  -0.075476  -0.09459  0  3.162636  0
N  N90  1  0.35250099  0.06614810  0.14169955  1  0  0.180971  0  3.556373  0  0  0.220281  0  3.835135  0  0  0.217053  0  3.852002  0  0  -0.025105  0.221964  0  3.823799  0
N  N91  1  0.64751085  0.93385977  0.85830295  1  0  0.181076  0  3.556513  0  0  0.220346  0  3.835302  0  0  0.217154  0  3.852178  0  0  -0.025028  0.222032  0  3.823969  0
O  O92  1  0.31120804  0.56080920  0.36731607  1  0  -0.182095  0  2.091628  0  0  -0.11682  0  2.316944  0  0  -0.131675  0  2.320262  0  0  -0.064704  -0.105512  0  2.313214  0
O  O93  1  0.68877560  0.43918823  0.63268136  1  0  -0.182103  0  2.091579  0  0  -0.116911  0  2.316883  0  0  -0.131786  0  2.320223  0  0  -0.064692  -0.105607  0  2.313162  0
O  O94  1  0.22675886  0.94541520  0.15857763  1  0  -0.197297  0  2.096235  0  0  -0.13856  0  2.32675  0  0  -0.151065  0  2.328882  0  0  -0.07302  -0.1295  0  2.324413  0
O  O95  1  0.77324839  0.05458812  0.84142252  1  0  -0.19731  0  2.096318  0  0  -0.138438  0  2.326767  0  0  -0.151035  0  2.328969  0  0  -0.072979  -0.129385  0  2.32444  0
