# generated using pymatgen
data_TbAg3H18C32(NO)8
_symmetry_space_group_name_H-M   'P 1'
_cell_length_a   5.50945953
_cell_length_b   15.97574569
_cell_length_c   21.70330322
_cell_angle_alpha   108.11870955
_cell_angle_beta   90.00061038
_cell_angle_gamma   89.99978534
_symmetry_Int_Tables_number   1
_chemical_formula_structural   TbAg3H18C32(NO)8
_chemical_formula_sum   'Tb2 Ag6 H36 C64 N16 O16'
_cell_volume   1815.55288690
_cell_formula_units_Z   2
loop_
 _symmetry_equiv_pos_site_id
 _symmetry_equiv_pos_as_xyz
  1  'x, y, z'
loop_
 _atom_site_type_symbol
 _atom_site_label
 _atom_site_symmetry_multiplicity
 _atom_site_fract_x
 _atom_site_fract_y
 _atom_site_fract_z
 _atom_site_occupancy
 _atom_site_hle17_bader_spin_density
 _atom_site_hle17_ddec_charge
 _atom_site_hle17_ddec_spin_density
 _atom_site_hle17_ddec_sum_bond_order
 _atom_site_hle17_magmom
 _atom_site_hse06_10hf_bader_spin_density
 _atom_site_hse06_10hf_ddec_charge
 _atom_site_hse06_10hf_ddec_spin_density
 _atom_site_hse06_10hf_ddec_sum_bond_order
 _atom_site_hse06_10hf_magmom
 _atom_site_hse06_bader_spin_density
 _atom_site_hse06_ddec_charge
 _atom_site_hse06_ddec_spin_density
 _atom_site_hse06_ddec_sum_bond_order
 _atom_site_hse06_magmom
 _atom_site_pbe_bader_spin_density
 _atom_site_pbe_cm5_charge
 _atom_site_pbe_ddec_charge
 _atom_site_pbe_ddec_spin_density
 _atom_site_pbe_ddec_sum_bond_order
 _atom_site_pbe_magmom
Tb  Tb0  1  0.50000969  0.50000132  0.50000209  1  0  2.284776  0  1.875639  0  0  2.200239  0  2.260779  0  0  2.300825  0  2.11193  0  0  1.548448  2.160251  0  2.30259  0
Tb  Tb1  1  0.00000118  0.00000004  0.99999881  1  0  2.284831  0  1.875631  0  0  2.200315  0  2.260765  0  0  2.300877  0  2.111942  0  0  1.548392  2.160306  0  2.302611  0
Ag  Ag2  1  0.59140402  0.91980305  0.63760170  1  0  0.474895  0  1.490406  0  0  0.332731  0  1.89929  0  0  0.359436  0  1.864514  0  0  0.481009  0.314389  0  1.922949  0
Ag  Ag3  1  0.09139425  0.58019966  0.86239720  1  0  0.474866  0  1.490389  0  0  0.332678  0  1.899282  0  0  0.359384  0  1.864506  0  0  0.480973  0.314339  0  1.922945  0
Ag  Ag4  1  0.40859539  0.08019958  0.36240202  1  0  0.474991  0  1.490358  0  0  0.332818  0  1.899227  0  0  0.359528  0  1.864449  0  0  0.481017  0.314477  0  1.92289  0
Ag  Ag5  1  0.90859790  0.41979706  0.13759779  1  0  0.475009  0  1.490313  0  0  0.332838  0  1.899174  0  0  0.359548  0  1.8644  0  0  0.48103  0.314496  0  1.922833  0
Ag  Ag6  1  0.49999972  0.00000163  0.49999883  1  0  0.453837  0  1.526787  0  0  0.3077  0  1.950179  0  0  0.335355  0  1.912384  0  0  0.464595  0.288647  0  1.975984  0
Ag  Ag7  1  0.99999735  0.49999962  0.99999998  1  0  0.453789  0  1.526728  0  0  0.307641  0  1.950133  0  0  0.335294  0  1.912336  0  0  0.464583  0.288587  0  1.975941  0
H  H8  1  0.32377906  0.74920176  0.60304803  1  0  0.110897  0  0.95104  0  0  0.119903  0  1.019231  0  0  0.12376  0  1.015357  0  0  0.109191  0.117084  0  1.022089  0
H  H9  1  0.82377079  0.75079498  0.89695105  1  0  0.110929  0  0.951023  0  0  0.119953  0  1.019183  0  0  0.123815  0  1.015308  0  0  0.109172  0.117132  0  1.022045  0
H  H10  1  0.67623124  0.25079890  0.39695340  1  0  0.110914  0  0.951069  0  0  0.119947  0  1.019223  0  0  0.12381  0  1.01535  0  0  0.109212  0.117127  0  1.022084  0
H  H11  1  0.17622681  0.24920437  0.10304869  1  0  0.110898  0  0.951028  0  0  0.119927  0  1.019188  0  0  0.123792  0  1.015313  0  0  0.109165  0.117103  0  1.022056  0
H  H12  1  0.63822363  0.67685816  0.66687292  1  0  0.104177  0  0.961143  0  0  0.110435  0  1.028953  0  0  0.11348  0  1.027711  0  0  0.105235  0.108171  0  1.030042  0
H  H13  1  0.13821359  0.82314257  0.83312381  1  0  0.10411  0  0.961144  0  0  0.110377  0  1.028961  0  0  0.113422  0  1.027719  0  0  0.105234  0.108114  0  1.030047  0
H  H14  1  0.36178849  0.32313855  0.33312621  1  0  0.104193  0  0.961071  0  0  0.110432  0  1.028909  0  0  0.113493  0  1.02765  0  0  0.105245  0.108169  0  1.029995  0
H  H15  1  0.86178582  0.17686073  0.16687638  1  0  0.104127  0  0.961174  0  0  0.110398  0  1.028975  0  0  0.11344  0  1.027739  0  0  0.105249  0.108136  0  1.030061  0
H  H16  1  0.61330580  0.81898864  0.75713142  1  0  0.114529  0  0.972844  0  0  0.124197  0  1.030815  0  0  0.12605  0  1.032574  0  0  0.103158  0.122849  0  1.029716  0
H  H17  1  0.11329895  0.68101540  0.74286370  1  0  0.114525  0  0.972871  0  0  0.124184  0  1.030848  0  0  0.12605  0  1.032589  0  0  0.103152  0.122839  0  1.029745  0
H  H18  1  0.38669906  0.18100873  0.24286787  1  0  0.11451  0  0.972797  0  0  0.124149  0  1.030809  0  0  0.126015  0  1.03255  0  0  0.103155  0.122803  0  1.029706  0
H  H19  1  0.88670228  0.31898790  0.25713603  1  0  0.114534  0  0.972784  0  0  0.124166  0  1.030804  0  0  0.126028  0  1.032549  0  0  0.103123  0.122821  0  1.029703  0
H  H20  1  0.87884195  0.98943139  0.80727714  1  0  0.325683  0  0.932513  0  0  0.301055  0  0.999773  0  0  0.312267  0  0.990578  0  0  0.301733  0.293185  0  1.006184  0
H  H21  1  0.37883848  0.51057063  0.69271869  1  0  0.325603  0  0.932625  0  0  0.300927  0  0.99994  0  0  0.312133  0  0.990757  0  0  0.301747  0.293062  0  1.006345  0
H  H22  1  0.12115202  0.01056664  0.19272322  1  0  0.325671  0  0.93244  0  0  0.301028  0  0.999713  0  0  0.312241  0  0.99052  0  0  0.301707  0.29316  0  1.006125  0
H  H23  1  0.62116093  0.48943201  0.30728135  1  0  0.325591  0  0.932564  0  0  0.300933  0  0.999877  0  0  0.312147  0  0.990688  0  0  0.301734  0.293067  0  1.006284  0
H  H24  1  0.29052748  0.04066428  0.77805056  1  0  0.097313  0  0.93134  0  0  0.108951  0  0.990308  0  0  0.111797  0  0.985654  0  0  0.141688  0.106735  0  0.993772  0
H  H25  1  0.79051497  0.45933704  0.72194558  1  0  0.097229  0  0.931378  0  0  0.108863  0  0.990348  0  0  0.111708  0  0.985695  0  0  0.14165  0.106648  0  0.993811  0
H  H26  1  0.70946830  0.95933572  0.22195163  1  0  0.097363  0  0.931365  0  0  0.108996  0  0.990336  0  0  0.111841  0  0.985681  0  0  0.141711  0.106781  0  0.993797  0
H  H27  1  0.20947900  0.54066561  0.27805261  1  0  0.097305  0  0.931333  0  0  0.108937  0  0.990308  0  0  0.111782  0  0.985654  0  0  0.141674  0.106722  0  0.99377  0
H  H28  1  0.14723074  0.66384945  0.35923746  1  0  0.089542  0  0.964735  0  0  0.100593  0  1.025556  0  0  0.103627  0  1.023253  0  0  0.097866  0.098384  0  1.027238  0
H  H29  1  0.64723611  0.83615189  0.14076156  1  0  0.089504  0  0.964736  0  0  0.10056  0  1.025554  0  0  0.103593  0  1.023251  0  0  0.097853  0.098351  0  1.027236  0
H  H30  1  0.85275415  0.33615649  0.64076104  1  0  0.08952  0  0.964662  0  0  0.100535  0  1.025543  0  0  0.103569  0  1.02324  0  0  0.097842  0.098327  0  1.027226  0
H  H31  1  0.35275604  0.16384087  0.85923574  1  0  0.08951  0  0.96474  0  0  0.100511  0  1.025628  0  0  0.103543  0  1.023327  0  0  0.097831  0.098304  0  1.02731  0
H  H32  1  0.62145252  0.73837004  0.51339168  1  0  0.109874  0  0.949585  0  0  0.118661  0  1.017876  0  0  0.122257  0  1.015003  0  0  0.108232  0.115947  0  1.020252  0
H  H33  1  0.12144057  0.76163068  0.98661145  1  0  0.109819  0  0.949621  0  0  0.118635  0  1.01788  0  0  0.122225  0  1.015006  0  0  0.108247  0.115922  0  1.020253  0
H  H34  1  0.37855778  0.26162929  0.48661589  1  0  0.109827  0  0.94958  0  0  0.118632  0  1.017849  0  0  0.12223  0  1.014972  0  0  0.108242  0.115919  0  1.020223  0
H  H35  1  0.87855702  0.23836802  0.01338400  1  0  0.109823  0  0.949545  0  0  0.118645  0  1.017793  0  0  0.122242  0  1.014921  0  0  0.108228  0.115932  0  1.020166  0
H  H36  1  0.37629152  0.80509920  0.40542475  1  0  0.095377  0  0.95195  0  0  0.108141  0  1.009488  0  0  0.111279  0  1.007985  0  0  0.098367  0.105927  0  1.010598  0
H  H37  1  0.87629649  0.69490276  0.09457687  1  0  0.09543  0  0.951935  0  0  0.108202  0  1.009453  0  0  0.111339  0  1.007951  0  0  0.098395  0.105988  0  1.010563  0
H  H38  1  0.62369518  0.19490608  0.59457451  1  0  0.095414  0  0.95188  0  0  0.108123  0  1.009472  0  0  0.11126  0  1.00797  0  0  0.098341  0.105909  0  1.010584  0
H  H39  1  0.12369385  0.30508935  0.90541845  1  0  0.095458  0  0.951992  0  0  0.108238  0  1.009493  0  0  0.111375  0  1.007992  0  0  0.098429  0.106025  0  1.010605  0
H  H40  1  0.06284464  0.02656158  0.60779556  1  0  0.074378  0  0.926588  0  0  0.091284  0  0.982146  0  0  0.092731  0  0.979456  0  0  0.127631  0.090152  0  0.984098  0
H  H41  1  0.56283554  0.47343713  0.89220352  1  0  0.074393  0  0.926596  0  0  0.091274  0  0.98218  0  0  0.092721  0  0.979492  0  0  0.127598  0.090144  0  0.984133  0
H  H42  1  0.93715477  0.97343974  0.39220556  1  0  0.0744  0  0.926572  0  0  0.091249  0  0.982189  0  0  0.092696  0  0.979499  0  0  0.1276  0.090117  0  0.984142  0
H  H43  1  0.43715843  0.52655696  0.10779133  1  0  0.074386  0  0.926666  0  0  0.091291  0  0.98222  0  0  0.092738  0  0.979529  0  0  0.127595  0.090155  0  0.984176  0
C  C44  1  0.17053415  0.76556710  0.63636079  1  0  -0.12126  0  3.714484  0  0  -0.152887  0  3.963894  0  0  -0.152336  0  3.982414  0  0  -0.081833  -0.15293  0  3.951013  0
C  C45  1  0.67051921  0.73443032  0.86363896  1  0  -0.121499  0  3.714366  0  0  -0.153121  0  3.963786  0  0  -0.15257  0  3.982323  0  0  -0.081942  -0.153165  0  3.95091  0
C  C46  1  0.82947434  0.23443356  0.36364064  1  0  -0.121384  0  3.714413  0  0  -0.152998  0  3.963841  0  0  -0.152475  0  3.982366  0  0  -0.081909  -0.153042  0  3.950962  0
C  C47  1  0.32947839  0.26557034  0.13636109  1  0  -0.121424  0  3.714299  0  0  -0.153005  0  3.963726  0  0  -0.15248  0  3.982246  0  0  -0.081868  -0.153042  0  3.950837  0
C  C48  1  0.99751871  0.61726216  0.58016944  1  0  0.763104  0  3.828837  0  0  0.717475  0  4.115979  0  0  0.754071  0  4.106148  0  0  0.246035  0.692531  0  4.123977  0
C  C49  1  0.49750624  0.88273718  0.91983347  1  0  0.763339  0  3.828499  0  0  0.717629  0  4.115754  0  0  0.75424  0  4.105904  0  0  0.246113  0.692679  0  4.123751  0
C  C50  1  0.00250430  0.38273652  0.41983384  1  0  0.762978  0  3.828647  0  0  0.717571  0  4.115453  0  0  0.754156  0  4.105616  0  0  0.246161  0.692612  0  4.123469  0
C  C51  1  0.50250225  0.11726480  0.08016734  1  0  0.763116  0  3.828641  0  0  0.717667  0  4.115508  0  0  0.754248  0  4.105677  0  0  0.24616  0.692702  0  4.12353  0
C  C52  1  0.78187825  0.72567998  0.67371367  1  0  -0.079453  0  3.745363  0  0  -0.105526  0  4.000737  0  0  -0.105461  0  4.021003  0  0  -0.090663  -0.105299  0  3.986822  0
C  C53  1  0.28186664  0.77431941  0.82628360  1  0  -0.079218  0  3.745262  0  0  -0.105316  0  4.000613  0  0  -0.105243  0  4.020891  0  0  -0.090674  -0.105088  0  3.986691  0
C  C54  1  0.21812842  0.27431937  0.32628653  1  0  -0.07947  0  3.745318  0  0  -0.105505  0  4.00068  0  0  -0.105467  0  4.020933  0  0  -0.090709  -0.105275  0  3.98676  0
C  C55  1  0.71813095  0.22568191  0.17371614  1  0  -0.079392  0  3.745285  0  0  -0.105437  0  4.000642  0  0  -0.105383  0  4.020903  0  0  -0.090706  -0.105209  0  3.986721  0
C  C56  1  0.95587939  0.86515779  0.72922685  1  0  0.146448  0  3.803982  0  0  0.138731  0  4.047471  0  0  0.144252  0  4.067427  0  0  0.090795  0.135091  0  4.034012  0
C  C57  1  0.45586878  0.63484158  0.77076857  1  0  0.1464  0  3.80412  0  0  0.138825  0  4.047414  0  0  0.144364  0  4.067342  0  0  0.090875  0.135191  0  4.033957  0
C  C58  1  0.04412184  0.13484354  0.27077104  1  0  0.146533  0  3.803883  0  0  0.138832  0  4.047314  0  0  0.144371  0  4.067245  0  0  0.090844  0.135194  0  4.033856  0
C  C59  1  0.54412881  0.36515974  0.22923116  1  0  0.146371  0  3.804239  0  0  0.138789  0  4.047575  0  0  0.144336  0  4.067495  0  0  0.090805  0.135152  0  4.034116  0
C  C60  1  0.15282338  0.84607915  0.68507134  1  0  0.117711  0  3.852157  0  0  0.117687  0  4.090555  0  0  0.119291  0  4.116192  0  0  0.075384  0.116461  0  4.073254  0
C  C61  1  0.65281089  0.65391960  0.81492590  1  0  0.118154  0  3.851563  0  0  0.117977  0  4.090106  0  0  0.119576  0  4.11573  0  0  0.075459  0.116751  0  4.072808  0
C  C62  1  0.84717966  0.15392283  0.31492947  1  0  0.117833  0  3.851797  0  0  0.117757  0  4.090253  0  0  0.119354  0  4.11589  0  0  0.075388  0.116533  0  4.072953  0
C  C63  1  0.34718671  0.34608172  0.18507338  1  0  0.117986  0  3.851758  0  0  0.117827  0  4.090259  0  0  0.119427  0  4.115892  0  0  0.075406  0.116601  0  4.072961  0
C  C64  1  0.76647628  0.80482401  0.72389683  1  0  -0.158315  0  3.760394  0  0  -0.171633  0  4.012028  0  0  -0.175699  0  4.032027  0  0  -0.098735  -0.168938  0  3.998488  0
C  C65  1  0.26646705  0.69517604  0.77609962  1  0  -0.158494  0  3.760477  0  0  -0.171839  0  4.01208  0  0  -0.175921  0  4.032064  0  0  -0.09881  -0.169143  0  3.998537  0
C  C66  1  0.23352677  0.19517665  0.27610321  1  0  -0.158339  0  3.760343  0  0  -0.171638  0  4.011964  0  0  -0.175722  0  4.031957  0  0  -0.098754  -0.168944  0  3.998424  0
C  C67  1  0.73353418  0.30482660  0.22390041  1  0  -0.158436  0  3.760416  0  0  -0.171754  0  4.012015  0  0  -0.175835  0  4.032003  0  0  -0.098746  -0.169059  0  3.998475  0
C  C68  1  0.98269933  0.70522531  0.63104593  1  0  -0.085941  0  3.76028  0  0  -0.063755  0  3.991494  0  0  -0.072797  0  4.014328  0  0  -0.022703  -0.057717  0  3.975404  0
C  C69  1  0.48268568  0.79477471  0.86895248  1  0  -0.08604  0  3.760278  0  0  -0.063764  0  3.991426  0  0  -0.07284  0  4.0143  0  0  -0.022557  -0.057722  0  3.97533  0
C  C70  1  0.01730915  0.29477536  0.36895365  1  0  -0.085861  0  3.760174  0  0  -0.063793  0  3.991411  0  0  -0.072792  0  4.014192  0  0  -0.022649  -0.057749  0  3.975321  0
C  C71  1  0.51731373  0.20522794  0.13104618  1  0  -0.085788  0  3.760189  0  0  -0.063722  0  3.991449  0  0  -0.072723  0  4.014235  0  0  -0.022617  -0.057675  0  3.975357  0
C  C72  1  0.20868074  0.97773580  0.75226898  1  0  0.263813  0  3.648838  0  0  0.202444  0  3.912699  0  0  0.220593  0  3.922995  0  0  0.166281  0.190625  0  3.905227  0
C  C73  1  0.70867593  0.52226558  0.74772624  1  0  0.263988  0  3.648836  0  0  0.202609  0  3.912671  0  0  0.220749  0  3.922969  0  0  0.166362  0.190799  0  3.905205  0
C  C74  1  0.79131504  0.02226486  0.24773198  1  0  0.263796  0  3.648967  0  0  0.202402  0  3.912806  0  0  0.220551  0  3.923103  0  0  0.166309  0.190589  0  3.905336  0
C  C75  1  0.29132167  0.47773640  0.25227226  1  0  0.263781  0  3.648874  0  0  0.202416  0  3.912737  0  0  0.220567  0  3.923034  0  0  0.166293  0.190605  0  3.905264  0
C  C76  1  0.74753588  0.60746171  0.40352449  1  0  0.704446  0  3.865771  0  0  0.656638  0  4.16055  0  0  0.691945  0  4.152599  0  0  0.224896  0.632536  0  4.166618  0
C  C77  1  0.24752778  0.89253500  0.09647925  1  0  0.704551  0  3.865946  0  0  0.656867  0  4.160512  0  0  0.692174  0  4.152558  0  0  0.224955  0.632764  0  4.16658  0
C  C78  1  0.25247079  0.39254092  0.59647969  1  0  0.704576  0  3.865536  0  0  0.656835  0  4.160201  0  0  0.692143  0  4.152244  0  0  0.224988  0.632733  0  4.166275  0
C  C79  1  0.75247163  0.10746040  0.90351912  1  0  0.704474  0  3.865958  0  0  0.656769  0  4.160549  0  0  0.692075  0  4.152593  0  0  0.224906  0.632666  0  4.166618  0
C  C80  1  0.08423429  0.71321800  0.40312161  1  0  -0.068707  0  3.774492  0  0  -0.094431  0  4.02085  0  0  -0.094453  0  4.044014  0  0  -0.092015  -0.094093  0  4.004875  0
C  C81  1  0.58424198  0.78678335  0.09687770  1  0  -0.068539  0  3.774479  0  0  -0.094276  0  4.020841  0  0  -0.094298  0  4.044008  0  0  -0.091996  -0.093937  0  4.004864  0
C  C82  1  0.91575423  0.28678662  0.59687704  1  0  -0.068561  0  3.774542  0  0  -0.094267  0  4.020885  0  0  -0.094286  0  4.044048  0  0  -0.091986  -0.093931  0  4.004911  0
C  C83  1  0.41575017  0.21321205  0.90311929  1  0  -0.068539  0  3.774605  0  0  -0.09425  0  4.020968  0  0  -0.094269  0  4.04413  0  0  -0.091953  -0.093913  0  4.004993  0
C  C84  1  0.90819887  0.83354720  0.51573510  1  0  0.124674  0  3.835075  0  0  0.126106  0  4.071432  0  0  0.127634  0  4.097479  0  0  0.071356  0.124905  0  4.053783  0
C  C85  1  0.40819876  0.66645742  0.98426786  1  0  0.124621  0  3.83527  0  0  0.126048  0  4.071595  0  0  0.127581  0  4.097643  0  0  0.071317  0.124848  0  4.053945  0
C  C86  1  0.09179873  0.16645477  0.48426847  1  0  0.124637  0  3.835207  0  0  0.12607  0  4.071514  0  0  0.127614  0  4.097547  0  0  0.071283  0.124861  0  4.053875  0
C  C87  1  0.59179884  0.33354127  0.01572897  1  0  0.124811  0  3.835175  0  0  0.126263  0  4.071434  0  0  0.127807  0  4.097468  0  0  0.071371  0.125053  0  4.053795  0
C  C88  1  0.12078150  0.85190241  0.48512643  1  0  0.145829  0  3.834664  0  0  0.142207  0  4.06816  0  0  0.146673  0  4.094389  0  0  0.077125  0.139319  0  4.050323  0
C  C89  1  0.62078179  0.64810091  0.01487620  1  0  0.145697  0  3.834855  0  0  0.142081  0  4.068327  0  0  0.146545  0  4.094557  0  0  0.077083  0.139197  0  4.050488  0
C  C90  1  0.87921247  0.14810154  0.51487576  1  0  0.145795  0  3.834774  0  0  0.14217  0  4.068247  0  0  0.146633  0  4.094472  0  0  0.077146  0.139289  0  4.050413  0
C  C91  1  0.37921399  0.35189713  0.98512186  1  0  0.145672  0  3.83475  0  0  0.142073  0  4.068196  0  0  0.146531  0  4.094419  0  0  0.0771  0.139192  0  4.050364  0
C  C92  1  0.78405411  0.75394729  0.49053204  1  0  -0.136902  0  3.721837  0  0  -0.167176  0  3.971994  0  0  -0.167275  0  3.992209  0  0  -0.085503  -0.166793  0  3.958092  0
C  C93  1  0.28405120  0.74605601  0.00946918  1  0  -0.136677  0  3.721957  0  0  -0.166982  0  3.972115  0  0  -0.167067  0  3.992314  0  0  -0.085467  -0.166597  0  3.958207  0
C  C94  1  0.21594712  0.24605337  0.50947169  1  0  -0.136734  0  3.721881  0  0  -0.16702  0  3.972013  0  0  -0.167121  0  3.992225  0  0  -0.08551  -0.166632  0  3.958107  0
C  C95  1  0.71594095  0.25394136  0.99052827  1  0  -0.136817  0  3.722056  0  0  -0.167144  0  3.97219  0  0  -0.167251  0  3.99241  0  0  -0.085533  -0.166756  0  3.958282  0
C  C96  1  0.21081124  0.79144819  0.42822617  1  0  -0.160155  0  3.796003  0  0  -0.171726  0  4.03983  0  0  -0.177402  0  4.063102  0  0  -0.101995  -0.167935  0  4.023844  0
C  C97  1  0.71081872  0.70855709  0.07177577  1  0  -0.160244  0  3.796152  0  0  -0.171824  0  4.03999  0  0  -0.177498  0  4.063257  0  0  -0.102018  -0.168031  0  4.023999  0
C  C98  1  0.78917728  0.20855708  0.57177402  1  0  -0.16026  0  3.796188  0  0  -0.171773  0  4.039991  0  0  -0.177449  0  4.063263  0  0  -0.101954  -0.167982  0  4.024003  0
C  C99  1  0.28917343  0.29143962  0.92822199  1  0  -0.160267  0  3.796096  0  0  -0.171863  0  4.039916  0  0  -0.177538  0  4.063185  0  0  -0.102063  -0.168072  0  4.023931  0
C  C100  1  0.04698055  0.96278760  0.57098666  1  0  0.217401  0  3.791791  0  0  0.158165  0  4.059441  0  0  0.175444  0  4.073402  0  0  0.124681  0.146856  0  4.049474  0
C  C101  1  0.54697597  0.53721248  0.92901429  1  0  0.217201  0  3.79183  0  0  0.157965  0  4.059463  0  0  0.175247  0  4.073428  0  0  0.12462  0.146657  0  4.049499  0
C  C102  1  0.95301886  0.03721240  0.42901462  1  0  0.21743  0  3.79182  0  0  0.158217  0  4.05943  0  0  0.175501  0  4.073396  0  0  0.124767  0.146912  0  4.049463  0
C  C103  1  0.45301799  0.46278424  0.07098255  1  0  0.21739  0  3.791965  0  0  0.158137  0  4.059591  0  0  0.175417  0  4.073558  0  0  0.124714  0.146835  0  4.049615  0
C  C104  1  0.87366638  0.69368955  0.43358160  1  0  -0.082467  0  3.761097  0  0  -0.058158  0  3.992239  0  0  -0.067961  0  4.017606  0  0  -0.024803  -0.051735  0  3.974756  0
C  C105  1  0.37367429  0.80631242  0.06641817  1  0  -0.082648  0  3.761384  0  0  -0.05837  0  3.992492  0  0  -0.068176  0  4.01786  0  0  -0.024787  -0.051945  0  3.975006  0
C  C106  1  0.12633303  0.30631309  0.56642121  1  0  -0.082578  0  3.76136  0  0  -0.058285  0  3.992464  0  0  -0.068093  0  4.017839  0  0  -0.024795  -0.05186  0  3.974977  0
C  C107  1  0.62632149  0.19368298  0.93357652  1  0  -0.082514  0  3.761517  0  0  -0.058188  0  3.992543  0  0  -0.067992  0  4.017912  0  0  -0.024732  -0.051762  0  3.975056  0
N  N108  1  0.99924887  0.94870556  0.77126500  1  0  -0.33601  0  3.340172  0  0  -0.270913  0  3.575688  0  0  -0.289629  0  3.585461  0  0  -0.360942  -0.258366  0  3.568801  0
N  N109  1  0.49923921  0.55129643  0.72873069  1  0  -0.33611  0  3.340459  0  0  -0.270942  0  3.575867  0  0  -0.289658  0  3.585638  0  0  -0.361057  -0.258409  0  3.568991  0
N  N110  1  0.00074873  0.05129444  0.22873673  1  0  -0.336112  0  3.340223  0  0  -0.270948  0  3.575647  0  0  -0.289667  0  3.585415  0  0  -0.360944  -0.258403  0  3.568759  0
N  N111  1  0.50076020  0.44870621  0.27126843  1  0  -0.33596  0  3.340341  0  0  -0.270868  0  3.575831  0  0  -0.289596  0  3.585601  0  0  -0.360959  -0.258327  0  3.568942  0
N  N112  1  0.30653530  0.91874731  0.70050286  1  0  -0.410172  0  3.357667  0  0  -0.323816  0  3.653398  0  0  -0.346961  0  3.669027  0  0  -0.388275  -0.308051  0  3.642178  0
N  N113  1  0.80652295  0.58125142  0.79949294  1  0  -0.410242  0  3.357411  0  0  -0.323889  0  3.653216  0  0  -0.347022  0  3.668837  0  0  -0.388269  -0.308135  0  3.642008  0
N  N114  1  0.69346774  0.08125533  0.29949810  1  0  -0.410224  0  3.357448  0  0  -0.32387  0  3.653209  0  0  -0.347015  0  3.66884  0  0  -0.388304  -0.308116  0  3.642001  0
N  N115  1  0.19347101  0.41874859  0.20050603  1  0  -0.410184  0  3.357424  0  0  -0.323818  0  3.653205  0  0  -0.346965  0  3.668834  0  0  -0.388251  -0.308064  0  3.641995  0
N  N116  1  0.86634253  0.90588876  0.57034983  1  0  -0.439399  0  3.413917  0  0  -0.343827  0  3.704956  0  0  -0.36805  0  3.72125  0  0  -0.40484  -0.327289  0  3.693298  0
N  N117  1  0.36633545  0.59411521  0.92965425  1  0  -0.439358  0  3.413975  0  0  -0.343727  0  3.704929  0  0  -0.367964  0  3.721235  0  0  -0.40476  -0.327188  0  3.693271  0
N  N118  1  0.13365689  0.09411321  0.42965421  1  0  -0.439623  0  3.414174  0  0  -0.344  0  3.705155  0  0  -0.368239  0  3.721448  0  0  -0.404892  -0.327458  0  3.693499  0
N  N119  1  0.63366033  0.40588282  0.07034426  1  0  -0.439657  0  3.414062  0  0  -0.344031  0  3.705027  0  0  -0.368275  0  3.721329  0  0  -0.404874  -0.327487  0  3.693364  0
N  N120  1  0.20485903  0.93410650  0.52138771  1  0  -0.431212  0  3.39613  0  0  -0.337939  0  3.691853  0  0  -0.362517  0  3.707184  0  0  -0.406258  -0.321216  0  3.680765  0
N  N121  1  0.70485624  0.56589619  0.97861380  1  0  -0.430948  0  3.395927  0  0  -0.33767  0  3.691609  0  0  -0.362248  0  3.706946  0  0  -0.40621  -0.320953  0  3.680522  0
N  N122  1  0.79513675  0.06589680  0.47861386  1  0  -0.431108  0  3.396147  0  0  -0.337823  0  3.691832  0  0  -0.362402  0  3.707167  0  0  -0.406298  -0.32111  0  3.680748  0
N  N123  1  0.29513773  0.43409921  0.02138365  1  0  -0.431023  0  3.396232  0  0  -0.337778  0  3.69195  0  0  -0.362342  0  3.707273  0  0  -0.406245  -0.321066  0  3.680865  0
O  O124  1  0.80382634  0.57203143  0.56613467  1  0  -0.764572  0  2.032482  0  0  -0.725254  0  2.291995  0  0  -0.75858  0  2.272088  0  0  -0.415699  -0.707455  0  2.303115  0
O  O125  1  0.30381578  0.92796596  0.93386772  1  0  -0.764726  0  2.032449  0  0  -0.725405  0  2.292032  0  0  -0.758723  0  2.27211  0  0  -0.415807  -0.707611  0  2.30319  0
O  O126  1  0.19619667  0.42796461  0.43386845  1  0  -0.764573  0  2.032447  0  0  -0.725325  0  2.291847  0  0  -0.758647  0  2.271943  0  0  -0.41579  -0.70754  0  2.303022  0
O  O127  1  0.69619633  0.07203865  0.06613369  1  0  -0.764669  0  2.032559  0  0  -0.725419  0  2.292002  0  0  -0.758734  0  2.272095  0  0  -0.415807  -0.707618  0  2.30317  0
O  O128  1  0.80509773  0.56212295  0.34640813  1  0  -0.616878  0  1.931766  0  0  -0.570797  0  2.1463  0  0  -0.595125  0  2.135861  0  0  -0.319106  -0.553738  0  2.152857  0
O  O129  1  0.30507885  0.93787244  0.15359409  1  0  -0.616847  0  1.932023  0  0  -0.570822  0  2.146488  0  0  -0.595152  0  2.13605  0  0  -0.319097  -0.553762  0  2.153047  0
O  O130  1  0.19489805  0.43787837  0.65359530  1  0  -0.616879  0  1.931825  0  0  -0.57082  0  2.146336  0  0  -0.595146  0  2.135898  0  0  -0.319102  -0.553763  0  2.152895  0
O  O131  1  0.69490423  0.06212164  0.84640536  1  0  -0.616844  0  1.932084  0  0  -0.570811  0  2.146551  0  0  -0.595139  0  2.136111  0  0  -0.31905  -0.553753  0  2.153111  0
O  O132  1  0.58352970  0.58411743  0.43715186  1  0  -0.796753  0  2.037679  0  0  -0.751466  0  2.296706  0  0  -0.786987  0  2.279476  0  0  -0.449029  -0.731848  0  2.305744  0
O  O133  1  0.08351448  0.91588194  0.06285252  1  0  -0.796893  0  2.037471  0  0  -0.751661  0  2.296443  0  0  -0.787176  0  2.279208  0  0  -0.449082  -0.732043  0  2.3055  0
O  O134  1  0.41649149  0.41587729  0.56285143  1  0  -0.796858  0  2.037496  0  0  -0.7516  0  2.296491  0  0  -0.787119  0  2.279253  0  0  -0.449054  -0.731979  0  2.305524  0
O  O135  1  0.91649037  0.08411873  0.93714706  1  0  -0.796882  0  2.037541  0  0  -0.751647  0  2.296526  0  0  -0.787162  0  2.279291  0  0  -0.449079  -0.732022  0  2.305568  0
O  O136  1  0.20417188  0.59314313  0.55467503  1  0  -0.761187  0  2.023792  0  0  -0.720054  0  2.280654  0  0  -0.75343  0  2.260819  0  0  -0.414805  -0.702169  0  2.291555  0
O  O137  1  0.70416576  0.90685428  0.94532526  1  0  -0.761215  0  2.023572  0  0  -0.720062  0  2.28047  0  0  -0.753438  0  2.260633  0  0  -0.414788  -0.702177  0  2.291396  0
O  O138  1  0.79585113  0.40685357  0.44532825  1  0  -0.761083  0  2.023662  0  0  -0.720011  0  2.280398  0  0  -0.753393  0  2.260577  0  0  -0.414802  -0.702132  0  2.291333  0
O  O139  1  0.29584636  0.09314704  0.05467355  1  0  -0.761182  0  2.02353  0  0  -0.720103  0  2.280293  0  0  -0.753477  0  2.260471  0  0  -0.414799  -0.702225  0  2.291252  0
