# generated using pymatgen
data_CuH12C14(NO)4
_symmetry_space_group_name_H-M   'P 1'
_cell_length_a   4.77811161
_cell_length_b   7.68287053
_cell_length_c   10.27598662
_cell_angle_alpha   74.29759131
_cell_angle_beta   77.45259754
_cell_angle_gamma   84.44114089
_symmetry_Int_Tables_number   1
_chemical_formula_structural   CuH12C14(NO)4
_chemical_formula_sum   'Cu1 H12 C14 N4 O4'
_cell_volume   354.18519603
_cell_formula_units_Z   1
loop_
 _symmetry_equiv_pos_site_id
 _symmetry_equiv_pos_as_xyz
  1  'x, y, z'
loop_
 _atom_site_type_symbol
 _atom_site_label
 _atom_site_symmetry_multiplicity
 _atom_site_fract_x
 _atom_site_fract_y
 _atom_site_fract_z
 _atom_site_occupancy
 _atom_site_hle17_ddec_charge
 _atom_site_hle17_ddec_spin_density
 _atom_site_hle17_ddec_sum_bond_order
 _atom_site_hle17_magmom
 _atom_site_hse06_10hf_ddec_charge
 _atom_site_hse06_10hf_ddec_spin_density
 _atom_site_hse06_10hf_ddec_sum_bond_order
 _atom_site_hse06_10hf_magmom
 _atom_site_hse06_ddec_charge
 _atom_site_hse06_ddec_spin_density
 _atom_site_hse06_ddec_sum_bond_order
 _atom_site_hse06_magmom
 _atom_site_pbe_cm5_charge
 _atom_site_pbe_ddec_charge
 _atom_site_pbe_ddec_spin_density
 _atom_site_pbe_ddec_sum_bond_order
 _atom_site_pbe_magmom
Cu  Cu0  1  0.00000005  0.99999683  0.00000266  1  0.816036  -0.682196  1.840816  -0.508  0.780288  -0.766516  2.247303  -0.614  0.871266  -0.827247  2.176209  -0.693  0.753681  0.72312  -0.725798  2.297893  -0.565
H  H1  1  0.54878680  0.74591165  0.03920399  1  0.306348  0.000443  0.9154  0.0  0.280155  0.000247  0.99128  0.0  0.288702  0.000266  0.983869  0.0  0.320989  0.273831  0.000208  0.997028  0.0
H  H2  1  0.45120811  0.25409055  0.96079574  1  0.306316  0.00044  0.915481  0.0  0.280129  0.000247  0.991353  0.0  0.288676  0.000266  0.983943  0.0  0.320985  0.2738  0.000208  0.99711  0.0
H  H3  1  0.89003426  0.62462930  0.85921013  1  0.117064  -0.000533  0.943212  -0.001  0.127327  -0.000363  1.00302  -0.001  0.129819  -0.000273  1.001307  0.0  0.127751  0.125713  -0.00043  1.003719  -0.001
H  H4  1  0.10996880  0.37537833  0.14078570  1  0.117013  -0.000533  0.943236  -0.001  0.127278  -0.000363  1.00306  -0.001  0.129778  -0.000274  1.001321  0.0  0.127745  0.125662  -0.00043  1.003765  -0.001
H  H5  1  0.71002347  0.77691810  0.61309188  1  0.118704  -0.000529  0.982503  -0.001  0.13045  -0.000401  1.036697  -0.001  0.132533  -0.000306  1.038264  0.0  0.105556  0.12882  -0.000468  1.036043  -0.001
H  H6  1  0.28997539  0.22308816  0.38690369  1  0.118712  -0.000521  0.982569  -0.001  0.130454  -0.000401  1.036765  -0.001  0.132538  -0.000306  1.038332  0.0  0.105573  0.128825  -0.000468  1.036105  -0.001
H  H7  1  0.22413685  0.98275447  0.68905363  1  0.100803  0.00023  0.954338  0.0  0.11375  8.2e-05  1.009407  0.0  0.115801  9.5e-05  1.007785  0.0  0.121905  0.112163  6.7e-05  1.010603  0.0
H  H8  1  0.77585578  0.01724907  0.31094411  1  0.100825  0.000239  0.954357  0.0  0.113768  8.2e-05  1.009428  0.0  0.115812  9.4e-05  1.007807  0.0  0.12192  0.112183  6.7e-05  1.010621  0.0
H  H9  1  0.32020968  0.59896706  0.62462862  1  0.094485  1.5e-05  0.984276  0.0  0.101489  -1e-06  1.051685  0.0  0.104069  -4e-06  1.051656  0.0  0.09899  0.099521  1e-06  1.051906  0.0
H  H10  1  0.67980318  0.40102436  0.37537338  1  0.0945  1e-05  0.984218  0.0  0.101481  -1e-06  1.051627  0.0  0.104063  -3e-06  1.0516  0.0  0.099004  0.099511  1e-06  1.051842  0.0
H  H11  1  0.71778655  0.22495111  0.61725264  1  0.10098  -0.000497  0.956693  0.0  0.108216  -0.000426  1.022095  0.0  0.111376  -0.000289  1.020695  0.0  0.100057  0.10597  -0.000548  1.023097  0.0
H  H12  1  0.28221114  0.77504297  0.38275233  1  0.100945  -0.000495  0.956758  0.0  0.108216  -0.000426  1.022133  0.0  0.111375  -0.000289  1.020734  0.0  0.10008  0.105971  -0.000548  1.023138  0.0
C  C13  1  0.70885465  0.71613083  0.83677719  1  0.078131  0.006116  3.646482  0.003  0.028314  0.002082  3.913139  0.0  0.038494  0.003071  3.925232  0.001  0.032062  0.021868  0.001335  3.904488  0.0
C  C14  1  0.29114429  0.28387407  0.16321767  1  0.078252  0.006097  3.646335  0.003  0.028434  0.002083  3.913009  0.0  0.038616  0.00307  3.925109  0.001  0.032066  0.021985  0.001335  3.904352  0.0
C  C15  1  0.61422631  0.79540432  0.71431116  1  -0.214169  -0.003304  3.774637  -0.004  -0.220042  -0.001729  4.024231  -0.002  -0.229365  -0.001456  4.042736  -0.002  -0.116055  -0.213929  -0.001895  4.011658  -0.002
C  C16  1  0.38576821  0.20460329  0.28568751  1  -0.214228  -0.003309  3.774579  -0.004  -0.220095  -0.001727  4.024168  -0.002  -0.229421  -0.001456  4.042673  -0.002  -0.11607  -0.213976  -0.001895  4.011584  -0.002
C  C17  1  0.36940734  0.90115990  0.75117793  1  0.054554  0.006111  3.724502  0.002  0.021908  0.001841  3.985886  0.0  0.033282  0.003321  4.000032  0.001  0.019585  0.014978  0.000759  3.976023  -0.001
C  C18  1  0.63058774  0.09883959  0.24882136  1  0.054559  0.006053  3.72454  0.002  0.021896  0.001842  3.985935  0.0  0.03328  0.003321  4.000075  0.001  0.019588  0.014965  0.000759  3.976072  -0.001
C  C19  1  0.05408536  0.29987062  0.77686849  1  0.622427  0.007652  3.911723  0.008  0.579648  0.002162  4.214418  0.003  0.616282  0.002754  4.208217  0.003  0.20094  0.555006  0.001577  4.217667  0.003
C  C20  1  0.94591426  0.70012618  0.22313477  1  0.622593  0.00767  3.911697  0.008  0.579737  0.002161  4.214465  0.003  0.61637  0.002753  4.208263  0.003  0.200955  0.555086  0.001578  4.217729  0.003
C  C21  1  0.02230579  0.40277302  0.63399374  1  -0.059278  -0.008208  3.745959  -0.009  -0.037341  -0.005382  3.97476  -0.006  -0.044213  -0.003806  3.996664  -0.005  -0.017499  -0.03286  -0.006608  3.960006  -0.007
C  C22  1  0.97769167  0.59722377  0.36600877  1  -0.059327  -0.008189  3.745855  -0.009  -0.03736  -0.005383  3.974662  -0.006  -0.044229  -0.003807  3.996567  -0.005  -0.017532  -0.032877  -0.006607  3.959908  -0.007
C  C23  1  0.18043046  0.55788243  0.56856881  1  -0.078806  -0.000284  3.750916  -0.001  -0.098864  -0.000435  3.995512  -0.001  -0.101144  -0.000195  4.017865  0.0  -0.084475  -0.09732  -0.000658  3.980424  -0.001
C  C24  1  0.81957564  0.44211439  0.43143668  1  -0.078859  -0.000295  3.751122  -0.001  -0.098878  -0.000435  3.995696  -0.001  -0.101165  -0.000194  4.01805  0.0  -0.08451  -0.097333  -0.000658  3.980603  -0.001
C  C25  1  0.84118712  0.34496699  0.56467315  1  -0.074553  3e-05  3.726121  0.0  -0.095268  -0.000416  3.972894  0.0  -0.095261  -0.000179  3.991656  0.0  -0.085506  -0.09508  -0.000663  3.960197  -0.001
C  C26  1  0.15881234  0.65503252  0.43533151  1  -0.07454  -1.4e-05  3.725921  0.0  -0.09529  -0.000416  3.972735  0.0  -0.095283  -0.000178  3.991494  0.0  -0.085568  -0.0951  -0.000663  3.960042  -0.001
N  N27  1  0.31817924  0.88798044  0.88762282  1  -0.228472  -0.063754  3.249198  -0.082  -0.202166  -0.047449  3.567971  -0.065  -0.2284  -0.039908  3.587913  -0.058  -0.281013  -0.186433  -0.051602  3.556527  -0.067
N  N28  1  0.68181585  0.11201905  0.11237743  1  -0.228428  -0.063724  3.249217  -0.082  -0.20208  -0.047449  3.56795  -0.065  -0.228316  -0.039908  3.587892  -0.058  -0.280981  -0.186354  -0.051601  3.556513  -0.067
N  N29  1  0.52631547  0.77422174  0.93765460  1  -0.154496  -0.002276  3.481458  -0.003  -0.094345  -0.001429  3.726962  -0.002  -0.105477  -0.000942  3.746174  -0.002  -0.277197  -0.086949  -0.001794  3.714733  -0.003
N  N30  1  0.47368786  0.22578183  0.06234105  1  -0.15454  -0.002269  3.481514  -0.003  -0.094408  -0.001432  3.727022  -0.002  -0.105541  -0.000939  3.746235  -0.002  -0.277218  -0.087003  -0.001794  3.714796  -0.003
O  O31  1  0.90083847  0.15777391  0.82985661  1  -0.585977  -0.101184  2.074963  -0.14  -0.562277  -0.066219  2.367797  -0.1  -0.606867  -0.050622  2.362439  -0.082  -0.327137  -0.53239  -0.076626  2.371293  -0.109
O  O32  1  0.09915899  0.84222288  0.17014589  1  -0.586074  -0.101181  2.074966  -0.14  -0.56231  -0.066215  2.367842  -0.1  -0.606899  -0.05062  2.362474  -0.082  -0.327142  -0.532424  -0.076621  2.371344  -0.109
O  O33  1  0.22259877  0.35248355  0.83529637  1  -0.605714  0.001093  1.945609  -0.001  -0.571079  0.001094  2.182831  -0.001  -0.595247  0.002096  2.174177  0.0  -0.315761  -0.554448  0.00024  2.188021  -0.002
O  O34  1  0.77740522  0.64751190  0.16470573  1  -0.605783  0.001095  1.945633  -0.001  -0.571135  0.001092  2.182883  -0.001  -0.595304  0.002096  2.174227  0.0  -0.315768  -0.5545  0.000241  2.188076  -0.002
