# generated using pymatgen
data_Cu3H6C9N7
_symmetry_space_group_name_H-M   'P 1'
_cell_length_a   13.70241676
_cell_length_b   16.77082273
_cell_length_c   19.29693219
_cell_angle_alpha   89.99999235
_cell_angle_beta   89.99998589
_cell_angle_gamma   89.99994390
_symmetry_Int_Tables_number   1
_chemical_formula_structural   Cu3H6C9N7
_chemical_formula_sum   'Cu12 H24 C36 N28'
_cell_volume   4434.45049953
_cell_formula_units_Z   4
loop_
 _symmetry_equiv_pos_site_id
 _symmetry_equiv_pos_as_xyz
  1  'x, y, z'
loop_
 _atom_site_type_symbol
 _atom_site_label
 _atom_site_symmetry_multiplicity
 _atom_site_fract_x
 _atom_site_fract_y
 _atom_site_fract_z
 _atom_site_occupancy
 _atom_site_pbe_bader_charge
 _atom_site_pbe_bader_spin_density
 _atom_site_pbe_cm5_charge
 _atom_site_pbe_ddec_charge
 _atom_site_pbe_ddec_spin_density
 _atom_site_pbe_ddec_sum_bond_order
 _atom_site_pbe_magmom
Cu  Cu0  1  0.79593117  0.91682644  0.78931342  1  0.535514  0  0.484699  0.204273  0  2.145606  0
Cu  Cu1  1  0.80970829  0.88708667  0.94857086  1  0.541328  0  0.479483  0.201359  0  2.11938  0
Cu  Cu2  1  0.92309641  0.77308150  0.84068946  1  0.538548  0  0.478744  0.199535  0  2.112698  0
Cu  Cu3  1  0.20406798  0.58317224  0.28931433  1  0.535519  0  0.484737  0.204326  0  2.145644  0
Cu  Cu4  1  0.19029226  0.61291198  0.44857177  1  0.541322  0  0.479467  0.20131  0  2.119357  0
Cu  Cu5  1  0.07690419  0.72691717  0.34068934  1  0.538546  0  0.478769  0.199593  0  2.112661  0
Cu  Cu6  1  0.29593229  0.08317225  0.71068651  1  0.535513  0  0.484707  0.204301  0  2.145642  0
Cu  Cu7  1  0.30970871  0.11291200  0.55142907  1  0.541318  0  0.479449  0.201293  0  2.119388  0
Cu  Cu8  1  0.42309665  0.22691709  0.65931097  1  0.538538  0  0.47876  0.199551  0  2.112677  0
Cu  Cu9  1  0.70406748  0.41682660  0.21068522  1  0.535522  0  0.484723  0.204307  0  2.145673  0
Cu  Cu10  1  0.69029259  0.38708806  0.05142830  1  0.54131  0  0.479462  0.201307  0  2.119407  0
Cu  Cu11  1  0.57690461  0.27308177  0.15931075  1  0.538546  0  0.478759  0.199575  0  2.112775  0
H  H12  1  0.62564567  0.04566412  0.78415775  1  0.123136  0  0.115085  0.117699  0  1.007498  0
H  H13  1  0.68731158  0.03897635  0.00458823  1  0.067358  0  0.113412  0.114039  0  1.011279  0
H  H14  1  0.06291023  0.74732462  0.70873022  1  0.108563  0  0.119342  0.118243  0  0.99346  0
H  H15  1  0.88539131  0.94698116  0.64160289  1  0.106501  0  0.124444  0.125159  0  0.978713  0
H  H16  1  0.84838343  0.79433755  0.08783612  1  0.092278  0  0.120208  0.118736  0  0.990493  0
H  H17  1  0.97962592  0.62987621  0.94171382  1  0.069826  0  0.122151  0.121681  0  0.984523  0
H  H18  1  0.37435481  0.45433651  0.28415858  1  0.123137  0  0.115089  0.11769  0  1.007528  0
H  H19  1  0.31268827  0.46102135  0.50458896  1  0.067335  0  0.113406  0.114036  0  1.011204  0
H  H20  1  0.93709114  0.75267527  0.20872943  1  0.109063  0  0.119335  0.118271  0  0.993473  0
H  H21  1  0.11460862  0.55301754  0.14160278  1  0.106576  0  0.124431  0.125137  0  0.978708  0
H  H22  1  0.15161652  0.70566176  0.58783639  1  0.092252  0  0.120212  0.118743  0  0.990523  0
H  H23  1  0.02037537  0.87012304  0.44171368  1  0.069856  0  0.122177  0.121703  0  0.984521  0
H  H24  1  0.12564502  0.95433709  0.71584222  1  0.123128  0  0.115073  0.117665  0  1.007533  0
H  H25  1  0.18731155  0.96102251  0.49541184  1  0.067357  0  0.11342  0.114056  0  1.011251  0
H  H26  1  0.56290917  0.25267545  0.79127027  1  0.109059  0  0.119326  0.118265  0  0.993471  0
H  H27  1  0.38539242  0.05301745  0.85839807  1  0.106557  0  0.124438  0.125172  0  0.978675  0
H  H28  1  0.34838360  0.20566118  0.41216444  1  0.092271  0  0.120193  0.118704  0  0.990521  0
H  H29  1  0.47962529  0.37012233  0.55828661  1  0.069845  0  0.122167  0.121699  0  0.984551  0
H  H30  1  0.87435415  0.54566279  0.21584145  1  0.123144  0  0.115081  0.117671  0  1.007565  0
H  H31  1  0.81268972  0.53897733  0.99541097  1  0.067335  0  0.113421  0.114036  0  1.01129  0
H  H32  1  0.43709058  0.24732398  0.29127060  1  0.109043  0  0.119328  0.118251  0  0.99346  0
H  H33  1  0.61460877  0.44698197  0.35839730  1  0.10649  0  0.124437  0.125142  0  0.978704  0
H  H34  1  0.65161683  0.29433824  0.91216409  1  0.092262  0  0.120202  0.118715  0  0.990513  0
H  H35  1  0.52037527  0.12987714  0.05828693  1  0.069858  0  0.122171  0.121715  0  0.984516  0
C  C36  1  0.65164036  0.03307259  0.83607118  1  0.335249  0  -0.018558  -0.127371  0  3.995412  0
C  C37  1  0.62720522  0.06973627  0.89904285  1  0.420541  0  0.06657  0.101824  0  4.126107  0
C  C38  1  0.68289249  0.02961299  0.94909692  1  0.427778  0  -0.018534  -0.125085  0  3.986777  0
C  C39  1  0.00965755  0.79463836  0.70220691  1  0.36375  0  -0.001516  -0.099883  0  3.971791  0
C  C40  1  0.99903190  0.85058394  0.64867033  1  0.409885  0  0.064128  0.08731  0  4.105708  0
C  C41  1  0.91797902  0.89639866  0.66797444  1  0.440066  0  0.004074  -0.090599  0  3.976386  0
C  C42  1  0.87726741  0.76325022  0.04297873  1  0.386751  0  -0.000384  -0.09618  0  3.973883  0
C  C43  1  0.92280249  0.68853830  0.03847594  1  0.46073  0  0.063866  0.089041  0  4.109842  0
C  C44  1  0.94414820  0.67923456  0.96795788  1  0.418906  0  0.000773  -0.095353  0  3.980641  0
C  C45  1  0.34836084  0.46692565  0.33607098  1  0.335214  0  -0.01857  -0.12736  0  3.995377  0
C  C46  1  0.37279595  0.43026315  0.39904316  1  0.420464  0  0.066569  0.101855  0  4.126  0
C  C47  1  0.31710793  0.47038523  0.44909724  1  0.427782  0  -0.018545  -0.125102  0  3.986703  0
C  C48  1  0.99034236  0.70536093  0.20220611  1  0.363275  0  -0.001508  -0.099896  0  3.971814  0
C  C49  1  0.00096876  0.64941536  0.14867023  1  0.409844  0  0.064126  0.087312  0  4.105771  0
C  C50  1  0.08202091  0.60360063  0.16797433  1  0.440004  0  0.004075  -0.09058  0  3.976442  0
C  C51  1  0.12273256  0.73674850  0.54297952  1  0.386719  0  -0.000267  -0.096034  0  3.97385  0
C  C52  1  0.07719821  0.81146042  0.53847621  1  0.460734  0  0.063771  0.088918  0  4.109743  0
C  C53  1  0.05585235  0.82076468  0.46795827  1  0.418936  0  0.000742  -0.095306  0  3.980594  0
C  C54  1  0.15163971  0.96692741  0.66392930  1  0.335235  0  -0.018533  -0.127301  0  3.995414  0
C  C55  1  0.12720464  0.93026375  0.60095712  1  0.420539  0  0.066577  0.10182  0  4.126101  0
C  C56  1  0.18289188  0.97038639  0.55090304  1  0.42778  0  -0.018534  -0.125076  0  3.98681  0
C  C57  1  0.50965728  0.20536116  0.79779411  1  0.363273  0  -0.00151  -0.099917  0  3.971884  0
C  C58  1  0.49903217  0.14941578  0.85133009  1  0.409884  0  0.064146  0.087337  0  4.105685  0
C  C59  1  0.41797861  0.10359993  0.83202651  1  0.439985  0  0.004067  -0.09061  0  3.976324  0
C  C60  1  0.37726753  0.23674849  0.45702130  1  0.386746  0  -0.000249  -0.095967  0  3.973638  0
C  C61  1  0.42280252  0.31146037  0.46152460  1  0.460762  0  0.063713  0.08881  0  4.109774  0
C  C62  1  0.44414837  0.32076461  0.53204254  1  0.418919  0  0.000796  -0.09526  0  3.980619  0
C  C63  1  0.84836022  0.53307367  0.16392906  1  0.335216  0  -0.018534  -0.127308  0  3.995427  0
C  C64  1  0.87279531  0.56973556  0.10095687  1  0.420533  0  0.066599  0.101849  0  4.126111  0
C  C65  1  0.81710882  0.52961292  0.05090229  1  0.427766  0  -0.018551  -0.125065  0  3.986822  0
C  C66  1  0.49034247  0.29463828  0.29779339  1  0.363276  0  -0.001492  -0.099861  0  3.971782  0
C  C67  1  0.50096829  0.35058424  0.35132987  1  0.409906  0  0.064137  0.087319  0  4.105736  0
C  C68  1  0.58202112  0.39639890  0.33202576  1  0.440064  0  0.004083  -0.090565  0  3.976358  0
C  C69  1  0.62273362  0.26325092  0.95702096  1  0.386733  0  -0.000339  -0.096076  0  3.973842  0
C  C70  1  0.57719936  0.18853904  0.96152428  1  0.46074  0  0.063817  0.088974  0  4.109826  0
C  C71  1  0.55585293  0.17923547  0.03204234  1  0.418934  0  0.000743  -0.095346  0  3.980636  0
N  N72  1  0.43952072  0.36758939  0.40827416  1  -1.237056  0  -0.272237  -0.147149  0  3.752767  0
N  N73  1  0.56048045  0.13241003  0.90827437  1  -1.237066  0  -0.272223  -0.147105  0  3.752873  0
N  N74  1  0.93952000  0.63240926  0.09172586  1  -1.237071  0  -0.272228  -0.147122  0  3.752917  0
N  N75  1  0.06047995  0.86759004  0.59172613  1  -1.237059  0  -0.27225  -0.147142  0  3.752812  0
N  N76  1  0.73715170  0.97251841  0.91750842  1  -0.755464  0  -0.34276  -0.136539  0  3.78766  0
N  N77  1  0.71735812  0.97439013  0.84813055  1  -0.776311  0  -0.347118  -0.137995  0  3.801919  0
N  N78  1  0.88292389  0.87001535  0.72901264  1  -0.775822  0  -0.341845  -0.135955  0  3.780065  0
N  N79  1  0.93910234  0.80655213  0.75015797  1  -0.763625  0  -0.338946  -0.138155  0  3.758932  0
N  N80  1  0.91314196  0.74400540  0.93268958  1  -0.782116  0  -0.337488  -0.135146  0  3.771237  0
N  N81  1  0.87251843  0.79637673  0.97934881  1  -0.756299  0  -0.337627  -0.133547  0  3.773068  0
N  N82  1  0.26284740  0.52747965  0.41750932  1  -0.755513  0  -0.34275  -0.136541  0  3.787521  0
N  N83  1  0.28264174  0.52560854  0.34813145  1  -0.776181  0  -0.347129  -0.138001  0  3.801883  0
N  N84  1  0.11707601  0.62998334  0.22901252  1  -0.775848  0  -0.341833  -0.135976  0  3.780094  0
N  N85  1  0.06089829  0.69344656  0.25015785  1  -0.76358  0  -0.338953  -0.138184  0  3.758827  0
N  N86  1  0.08685860  0.75599325  0.43268945  1  -0.782086  0  -0.337483  -0.135276  0  3.771344  0
N  N87  1  0.12748285  0.70362192  0.47934920  1  -0.756324  0  -0.337622  -0.133489  0  3.773063  0
N  N88  1  0.23715148  0.02748092  0.58249153  1  -0.755455  0  -0.34275  -0.136532  0  3.787584  0
N  N89  1  0.21735788  0.02560922  0.65186992  1  -0.776305  0  -0.347135  -0.13802  0  3.801906  0
N  N90  1  0.38292494  0.12998268  0.77098780  1  -0.775844  0  -0.341827  -0.135997  0  3.780096  0
N  N91  1  0.43910186  0.19344645  0.74984246  1  -0.763577  0  -0.338939  -0.138129  0  3.758899  0
N  N92  1  0.41314220  0.25599320  0.56731137  1  -0.782124  0  -0.33745  -0.135193  0  3.77126  0
N  N93  1  0.37251802  0.20362190  0.52065163  1  -0.756325  0  -0.337639  -0.133515  0  3.772943  0
N  N94  1  0.76284834  0.47251914  0.08249074  1  -0.755491  0  -0.3428  -0.136609  0  3.787656  0
N  N95  1  0.78264119  0.47439083  0.15186860  1  -0.776252  0  -0.347114  -0.137968  0  3.801899  0
N  N96  1  0.61707628  0.37001557  0.27098704  1  -0.775824  0  -0.341879  -0.136021  0  3.78015  0
N  N97  1  0.56089791  0.30655240  0.24984224  1  -0.763612  0  -0.338946  -0.138172  0  3.758954  0
N  N98  1  0.58685836  0.24400687  0.06731063  1  -0.782117  0  -0.337476  -0.135255  0  3.771407  0
N  N99  1  0.62748256  0.29637817  0.02065140  1  -0.756325  0  -0.337612  -0.133495  0  3.77304  0
