# generated using pymatgen
data_Zn2H18C23N8O
_symmetry_space_group_name_H-M   'P 1'
_cell_length_a   12.84201353
_cell_length_b   12.83426083
_cell_length_c   14.87930906
_cell_angle_alpha   122.12668526
_cell_angle_beta   92.02773868
_cell_angle_gamma   110.08666189
_symmetry_Int_Tables_number   1
_chemical_formula_structural   Zn2H18C23N8O
_chemical_formula_sum   'Zn4 H36 C46 N16 O2'
_cell_volume   1875.81399245
_cell_formula_units_Z   2
loop_
 _symmetry_equiv_pos_site_id
 _symmetry_equiv_pos_as_xyz
  1  'x, y, z'
loop_
 _atom_site_type_symbol
 _atom_site_label
 _atom_site_symmetry_multiplicity
 _atom_site_fract_x
 _atom_site_fract_y
 _atom_site_fract_z
 _atom_site_occupancy
 _atom_site_pbe_bader_charge
 _atom_site_pbe_bader_spin_density
 _atom_site_pbe_cm5_charge
 _atom_site_pbe_ddec_charge
 _atom_site_pbe_ddec_spin_density
 _atom_site_pbe_ddec_sum_bond_order
 _atom_site_pbe_magmom
C  C0  1  0.51512178  0.30074273  0.10363739  1  0.390438  0  0.006432  -0.050644  0  3.947203  0
C  C1  1  0.61209313  0.02371501  0.15145711  1  -0.013407  0  -0.042894  0.009687  0  4.142827  0
C  C2  1  0.87184774  0.46024050  0.84858850  1  0.052335  0  -0.042804  0.009109  0  4.14071  0
C  C3  1  0.34163336  0.51975518  0.33515667  1  0.043273  0  -0.037371  -0.032281  0  4.104963  0
C  C4  1  0.18419176  0.00592147  0.66485329  1  -0.026641  0  -0.037774  -0.033768  0  4.103894  0
C  C5  1  0.43530329  0.62982498  0.53217454  1  0.026756  0  -0.01518  0.041666  0  3.917827  0
C  C6  1  0.09745762  0.90207728  0.46770726  1  -0.028426  0  -0.014794  0.041933  0  3.915424  0
C  C7  1  0.19707146  0.41161595  0.89634716  1  0.38598  0  0.006884  -0.051514  0  3.948851  0
C  C8  1  0.34663415  0.52457234  0.43534289  1  -0.001059  0  -0.015272  0.03196  0  4.066006  0
C  C9  1  0.08883423  0.91052658  0.56457773  1  0.020662  0  -0.015915  0.031132  0  4.064601  0
C  C10  1  0.27041951  0.42057767  0.44221241  1  -0.069914  0  -0.098143  -0.139436  0  4.013037  0
C  C11  1  0.97773020  0.82788735  0.55768599  1  -0.035217  0  -0.097987  -0.138039  0  4.011631  0
C  C12  1  0.28719716  0.41848668  0.53466287  1  -0.068102  0  -0.098868  -0.144795  0  4.001894  0
C  C13  1  0.88323485  0.75247650  0.46520504  1  -0.059816  0  -0.098893  -0.145244  0  4.003451  0
C  C14  1  0.38255899  0.52043188  0.62896889  1  0.054556  0  -0.006329  0.061968  0  4.047845  0
C  C15  1  0.89114551  0.75336496  0.37090260  1  0.017643  0  -0.004989  0.064006  0  4.046831  0
C  C16  1  0.45218926  0.62695739  0.62354711  1  -0.047596  0  -0.020899  -0.052893  0  3.898312  0
C  C17  1  0.00324894  0.82783775  0.37632459  1  -0.028069  0  -0.02186  -0.054038  0  3.899267  0
C  C18  1  0.56913438  0.74755687  0.67911007  1  0.473098  0  0.010253  0.147516  0  3.874172  0
C  C19  1  0.06845441  0.88923448  0.32092605  1  0.482567  0  0.009829  0.147973  0  3.87445  0
C  C20  1  0.79886880  0.67382235  0.17749017  1  0.425404  0  0.009309  -0.043134  0  3.938592  0
C  C21  1  0.49636564  0.62164147  0.82239239  1  0.421059  0  0.010412  -0.040202  0  3.936777  0
C  C22  1  0.54667948  0.75675570  0.57850049  1  -0.033636  0  -0.163335  -0.285724  0  3.893941  0
C  C23  1  0.79361722  0.69815459  0.28105509  1  -0.012777  0  -0.036068  -0.035854  0  4.07649  0
C  C24  1  0.17825510  0.96707330  0.42151096  1  -0.044258  0  -0.16301  -0.285555  0  3.890982  0
C  C25  1  0.08612348  0.54231093  0.89070316  1  -0.007033  0  -0.101626  -0.129613  0  4.059263  0
C  C26  1  0.65183103  0.19592650  0.10936020  1  -0.031415  0  -0.101581  -0.127429  0  4.059118  0
C  C27  1  0.97741156  0.44303024  0.84834229  1  -0.031868  0  -0.105066  -0.131845  0  4.069104  0
C  C28  1  0.59512101  0.12960005  0.15179008  1  0.030272  0  -0.105554  -0.134013  0  4.069902  0
C  C29  1  0.41688985  0.51270312  0.71888170  1  0.003859  0  -0.035997  -0.036672  0  4.074851  0
C  C30  1  0.75895484  0.35675336  0.80475499  1  0.416286  0  3.7e-05  -0.07284  0  4.007127  0
C  C31  1  0.55240370  0.95470067  0.19525445  1  0.374714  0  0.000495  -0.07312  0  4.009606  0
C  C32  1  0.39505776  0.62900731  0.32694398  1  0.373209  0  0.005517  -0.054439  0  3.993089  0
C  C33  1  0.30160925  0.06774289  0.67313646  1  0.407486  0  0.005753  -0.052987  0  3.989676  0
C  C34  1  0.85502231  0.58007769  0.90693723  1  0.38695  0  0.005194  -0.054605  0  3.973495  0
C  C35  1  0.67344439  0.94839210  0.09315579  1  0.403068  0  0.005658  -0.053188  0  3.975139  0
C  C36  1  0.29622044  0.40604713  0.22435209  1  0.428107  0  0.002277  -0.062798  0  4.009827  0
C  C37  1  0.18134825  0.07161461  0.77561740  1  0.428592  0  0.002728  -0.061053  0  4.007424  0
C  C38  1  0.67912718  0.67935593  0.28195019  1  0.411305  0  0.005795  -0.049405  0  3.963753  0
C  C39  1  0.39699965  0.39723099  0.71801923  1  0.424674  0  0.006469  -0.048285  0  3.965281  0
C  C40  1  0.63891420  0.29752063  0.00346647  1  0.399199  0  0.007805  -0.052158  0  3.947176  0
C  C41  1  0.29378162  0.63582561  0.99668379  1  0.317485  0  0.007047  -0.053727  0  3.946406  0
C  C42  1  0.60968954  0.26857046  0.08063066  1  -0.007019  0  -0.037658  0.013867  0  4.112372  0
C  C43  1  0.18766210  0.52919473  0.91948261  1  0.040142  0  -0.038101  0.014721  0  4.109495  0
C  C44  1  0.69254926  0.96957882  0.82993483  1  0.405646  0  -0.147789  -0.173254  0  3.991613  0
C  C45  1  0.13933009  0.86159789  0.17003743  1  0.42662  0  -0.147117  -0.17053  0  3.991443  0
H  H46  1  0.46537776  0.29719425  0.16026134  1  0.102215  0  0.11346  0.098602  0  1.018503  0
H  H47  1  0.03861912  0.95924682  0.31819907  1  0.037488  0  0.096146  0.035653  0  0.969259  0
H  H48  1  0.64173119  0.72034581  0.68204404  1  0.04317  0  0.096333  0.036253  0  0.970136  0
H  H49  1  0.53596261  0.84922009  0.60366039  1  0.048265  0  0.093091  0.108358  0  0.995287  0
H  H50  1  0.24529584  0.93083255  0.39626188  1  0.037592  0  0.093097  0.108488  0  0.993283  0
H  H51  1  0.60989084  0.74689877  0.52993667  1  0.008478  0  0.087169  0.097709  0  1.019746  0
H  H52  1  0.21735901  0.07896700  0.47022545  1  0.024128  0  0.086732  0.097044  0  1.019159  0
H  H53  1  0.13700215  0.30510690  0.83960207  1  0.090196  0  0.113372  0.098917  0  1.019849  0
H  H54  1  0.09872518  0.64402593  0.91637123  1  0.031067  0  0.096499  0.09378  0  1.009737  0
H  H55  1  0.72768353  0.18272878  0.08351492  1  0.025355  0  0.096366  0.093229  0  1.010033  0
H  H56  1  0.96606523  0.34121504  0.82143880  1  0.028677  0  0.095164  0.094766  0  1.002431  0
H  H57  1  0.52038349  0.14530383  0.17881192  1  0.024552  0  0.094871  0.094461  0  1.002304  0
H  H58  1  0.87089519  0.67449369  0.14128908  1  0.112378  0  0.115173  0.106854  0  1.03918  0
H  H59  1  0.53348514  0.72995159  0.85852416  1  0.089045  0  0.114359  0.105008  0  1.040279  0
H  H60  1  0.73039531  0.24703908  0.75393014  1  0.031445  0  0.113632  0.100857  0  1.001845  0
H  H61  1  0.49353840  0.97702204  0.24596728  1  0.082216  0  0.113853  0.101354  0  1.00317  0
H  H62  1  0.44054702  0.73708479  0.39228955  1  0.075632  0  0.116357  0.10421  0  1.003252  0
H  H63  1  0.34432253  0.04775176  0.60785309  1  0.062903  0  0.115924  0.103189  0  1.003072  0
H  H64  1  0.91841979  0.68566934  0.95660381  1  0.086416  0  0.114179  0.100019  0  1.006492  0
H  H65  1  0.72937246  0.96214447  0.04356356  1  0.093327  0  0.114533  0.099937  0  1.008719  0
H  H66  1  0.24896565  0.29898772  0.19066118  1  0.031388  0  0.115125  0.101207  0  1.003054  0
H  H67  1  0.10802659  0.05796582  0.80921219  1  0.066148  0  0.114465  0.10013  0  1.002245  0
H  H68  1  0.63597998  0.68824836  0.34546317  1  0.088425  0  0.110062  0.09355  0  1.037969  0
H  H69  1  0.22505453  0.33359757  0.53271723  1  0.04376  0  0.095661  0.09841  0  1.006584  0
H  H70  1  0.34217090  0.29051410  0.65452470  1  0.075217  0  0.110223  0.093941  0  1.038866  0
H  H71  1  0.70745030  0.28899816  0.96315763  1  0.093947  0  0.113563  0.100443  0  1.016787  0
H  H72  1  0.32545748  0.74475888  0.03700309  1  0.130001  0  0.114029  0.101132  0  1.017139  0
H  H73  1  0.19564240  0.33743769  0.37189939  1  0.057601  0  0.094598  0.094362  0  1.00909  0
H  H74  1  0.96471164  0.82361675  0.62801320  1  0.03046  0  0.094492  0.093876  0  1.008736  0
H  H75  1  0.80008587  0.69266101  0.46711302  1  0.058776  0  0.09542  0.097637  0  1.008488  0
H  H76  1  0.71229678  0.00385196  0.77577464  1  0.024823  0  0.088124  0.081054  0  1.00085  0
H  H77  1  0.75996574  0.93968310  0.84272306  1  0.018328  0  0.083987  0.068853  0  1.007785  0
H  H78  1  0.69284979  0.05348685  0.90925695  1  0.068358  0  0.09904  0.102739  0  1.033336  0
H  H79  1  0.22785269  0.93535860  0.22411029  1  0.02386  0  0.087876  0.080446  0  1.002186  0
H  H80  1  0.09676299  0.91642750  0.15739431  1  0.002383  0  0.083724  0.067928  0  1.008048  0
H  H81  1  0.14354835  0.78234443  0.09062963  1  0.0676  0  0.098811  0.101878  0  1.033891  0
N  N82  1  0.48957258  0.34148039  0.04261945  1  -0.780635  0  -0.283027  -0.17792  0  3.654922  0
N  N83  1  0.57585248  0.84787067  0.16548190  1  -0.783892  0  -0.27465  -0.180054  0  3.54245  0
N  N84  1  0.68205742  0.41016042  0.83457621  1  -0.771864  0  -0.275775  -0.182192  0  3.540747  0
N  N85  1  0.38279620  0.58392955  0.22053055  1  -0.775434  0  -0.272981  -0.179998  0  3.531848  0
N  N86  1  0.36293654  0.16231021  0.77954958  1  -0.789627  0  -0.271095  -0.177062  0  3.529881  0
N  N87  1  0.74229596  0.54979211  0.89868540  1  -0.803709  0  -0.268931  -0.177622  0  3.531016  0
N  N88  1  0.65129492  0.84385593  0.10142453  1  -0.795581  0  -0.271117  -0.180317  0  3.533065  0
N  N89  1  0.29894250  0.44728169  0.95730335  1  -0.804945  0  -0.283106  -0.177604  0  3.653687  0
N  N90  1  0.32140584  0.44457760  0.15638362  1  -0.794689  0  -0.270414  -0.17555  0  3.531344  0
N  N91  1  0.28781186  0.16511465  0.84362494  1  -0.778083  0  -0.27187  -0.178405  0  3.533101  0
N  N92  1  0.62255688  0.64915721  0.18726144  1  -0.771295  0  -0.281845  -0.179708  0  3.625358  0
N  N93  1  0.46165073  0.43540389  0.81266413  1  -0.794458  0  -0.281452  -0.180253  0  3.627397  0
N  N94  1  0.56495625  0.33900537  0.98052295  1  -0.789161  0  -0.281625  -0.179716  0  3.627623  0
N  N95  1  0.35842767  0.58493635  0.01952123  1  -0.760106  0  -0.282227  -0.18035  0  3.626424  0
N  N96  1  0.69609291  0.64526997  0.12311509  1  -0.800103  0  -0.2821  -0.180174  0  3.635519  0
N  N97  1  0.52217506  0.57319081  0.87674094  1  -0.790266  0  -0.283031  -0.180387  0  3.63588  0
O  O98  1  0.58099252  0.86055079  0.78503122  1  -1.053318  0  -0.230717  -0.204203  0  2.500325  0
O  O99  1  0.07523894  0.79500863  0.21495438  1  -1.052374  0  -0.230428  -0.204424  0  2.501742  0
Zn  Zn100  1  0.34070109  0.34088373  0.00000885  1  1.186014  0  0.743091  0.603763  0  2.471594  0
Zn  Zn101  1  0.66036514  0.66044485  0.99996569  1  1.18709  0  0.739791  0.609529  0  2.442035  0
Zn  Zn102  1  0.51864492  0.32896748  0.84535528  1  1.188604  0  0.739235  0.607706  0  2.447224  0
Zn  Zn103  1  0.48358733  0.67387976  0.15480779  1  1.187077  0  0.739743  0.60821  0  2.447182  0
