# generated using pymatgen
data_NiH8C16N6(ClO2)2
_symmetry_space_group_name_H-M   'P 1'
_cell_length_a   4.54397788
_cell_length_b   5.55956078
_cell_length_c   17.37905563
_cell_angle_alpha   93.00116614
_cell_angle_beta   110.92309641
_cell_angle_gamma   94.91764737
_symmetry_Int_Tables_number   1
_chemical_formula_structural   NiH8C16N6(ClO2)2
_chemical_formula_sum   'Ni1 H8 C16 N6 Cl2 O4'
_cell_volume   406.95219047
_cell_formula_units_Z   1
loop_
 _symmetry_equiv_pos_site_id
 _symmetry_equiv_pos_as_xyz
  1  'x, y, z'
loop_
 _atom_site_type_symbol
 _atom_site_label
 _atom_site_symmetry_multiplicity
 _atom_site_fract_x
 _atom_site_fract_y
 _atom_site_fract_z
 _atom_site_occupancy
 _atom_site_hle17_bader_spin_density
 _atom_site_hle17_ddec_charge
 _atom_site_hle17_ddec_spin_density
 _atom_site_hle17_ddec_sum_bond_order
 _atom_site_hle17_magmom
 _atom_site_hse06_10hf_bader_spin_density
 _atom_site_hse06_10hf_ddec_charge
 _atom_site_hse06_10hf_ddec_spin_density
 _atom_site_hse06_10hf_ddec_sum_bond_order
 _atom_site_hse06_10hf_magmom
 _atom_site_hse06_bader_spin_density
 _atom_site_hse06_ddec_charge
 _atom_site_hse06_ddec_spin_density
 _atom_site_hse06_ddec_sum_bond_order
 _atom_site_hse06_magmom
 _atom_site_pbe_bader_spin_density
 _atom_site_pbe_cm5_charge
 _atom_site_pbe_ddec_charge
 _atom_site_pbe_ddec_spin_density
 _atom_site_pbe_ddec_sum_bond_order
 _atom_site_pbe_magmom
Ni  Ni0  1  0.99999787  0.00000066  0.00000043  1  0  0.461424  0  2.415366  0  0  0.42129  0  2.918009  0  0  0.500164  0  2.83485  0  0  0.463159  0.380529  0  2.969484  0
H  H1  1  0.37036972  0.52625033  0.24559660  1  0  0.139781  0  0.956162  0  0  0.143565  0  1.027539  0  0  0.147289  0  1.023062  0  0  0.12878  0.1412  0  1.030349  0
H  H2  1  0.62963238  0.47375142  0.75440369  1  0  0.139767  0  0.956188  0  0  0.14355  0  1.02757  0  0  0.147273  0  1.023095  0  0  0.128775  0.141183  0  1.030377  0
H  H3  1  0.86544143  0.15288332  0.16033440  1  0  0.127992  0  0.9882  0  0  0.130448  0  1.061354  0  0  0.134166  0  1.057409  0  0  0.113558  0.12761  0  1.064301  0
H  H4  1  0.13455592  0.84711657  0.83966575  1  0  0.127981  0  0.988221  0  0  0.130438  0  1.061379  0  0  0.134157  0  1.057433  0  0  0.113548  0.1276  0  1.064326  0
H  H5  1  0.29662320  0.59197046  0.09736558  1  0  0.284986  0  0.939862  0  0  0.26195  0  1.013665  0  0  0.271258  0  1.005606  0  0  0.294135  0.255027  0  1.019773  0
H  H6  1  0.70337433  0.40803124  0.90263458  1  0  0.284962  0  0.939873  0  0  0.261925  0  1.013672  0  0  0.271233  0  1.005613  0  0  0.294128  0.255  0  1.019781  0
H  H7  1  0.31742410  0.64725857  0.55133830  1  0  0.134993  0  0.960176  0  0  0.137385  0  1.031108  0  0  0.142477  0  1.026566  0  0  0.114703  0.133665  0  1.034447  0
H  H8  1  0.68258071  0.35274155  0.44866267  1  0  0.134979  0  0.960161  0  0  0.137357  0  1.031099  0  0  0.142448  0  1.026558  0  0  0.114692  0.133637  0  1.034437  0
C  C9  1  0.18001017  0.79787044  0.52939562  1  0  -0.044824  0  3.627991  0  0  -0.079682  0  3.884438  0  0  -0.078217  0  3.899173  0  0  -0.059627  -0.08023  0  3.874457  0
C  C10  1  0.81999693  0.20212971  0.47060542  1  0  -0.044887  0  3.628017  0  0  -0.079674  0  3.884441  0  0  -0.078208  0  3.89918  0  0  -0.059617  -0.080222  0  3.874458  0
C  C11  1  0.10867716  0.86815798  0.44945309  1  0  -0.061587  0  3.77768  0  0  -0.053496  0  4.022169  0  0  -0.058245  0  4.043172  0  0  -0.002254  -0.050904  0  4.008315  0
C  C12  1  0.89132993  0.13184216  0.55054795  1  0  -0.061521  0  3.777686  0  0  -0.053478  0  4.02219  0  0  -0.058232  0  4.043198  0  0  -0.002244  -0.050886  0  4.008337  0
C  C13  1  0.06472030  0.93700129  0.57910666  1  0  -0.050942  0  3.754478  0  0  -0.044318  0  4.000317  0  0  -0.047428  0  4.019389  0  0  0.001095  -0.04271  0  3.987893  0
C  C14  1  0.93528679  0.06299886  0.42089438  1  0  -0.050886  0  3.754493  0  0  -0.044337  0  4.000365  0  0  -0.047447  0  4.019441  0  0  0.001108  -0.042727  0  3.987942  0
C  C15  1  0.19800462  0.76356410  0.38168020  1  0  0.506523  0  3.798082  0  0  0.458028  0  4.088141  0  0  0.486205  0  4.088309  0  0  0.252877  0.438947  0  4.0879  0
C  C16  1  0.80199958  0.23643587  0.61832015  1  0  0.506499  0  3.798153  0  0  0.457991  0  4.088238  0  0  0.486171  0  4.088407  0  0  0.252849  0.438904  0  4.088007  0
C  C17  1  0.09535576  0.91434421  0.66656360  1  0  0.507337  0  3.771885  0  0  0.458473  0  4.063959  0  0  0.485993  0  4.06356  0  0  0.254392  0.439775  0  4.064504  0
C  C18  1  0.90464677  0.08565589  0.33343730  1  0  0.507379  0  3.771779  0  0  0.458543  0  4.063852  0  0  0.486057  0  4.063461  0  0  0.254418  0.439845  0  4.064399  0
C  C19  1  0.10491375  0.85875716  0.23745850  1  0  0.113832  0  3.805537  0  0  0.106717  0  4.071171  0  0  0.105911  0  4.094565  0  0  0.077802  0.10791  0  4.054212  0
C  C20  1  0.89508649  0.14124292  0.76254233  1  0  0.113816  0  3.805597  0  0  0.106739  0  4.071178  0  0  0.105944  0  4.094564  0  0  0.077793  0.107933  0  4.054216  0
C  C21  1  0.25439707  0.67409346  0.21383056  1  0  -0.030899  0  3.61672  0  0  -0.088574  0  3.889774  0  0  -0.082275  0  3.903859  0  0  0.023023  -0.091994  0  3.879148  0
C  C22  1  0.74560256  0.32590646  0.78616966  1  0  -0.030939  0  3.616838  0  0  -0.088635  0  3.889879  0  0  -0.08234  0  3.903965  0  0  0.023026  -0.09205  0  3.879248  0
C  C23  1  0.00006280  0.99861819  0.16919986  1  0  -0.029021  0  3.629507  0  0  -0.08213  0  3.907271  0  0  -0.074017  0  3.92075  0  0  0.022393  -0.087146  0  3.89882  0
C  C24  1  0.99993744  0.00138188  0.83080097  1  0  -0.029001  0  3.629531  0  0  -0.082139  0  3.907292  0  0  -0.074028  0  3.920771  0  0  0.02238  -0.087156  0  3.898841  0
N  N25  1  0.06969666  0.90002732  0.31373655  1  0  -0.281799  0  3.437176  0  0  -0.206689  0  3.663389  0  0  -0.230144  0  3.683049  0  0  -0.223403  -0.191122  0  3.649595  0
N  N26  1  0.93030525  0.09997263  0.68626374  1  0  -0.281793  0  3.437279  0  0  -0.206679  0  3.66348  0  0  -0.230142  0  3.683135  0  0  -0.223364  -0.19111  0  3.649686  0
N  N27  1  0.23486411  0.70972363  0.13607288  1  0  -0.129145  0  3.475229  0  0  -0.067972  0  3.702637  0  0  -0.079226  0  3.723103  0  0  -0.266654  -0.061003  0  3.690434  0
N  N28  1  0.76513262  0.29027611  0.86392666  1  0  -0.129031  0  3.475236  0  0  -0.067841  0  3.702612  0  0  -0.079093  0  3.723081  0  0  -0.266647  -0.060872  0  3.690407  0
N  N29  1  0.08132043  0.90282503  0.10826911  1  0  -0.10775  0  3.330267  0  0  -0.061325  0  3.622945  0  0  -0.084048  0  3.641237  0  0  -0.253521  -0.049898  0  3.613642  0
N  N30  1  0.91867710  0.09717667  0.89173104  1  0  -0.107773  0  3.330261  0  0  -0.061334  0  3.622915  0  0  -0.084063  0  3.641214  0  0  -0.25346  -0.049906  0  3.613608  0
Cl  Cl31  1  0.59667738  0.72075185  0.95357301  1  0  -0.411538  0  1.180121  0  0  -0.408112  0  1.505986  0  0  -0.439168  0  1.476498  0  0  -0.224947  -0.386894  0  1.525495  0
Cl  Cl32  1  0.40331997  0.27924805  0.04642714  1  0  -0.411553  0  1.180105  0  0  -0.40812  0  1.505957  0  0  -0.43918  0  1.47648  0  0  -0.224957  -0.386901  0  1.525466  0
O  O33  1  0.35650202  0.59540302  0.38264685  1  0  -0.467651  0  1.966402  0  0  -0.424093  0  2.185655  0  0  -0.443527  0  2.1817  0  0  -0.247307  -0.411266  0  2.188456  0
O  O34  1  0.64349971  0.40459512  0.61735343  1  0  -0.467632  0  1.966434  0  0  -0.424064  0  2.185693  0  0  -0.443501  0  2.181739  0  0  -0.247283  -0.411235  0  2.188497  0
O  O35  1  0.23169145  0.76964788  0.71350235  1  0  -0.431035  0  1.936853  0  0  -0.390845  0  2.148894  0  0  -0.407102  0  2.144645  0  0  -0.23669  -0.381259  0  2.152283  0
O  O36  1  0.76830861  0.23035039  0.28649848  1  0  -0.431045  0  1.936785  0  0  -0.39086  0  2.148815  0  0  -0.407114  0  2.144569  0  0  -0.236661  -0.381273  0  2.152203  0
