# generated using pymatgen
data_CdH14C12N4O5
_symmetry_space_group_name_H-M   'P 1'
_cell_length_a   12.04209636
_cell_length_b   16.13784869
_cell_length_c   16.13803465
_cell_angle_alpha   114.05434279
_cell_angle_beta   104.38953327
_cell_angle_gamma   104.38882917
_symmetry_Int_Tables_number   1
_chemical_formula_structural   CdH14C12N4O5
_chemical_formula_sum   'Cd6 H84 C72 N24 O30'
_cell_volume   2547.83865096
_cell_formula_units_Z   6
loop_
 _symmetry_equiv_pos_site_id
 _symmetry_equiv_pos_as_xyz
  1  'x, y, z'
loop_
 _atom_site_type_symbol
 _atom_site_label
 _atom_site_symmetry_multiplicity
 _atom_site_fract_x
 _atom_site_fract_y
 _atom_site_fract_z
 _atom_site_occupancy
 _atom_site_pbe_bader_charge
 _atom_site_pbe_bader_spin_density
 _atom_site_pbe_cm5_charge
 _atom_site_pbe_ddec_charge
 _atom_site_pbe_ddec_spin_density
 _atom_site_pbe_ddec_sum_bond_order
 _atom_site_pbe_magmom
Cd  Cd0  1  0.75000156  0.25365968  0.74633311  1  1.281082  0  0.778084  0.944177  0  2.061602  0
Cd  Cd1  1  0.49645492  0.49286525  0.74639282  1  1.278327  0  0.778229  0.943904  0  2.062894  0
Cd  Cd2  1  0.00354397  0.25360794  0.50713718  1  1.278464  0  0.778205  0.943865  0  2.062947  0
Cd  Cd3  1  0.24999664  0.74633554  0.25366557  1  1.281137  0  0.778087  0.944161  0  2.061639  0
Cd  Cd4  1  0.50354772  0.50713884  0.25361154  1  1.27834  0  0.77824  0.943908  0  2.062903  0
Cd  Cd5  1  0.99645805  0.74639319  0.49286524  1  1.278546  0  0.778195  0.943831  0  2.063025  0
H  H6  1  0.72443335  0.39619999  0.67705711  1  0.660705  0  0.280323  0.382293  0  0.964495  0
H  H7  1  0.32842546  0.28101037  0.60381911  1  0.642182  0  0.279886  0.381467  0  0.965744  0
H  H8  1  0.04725679  0.32293615  0.71904563  1  0.644712  0  0.279546  0.380824  0  0.96633  0
H  H9  1  0.45273850  0.28095421  0.67706286  1  0.64467  0  0.279494  0.380672  0  0.966532  0
H  H10  1  0.77556573  0.32293985  0.60379742  1  0.660679  0  0.280275  0.38221  0  0.964614  0
H  H11  1  0.17156846  0.39617939  0.71898940  1  0.642208  0  0.279839  0.381359  0  0.965873  0
H  H12  1  0.50062715  0.14332645  0.54434132  1  0.12736  0  0.113721  0.105262  0  1.041666  0
H  H13  1  0.48609990  0.04675878  0.35011536  1  0.143279  0  0.127446  0.133852  0  1.002738  0
H  H14  1  0.68323213  0.86928341  0.35054458  1  0.025297  0  0.098026  0.108313  0  1.014218  0
H  H15  1  0.65769312  0.85311927  0.23162402  1  0.083975  0  0.107011  0.126947  0  0.974727  0
H  H16  1  0.64763261  0.01829252  0.28413718  1  0.085116  0  0.121095  0.113071  0  0.951349  0
H  H17  1  0.79038911  0.02917184  0.36103793  1  0.057999  0  0.114058  0.095724  0  1.003391  0
H  H18  1  0.35760986  0.40127897  0.85663351  1  0.129763  0  0.113304  0.105186  0  1.042913  0
H  H19  1  0.43970088  0.30389250  0.95339683  1  0.131617  0  0.12749  0.133747  0  1.002596  0
H  H20  1  0.81449465  0.48147450  0.13104910  1  0.038781  0  0.098165  0.108544  0  1.015429  0
H  H21  1  0.80468931  0.37836728  0.14662348  1  0.060076  0  0.106887  0.127022  0  0.973938  0
H  H22  1  0.62948395  0.26626338  0.98163219  1  0.080167  0  0.121051  0.112887  0  0.950782  0
H  H23  1  0.76138457  0.33221527  0.97071102  1  0.101592  0  0.113772  0.095869  0  1.002423  0
H  H24  1  0.95619415  0.45579323  0.59875527  1  0.126365  0  0.113528  0.105321  0  1.041672  0
H  H25  1  0.13596588  0.64988183  0.69633557  1  0.144206  0  0.127717  0.134372  0  1.001979  0
H  H26  1  0.33268207  0.64933020  0.51874036  1  0.046888  0  0.098074  0.10839  0  1.014668  0
H  H27  1  0.42613576  0.76816769  0.62163164  1  0.051929  0  0.106868  0.126289  0  0.974396  0
H  H28  1  0.36324208  0.71559847  0.73411108  1  0.112299  0  0.120974  0.112318  0  0.951086  0
H  H29  1  0.42933119  0.63877478  0.66817310  1  0.093861  0  0.114069  0.095482  0  1.004445  0
H  H30  1  0.54381284  0.40124796  0.54421203  1  0.126978  0  0.113528  0.105312  0  1.041648  0
H  H31  1  0.36404315  0.30367125  0.35012240  1  0.148172  0  0.127737  0.13438  0  1.00192  0
H  H32  1  0.16731959  0.48125944  0.35066587  1  0.047173  0  0.097979  0.108258  0  1.014803  0
H  H33  1  0.07386481  0.37836470  0.23183097  1  0.052236  0  0.106894  0.126398  0  0.974405  0
H  H34  1  0.13676002  0.26588765  0.28440581  1  0.112317  0  0.120964  0.112311  0  0.951089  0
H  H35  1  0.07067357  0.33183196  0.36122981  1  0.09404  0  0.11408  0.095516  0  1.00428  0
H  H36  1  0.99937006  0.45565631  0.85666567  1  0.127432  0  0.113681  0.105221  0  1.041625  0
H  H37  1  0.01390106  0.64988742  0.95324928  1  0.143265  0  0.127466  0.133837  0  1.002773  0
H  H38  1  0.81676893  0.64945631  0.13071966  1  0.025332  0  0.098046  0.108313  0  1.014205  0
H  H39  1  0.84230464  0.76837597  0.14688022  1  0.083959  0  0.107006  0.126914  0  0.974762  0
H  H40  1  0.85236676  0.71586233  0.98171098  1  0.084488  0  0.121087  0.113048  0  0.951405  0
H  H41  1  0.70961281  0.63896362  0.97083245  1  0.058025  0  0.114093  0.09577  0  1.003389  0
H  H42  1  0.14239214  0.14336382  0.59872185  1  0.129696  0  0.113304  0.105185  0  1.042812  0
H  H43  1  0.06029948  0.04660097  0.69610697  1  0.13159  0  0.127501  0.133767  0  1.002556  0
H  H44  1  0.68550565  0.86894826  0.51852151  1  0.038722  0  0.098199  0.108613  0  1.015554  0
H  H45  1  0.69530626  0.85337495  0.62162840  1  0.060078  0  0.106816  0.126899  0  0.974029  0
H  H46  1  0.87051795  0.01836426  0.73373173  1  0.080187  0  0.121071  0.112907  0  0.950797  0
H  H47  1  0.73861766  0.02928973  0.66778221  1  0.101624  0  0.113756  0.095808  0  1.002467  0
H  H48  1  0.49936982  0.85666286  0.45564667  1  0.127305  0  0.113678  0.105264  0  1.041652  0
H  H49  1  0.51391645  0.95324530  0.64988039  1  0.143765  0  0.127435  0.133849  0  1.002771  0
H  H50  1  0.31677356  0.13071994  0.64945384  1  0.024972  0  0.098067  0.108322  0  1.014174  0
H  H51  1  0.34231024  0.14688113  0.76837215  1  0.084108  0  0.107061  0.126983  0  0.974741  0
H  H52  1  0.35237530  0.98171009  0.71585887  1  0.083894  0  0.121098  0.113085  0  0.951388  0
H  H53  1  0.20961927  0.97083003  0.63895792  1  0.058196  0  0.114082  0.095856  0  1.00341  0
H  H54  1  0.64238084  0.59870295  0.14335279  1  0.129697  0  0.113329  0.105193  0  1.042733  0
H  H55  1  0.56029634  0.69609903  0.04659707  1  0.131658  0  0.127512  0.133722  0  1.002595  0
H  H56  1  0.18550382  0.51852811  0.86895388  1  0.038903  0  0.098189  0.108547  0  1.015441  0
H  H57  1  0.19531039  0.62163606  0.85337941  1  0.059992  0  0.106857  0.126904  0  0.973932  0
H  H58  1  0.37051979  0.73373775  0.01837117  1  0.080126  0  0.12106  0.112889  0  0.950816  0
H  H59  1  0.23861684  0.66778808  0.02929157  1  0.101529  0  0.1138  0.09585  0  1.002492  0
H  H60  1  0.04380174  0.54420421  0.40124265  1  0.126449  0  0.113545  0.10536  0  1.041628  0
H  H61  1  0.86402952  0.35011634  0.30366627  1  0.14381  0  0.127711  0.134326  0  1.001971  0
H  H62  1  0.66731282  0.35066354  0.48126083  1  0.047102  0  0.09801  0.108304  0  1.014757  0
H  H63  1  0.57385963  0.23183049  0.37836587  1  0.051888  0  0.106875  0.126326  0  0.974401  0
H  H64  1  0.63675443  0.28440192  0.26589188  1  0.112385  0  0.120966  0.11228  0  0.951154  0
H  H65  1  0.57066643  0.36122783  0.33183221  1  0.093978  0  0.114051  0.095444  0  1.004415  0
H  H66  1  0.45618845  0.59875687  0.45579300  1  0.126757  0  0.11351  0.105327  0  1.041687  0
H  H67  1  0.63595924  0.69633063  0.64988101  1  0.148095  0  0.127722  0.134331  0  1.001989  0
H  H68  1  0.83268243  0.51874169  0.64933221  1  0.046924  0  0.097995  0.108278  0  1.014787  0
H  H69  1  0.92613819  0.62163495  0.76816793  1  0.051892  0  0.106891  0.126381  0  0.974382  0
H  H70  1  0.86324114  0.73411348  0.71559583  1  0.112301  0  0.120969  0.112329  0  0.951083  0
H  H71  1  0.92932661  0.66817065  0.63877101  1  0.094017  0  0.114092  0.095521  0  1.004407  0
H  H72  1  0.00062496  0.54434113  0.14333705  1  0.127277  0  0.113659  0.10519  0  1.041608  0
H  H73  1  0.98609728  0.35011150  0.04675342  1  0.143151  0  0.127479  0.133901  0  1.002743  0
H  H74  1  0.18323505  0.35054704  0.86928465  1  0.025315  0  0.098028  0.108313  0  1.014196  0
H  H75  1  0.15769763  0.23162738  0.85312315  1  0.084103  0  0.107015  0.126963  0  0.974739  0
H  H76  1  0.14763600  0.28414028  0.01829280  1  0.083141  0  0.121101  0.113059  0  0.951373  0
H  H77  1  0.29038970  0.36104194  0.02917249  1  0.058014  0  0.114032  0.095745  0  1.003379  0
H  H78  1  0.85761232  0.85663362  0.40127704  1  0.129773  0  0.113308  0.105197  0  1.042834  0
H  H79  1  0.93970437  0.95339868  0.30389209  1  0.131622  0  0.127498  0.133764  0  1.002559  0
H  H80  1  0.31449306  0.13105139  0.48147845  1  0.038743  0  0.098151  0.108528  0  1.015469  0
H  H81  1  0.30469270  0.14662692  0.37837314  1  0.060162  0  0.106859  0.12695  0  0.974017  0
H  H82  1  0.12948517  0.98163392  0.26626721  1  0.080132  0  0.121047  0.112929  0  0.950818  0
H  H83  1  0.26138816  0.97071214  0.33221874  1  0.101567  0  0.113803  0.0959  0  1.002464  0
H  H84  1  0.27556633  0.60379819  0.32294305  1  0.660704  0  0.280313  0.382262  0  0.964535  0
H  H85  1  0.67156909  0.71899298  0.39618097  1  0.642244  0  0.279811  0.381328  0  0.965928  0
H  H86  1  0.95274009  0.67706498  0.28095645  1  0.644661  0  0.279491  0.380673  0  0.966521  0
H  H87  1  0.54725667  0.71905210  0.32293791  1  0.644516  0  0.279521  0.380761  0  0.966389  0
H  H88  1  0.22443150  0.67705685  0.39620106  1  0.660684  0  0.280308  0.382266  0  0.964545  0
H  H89  1  0.82842842  0.60382175  0.28101206  1  0.642221  0  0.279868  0.381428  0  0.965786  0
C  C90  1  0.73023505  0.08351568  0.52277944  1  0.990607  0  0.214655  0.179575  0  4.017484  0
C  C91  1  0.56305938  0.11408849  0.51592372  1  0.423517  0  -0.005059  -0.017384  0  4.030577  0
C  C92  1  0.55634151  0.07014291  0.42090199  1  0.295713  0  0.003669  -0.097603  0  3.918404  0
C  C93  1  0.63673729  0.88790868  0.29700771  1  -0.056728  0  -0.161909  -0.313596  0  3.918164  0
C  C94  1  0.49560311  0.84094139  0.26571501  1  1.567331  0  0.192956  0.608013  0  4.18623  0
C  C95  1  0.68900324  0.99953293  0.33911095  1  0.335494  0  -0.049765  -0.042717  0  3.870479  0
C  C96  1  0.64703186  0.43971872  0.91653868  1  0.992498  0  0.213509  0.178096  0  4.018367  0
C  C97  1  0.44927522  0.40216966  0.88590572  1  0.444007  0  -0.00455  -0.017925  0  4.030704  0
C  C98  1  0.48658006  0.35127599  0.93000304  1  0.28397  0  0.004127  -0.096646  0  3.917608  0
C  C99  1  0.74918079  0.40930246  0.11216587  1  -0.041072  0  -0.16187  -0.31386  0  3.917553  0
C  C100  1  0.65498888  0.42489500  0.15915754  1  1.581784  0  0.192813  0.608388  0  4.186587  0
C  C101  1  0.68973823  0.33999583  0.00047671  1  0.303566  0  -0.049186  -0.042192  0  3.867097  0
C  C102  1  0.20742985  0.47695511  0.56066714  1  1.012805  0  0.214932  0.179157  0  4.016741  0
C  C103  1  0.04707085  0.48404857  0.59798725  1  0.39127  0  -0.004471  -0.018  0  4.032313  0
C  C104  1  0.13538338  0.57901500  0.64901134  1  0.330213  0  0.00323  -0.098135  0  3.919484  0
C  C105  1  0.33974781  0.70284328  0.59093941  1  -0.041498  0  -0.162151  -0.312335  0  3.916956  0
C  C106  1  0.23002571  0.73429185  0.57533936  1  1.559509  0  0.192025  0.606142  0  4.189618  0
C  C107  1  0.34981881  0.66066253  0.66038345  1  0.279752  0  -0.049524  -0.041635  0  3.868475  0
C  C108  1  0.29257449  0.43933520  0.52304739  1  0.972651  0  0.214946  0.179188  0  4.01649  0
C  C109  1  0.45293567  0.40201670  0.51595667  1  0.390154  0  -0.004439  -0.017814  0  4.032246  0
C  C110  1  0.36462425  0.35099402  0.42099050  1  0.326278  0  0.003204  -0.09822  0  3.919487  0
C  C111  1  0.16025097  0.40905737  0.29715518  1  -0.042017  0  -0.162063  -0.312395  0  3.917088  0
C  C112  1  0.26997539  0.42465481  0.26570542  1  1.559737  0  0.192123  0.606272  0  4.189422  0
C  C113  1  0.15018745  0.33961970  0.33933899  1  0.279532  0  -0.04945  -0.041505  0  3.86835  0
C  C114  1  0.76976615  0.47721749  0.91648106  1  0.990705  0  0.214604  0.179541  0  4.017425  0
C  C115  1  0.93694026  0.48407660  0.88590816  1  0.423404  0  -0.005052  -0.017337  0  4.030614  0
C  C116  1  0.94366086  0.57909600  0.92986033  1  0.295923  0  0.003669  -0.097574  0  3.918533  0
C  C117  1  0.86326268  0.70299146  0.11209321  1  -0.057139  0  -0.161966  -0.313583  0  3.918224  0
C  C118  1  0.00439545  0.73428717  0.15906413  1  1.56764  0  0.193084  0.608175  0  4.186157  0
C  C119  1  0.81099811  0.66088848  0.00046935  1  0.33615  0  -0.049749  -0.042764  0  3.870604  0
C  C120  1  0.85297005  0.08345919  0.56027725  1  0.992332  0  0.213555  0.17814  0  4.018492  0
C  C121  1  0.05072422  0.11409099  0.59782878  1  0.444265  0  -0.004516  -0.017802  0  4.030732  0
C  C122  1  0.01341990  0.06999297  0.64872035  1  0.283739  0  0.004071  -0.096718  0  3.917682  0
C  C123  1  0.75081861  0.88783280  0.59069532  1  -0.04103  0  -0.16187  -0.31386  0  3.917805  0
C  C124  1  0.84501080  0.84083932  0.57510444  1  1.581814  0  0.192716  0.608252  0  4.186902  0
C  C125  1  0.81026049  0.99952022  0.65999960  1  0.303481  0  -0.049129  -0.042016  0  3.86711  0
C  C126  1  0.26977089  0.91648471  0.47721845  1  0.9906  0  0.214514  0.179439  0  4.017631  0
C  C127  1  0.43694214  0.88590821  0.48406812  1  0.423763  0  -0.005  -0.017397  0  4.03055  0
C  C128  1  0.44366713  0.92986118  0.57909171  1  0.29519  0  0.003618  -0.097703  0  3.918625  0
C  C129  1  0.36326718  0.11209393  0.70298957  1  -0.056704  0  -0.162007  -0.313648  0  3.91821  0
C  C130  1  0.50440113  0.15906417  0.73428342  1  1.567762  0  0.193133  0.60829  0  4.185942  0
C  C131  1  0.31100723  0.00046968  0.66088559  1  0.336481  0  -0.049777  -0.042894  0  3.870715  0
C  C132  1  0.35296268  0.56027946  0.08346176  1  0.9925  0  0.213521  0.178129  0  4.01856  0
C  C133  1  0.55071452  0.59781891  0.11408683  1  0.443751  0  -0.00457  -0.017944  0  4.030524  0
C  C134  1  0.51341570  0.64871776  0.06999211  1  0.284612  0  0.004119  -0.096492  0  3.917318  0
C  C135  1  0.25081828  0.59069793  0.88783570  1  -0.04112  0  -0.161833  -0.313595  0  3.917368  0
C  C136  1  0.34500983  0.57510465  0.84084428  1  1.581765  0  0.192786  0.608216  0  4.186828  0
C  C137  1  0.31026330  0.66000604  0.99952530  1  0.303622  0  -0.04924  -0.042222  0  3.867166  0
C  C138  1  0.79257033  0.52304750  0.43933616  1  0.973352  0  0.215013  0.179065  0  4.016719  0
C  C139  1  0.95292492  0.51595034  0.40201125  1  0.391789  0  -0.004483  -0.018074  0  4.032373  0
C  C140  1  0.86461362  0.42098466  0.35099079  1  0.330714  0  0.003255  -0.098028  0  3.919376  0
C  C141  1  0.66024599  0.29715342  0.40906153  1  -0.041818  0  -0.162156  -0.312369  0  3.917127  0
C  C142  1  0.76996784  0.26570263  0.42465692  1  1.559705  0  0.192113  0.606172  0  4.18945  0
C  C143  1  0.65017818  0.33933713  0.33962116  1  0.279523  0  -0.049505  -0.041588  0  3.868533  0
C  C144  1  0.70742607  0.56066815  0.47695628  1  1.012478  0  0.214907  0.179159  0  4.016523  0
C  C145  1  0.54706611  0.59798738  0.48404939  1  0.390407  0  -0.004444  -0.018016  0  4.032323  0
C  C146  1  0.63537642  0.64900785  0.57901507  1  0.326158  0  0.003267  -0.098032  0  3.919416  0
C  C147  1  0.83975068  0.59094302  0.70284439  1  -0.041494  0  -0.16209  -0.31239  0  3.917054  0
C  C148  1  0.73002797  0.57534558  0.73429571  1  1.559732  0  0.192151  0.606248  0  4.189298  0
C  C149  1  0.84981579  0.66038217  0.66066148  1  0.279531  0  -0.049502  -0.041654  0  3.868484  0
C  C150  1  0.23022987  0.52278364  0.08351963  1  0.990719  0  0.21455  0.179462  0  4.017635  0
C  C151  1  0.06305465  0.51592231  0.11409390  1  0.423745  0  -0.004976  -0.01718  0  4.030399  0
C  C152  1  0.05633662  0.42090292  0.07014158  1  0.295651  0  0.003582  -0.09781  0  3.91863  0
C  C153  1  0.13674007  0.29701115  0.88790995  1  -0.056694  0  -0.161897  -0.313555  0  3.918122  0
C  C154  1  0.99560633  0.26571692  0.84094007  1  1.567036  0  0.193038  0.608079  0  4.186219  0
C  C155  1  0.18900330  0.33911487  0.99953448  1  0.337429  0  -0.049745  -0.042779  0  3.870499  0
C  C156  1  0.14703625  0.91654194  0.43972349  1  0.992543  0  0.213544  0.178215  0  4.018475  0
C  C157  1  0.94927681  0.88590645  0.40217010  1  0.444046  0  -0.004564  -0.017878  0  4.030574  0
C  C158  1  0.98658199  0.93000447  0.35127683  1  0.284021  0  0.004087  -0.096693  0  3.917465  0
C  C159  1  0.24918046  0.11216760  0.40930377  1  -0.041132  0  -0.161803  -0.313698  0  3.917623  0
C  C160  1  0.15498557  0.15915738  0.42489389  1  1.581806  0  0.192711  0.608199  0  4.187019  0
C  C161  1  0.18974079  0.00047944  0.33999898  1  0.303519  0  -0.049227  -0.042295  0  3.86725  0
N  N162  1  0.67094519  0.12197657  0.57883381  1  -1.179135  0  -0.345683  -0.344506  0  3.461033  0
N  N163  1  0.66236904  0.05090423  0.42559849  1  -1.200461  0  -0.233444  0.017724  0  3.712968  0
N  N164  1  0.54925088  0.45716634  0.87796440  1  -1.17935  0  -0.34599  -0.343785  0  3.45978  0
N  N165  1  0.61185649  0.37529475  0.94931148  1  -1.206221  0  -0.233213  0.01772  0  3.711746  0
N  N166  1  0.09207049  0.42101128  0.54305829  1  -1.18573  0  -0.346821  -0.343842  0  3.462072  0
N  N167  1  0.23673211  0.57417741  0.62515630  1  -1.20445  0  -0.233023  0.018123  0  3.713394  0
N  N168  1  0.40793403  0.45694302  0.57899094  1  -1.185081  0  -0.346838  -0.343982  0  3.46204  0
N  N169  1  0.26327407  0.37484782  0.42582678  1  -1.204239  0  -0.233097  0.018021  0  3.713328  0
N  N170  1  0.82905431  0.42116153  0.87801670  1  -1.179218  0  -0.34564  -0.344541  0  3.461013  0
N  N171  1  0.83762972  0.57440062  0.94909867  1  -1.200688  0  -0.233429  0.017773  0  3.712925  0
N  N172  1  0.95074962  0.12203277  0.54283223  1  -1.179162  0  -0.346016  -0.343883  0  3.459913  0
N  N173  1  0.88814253  0.05068441  0.62470063  1  -1.206075  0  -0.233255  0.017566  0  3.711839  0
N  N174  1  0.32905841  0.87802087  0.42116182  1  -1.179353  0  -0.345666  -0.344426  0  3.461102  0
N  N175  1  0.33764303  0.94909986  0.57439956  1  -1.200668  0  -0.233286  0.01791  0  3.713112  0
N  N176  1  0.45074219  0.54282888  0.12203148  1  -1.179523  0  -0.345989  -0.343863  0  3.459935  0
N  N177  1  0.38814185  0.62470416  0.05068750  1  -1.206281  0  -0.233233  0.017587  0  3.71168  0
N  N178  1  0.90792539  0.57898616  0.45693962  1  -1.18665  0  -0.346844  -0.343777  0  3.462243  0
N  N179  1  0.76326697  0.42582298  0.37484713  1  -1.204316  0  -0.233061  0.018129  0  3.713104  0
N  N180  1  0.59206664  0.54305885  0.42100905  1  -1.184963  0  -0.346825  -0.343898  0  3.461801  0
N  N181  1  0.73672623  0.62515331  0.57417595  1  -1.204303  0  -0.233119  0.018133  0  3.713411  0
N  N182  1  0.17094146  0.57883739  0.12198303  1  -1.179204  0  -0.345658  -0.344548  0  3.461067  0
N  N183  1  0.16236753  0.42560126  0.05090317  1  -1.200603  0  -0.233353  0.017913  0  3.71284  0
N  N184  1  0.04925546  0.87796763  0.45716798  1  -1.179415  0  -0.345955  -0.343842  0  3.459786  0
N  N185  1  0.11186095  0.94931451  0.37529868  1  -1.206078  0  -0.233192  0.017651  0  3.711702  0
O  O186  1  0.42369375  0.87155285  0.22742434  1  -1.178473  0  -0.333937  -0.569436  0  2.089322  0
O  O187  1  0.45671782  0.76950621  0.28242552  1  -1.163253  0  -0.323395  -0.55923  0  2.28341  0
O  O188  1  0.55262288  0.35585288  0.12859836  1  -1.181635  0  -0.334397  -0.570301  0  2.089075  0
O  O189  1  0.68724948  0.51308939  0.23046068  1  -1.180167  0  -0.323088  -0.559645  0  2.283992  0
O  O190  1  0.19666324  0.77294972  0.64435643  1  -1.175696  0  -0.333357  -0.568787  0  2.089142  0
O  O191  1  0.17420962  0.71729556  0.48710545  1  -1.162516  0  -0.323342  -0.559599  0  2.285897  0
O  O192  1  0.30333328  0.35563674  0.22705104  1  -1.176009  0  -0.33342  -0.568842  0  2.089205  0
O  O193  1  0.32578872  0.51288970  0.28269960  1  -1.162412  0  -0.32342  -0.55968  0  2.28568  0
O  O194  1  0.07630856  0.77257801  0.12845682  1  -1.178333  0  -0.334064  -0.56955  0  2.08936  0
O  O195  1  0.04327814  0.71757708  0.23049955  1  -1.163322  0  -0.323392  -0.559249  0  2.283389  0
O  O196  1  0.94737828  0.87140066  0.64414781  1  -1.181681  0  -0.334325  -0.570201  0  2.089242  0
O  O197  1  0.81275085  0.76953534  0.48691240  1  -1.180364  0  -0.323055  -0.559601  0  2.284177  0
O  O198  1  0.74999417  0.33939626  0.66059553  1  -1.317106  0  -0.616587  -0.794933  0  2.112628  0
O  O199  1  0.41103191  0.32130396  0.66030843  1  -1.284303  0  -0.615626  -0.793194  0  2.113511  0
O  O200  1  0.08895750  0.33969709  0.67869567  1  -1.284348  0  -0.615648  -0.793251  0  2.113494  0
O  O201  1  0.57631342  0.12845346  0.77257246  1  -1.17839  0  -0.334073  -0.569581  0  2.089344  0
O  O202  1  0.54328372  0.23050083  0.71757550  1  -1.163304  0  -0.323466  -0.559377  0  2.283395  0
O  O203  1  0.44737668  0.64414678  0.87140239  1  -1.181598  0  -0.334388  -0.570265  0  2.089185  0
O  O204  1  0.31274923  0.48691026  0.76954238  1  -1.180111  0  -0.323075  -0.55958  0  2.284113  0
O  O205  1  0.80332394  0.22704403  0.35563651  1  -1.175842  0  -0.333418  -0.56878  0  2.089069  0
O  O206  1  0.82578540  0.28269670  0.51288896  1  -1.162461  0  -0.32333  -0.559572  0  2.285745  0
O  O207  1  0.69666959  0.64436439  0.77295030  1  -1.175987  0  -0.333455  -0.568824  0  2.08911  0
O  O208  1  0.67421330  0.48711143  0.71730158  1  -1.162352  0  -0.323387  -0.559663  0  2.285629  0
O  O209  1  0.92369444  0.22742682  0.87154977  1  -1.17838  0  -0.334063  -0.569534  0  2.089303  0
O  O210  1  0.95672461  0.28242553  0.76950423  1  -1.163188  0  -0.32337  -0.559228  0  2.283426  0
O  O211  1  0.05261784  0.12859382  0.35585081  1  -1.181732  0  -0.334335  -0.570197  0  2.089375  0
O  O212  1  0.18724589  0.23046210  0.51308568  1  -1.180282  0  -0.323062  -0.559601  0  2.284115  0
O  O213  1  0.25000134  0.66060044  0.33940264  1  -1.31707  0  -0.616616  -0.794981  0  2.112637  0
O  O214  1  0.58895947  0.67870161  0.33969320  1  -1.284232  0  -0.615588  -0.793142  0  2.113515  0
O  O215  1  0.91103828  0.66030700  0.32130617  1  -1.28434  0  -0.615614  -0.793142  0  2.113501  0
