# generated using pymatgen
data_ZnH28C18(NO)4
_symmetry_space_group_name_H-M   'P 1'
_cell_length_a   8.88523404
_cell_length_b   11.42731711
_cell_length_c   11.50950000
_cell_angle_alpha   89.52138464
_cell_angle_beta   69.42678441
_cell_angle_gamma   69.61447144
_symmetry_Int_Tables_number   1
_chemical_formula_structural   ZnH28C18(NO)4
_chemical_formula_sum   'Zn2 H56 C36 N8 O8'
_cell_volume   1016.86059381
_cell_formula_units_Z   2
loop_
 _symmetry_equiv_pos_site_id
 _symmetry_equiv_pos_as_xyz
  1  'x, y, z'
loop_
 _atom_site_type_symbol
 _atom_site_label
 _atom_site_symmetry_multiplicity
 _atom_site_fract_x
 _atom_site_fract_y
 _atom_site_fract_z
 _atom_site_occupancy
 _atom_site_hle17_bader_spin_density
 _atom_site_hle17_ddec_charge
 _atom_site_hle17_ddec_spin_density
 _atom_site_hle17_ddec_sum_bond_order
 _atom_site_hle17_magmom
 _atom_site_hse06_10hf_bader_spin_density
 _atom_site_hse06_10hf_ddec_charge
 _atom_site_hse06_10hf_ddec_spin_density
 _atom_site_hse06_10hf_ddec_sum_bond_order
 _atom_site_hse06_10hf_magmom
 _atom_site_hse06_bader_spin_density
 _atom_site_hse06_ddec_charge
 _atom_site_hse06_ddec_spin_density
 _atom_site_hse06_ddec_sum_bond_order
 _atom_site_hse06_magmom
 _atom_site_pbe_bader_charge
 _atom_site_pbe_bader_spin_density
 _atom_site_pbe_cm5_charge
 _atom_site_pbe_ddec_charge
 _atom_site_pbe_ddec_spin_density
 _atom_site_pbe_ddec_sum_bond_order
 _atom_site_pbe_magmom
Zn  Zn0  1  0.50000069  0.00000000  0.50000038  1  0  0.910919  0  1.928428  0  0  0.740845  0  2.336345  0  0  0.780238  0  2.2979  0  1.230269  0  0.694552  0.712737  0  2.362751  0
Zn  Zn1  1  0.00000082  0.50000006  0.99999908  1  0  0.911963  0  1.944873  0  0  0.743445  0  2.355044  0  0  0.782367  0  2.316574  0  1.232993  0  0.695997  0.715662  0  2.381441  0
H  H2  1  0.49357848  0.21039418  0.57405388  1  0  0.255548  0  0.945556  0  0  0.244444  0  1.001689  0  0  0.251583  0  0.996442  0  0.447799  0  0.284656  0.23957  0  1.004952  0
H  H3  1  0.00638289  0.42546504  0.79106281  1  0  0.255403  0  0.94896  0  0  0.244701  0  1.004957  0  0  0.25186  0  0.999695  0  0.476839  0  0.283917  0.239809  0  1.008254  0
H  H4  1  0.50642335  0.78960594  0.42594537  1  0  0.25551  0  0.945629  0  0  0.24442  0  1.001726  0  0  0.251551  0  0.996486  0  0.447775  0  0.284653  0.239546  0  1.004988  0
H  H5  1  0.99361893  0.57453509  0.20893643  1  0  0.255393  0  0.94897  0  0  0.244683  0  1.004958  0  0  0.251842  0  0.999694  0  0.476787  0  0.28392  0.23979  0  1.008257  0
H  H6  1  0.82830378  0.88836989  0.34850177  1  0  0.26689  0  0.917316  0  0  0.25555  0  0.975519  0  0  0.261416  0  0.971991  0  0.470237  0  0.291022  0.251529  0  0.977757  0
H  H7  1  0.67176331  0.65201810  0.11129933  1  0  0.266206  0  0.917273  0  0  0.254902  0  0.975446  0  0  0.260714  0  0.971989  0  0.472592  0  0.290831  0.250923  0  0.977619  0
H  H8  1  0.17169732  0.11162929  0.65149681  1  0  0.266881  0  0.917354  0  0  0.255541  0  0.975555  0  0  0.261407  0  0.972028  0  0.470104  0  0.291015  0.25152  0  0.977793  0
H  H9  1  0.32823851  0.34798202  0.88869991  1  0  0.266296  0  0.917213  0  0  0.254973  0  0.975424  0  0  0.260788  0  0.971957  0  0.472579  0  0.290842  0.250994  0  0.977599  0
H  H10  1  0.74380689  0.23265243  0.41272414  1  0  0.047586  0  0.923024  0  0  0.069306  0  0.980437  0  0  0.069403  0  0.980943  0  0.017158  0  0.094684  0.067775  0  0.982387  0
H  H11  1  0.75574343  0.58693436  0.76938795  1  0  0.047979  0  0.921698  0  0  0.069235  0  0.978944  0  0  0.06924  0  0.979562  0  0.02354  0  0.094306  0.067738  0  0.980878  0
H  H12  1  0.25619541  0.76734675  0.58727411  1  0  0.04759  0  0.923031  0  0  0.069319  0  0.980441  0  0  0.069416  0  0.980945  0  0.017163  0  0.094688  0.067789  0  0.98239  0
H  H13  1  0.24425840  0.41306576  0.23061129  1  0  0.047976  0  0.921686  0  0  0.069233  0  0.978946  0  0  0.069239  0  0.979564  0  0.023533  0  0.094297  0.067735  0  0.98088  0
H  H14  1  0.72838405  0.12638621  0.30911569  1  0  0.070943  0  0.93307  0  0  0.087192  0  0.998725  0  0  0.087405  0  0.99975  0  0.037446  0  0.106257  0.087058  0  0.997597  0
H  H15  1  0.77109329  0.69181462  0.87441524  1  0  0.07054  0  0.934451  0  0  0.086275  0  1.0001  0  0  0.086462  0  1.001145  0  0.070731  0  0.105408  0.086167  0  0.998947  0
H  H16  1  0.27161704  0.87361297  0.69088289  1  0  0.070952  0  0.933045  0  0  0.087206  0  0.998703  0  0  0.087419  0  0.999728  0  0.03749  0  0.106263  0.087072  0  0.997575  0
H  H17  1  0.22890733  0.30818550  0.12558433  1  0  0.070524  0  0.934469  0  0  0.086272  0  1.00011  0  0  0.086458  0  1.001157  0  0.070738  0  0.105406  0.086168  0  0.998946  0
H  H18  1  0.95527635  0.02304822  0.40058594  1  0  0.048921  0  0.938632  0  0  0.066735  0  1.004289  0  0  0.066863  0  1.004543  0  0.01183  0  0.097178  0.066752  0  1.004084  0
H  H19  1  0.54479401  0.59904270  0.97802716  1  0  0.048313  0  0.940974  0  0  0.065822  0  1.006802  0  0  0.065965  0  1.007054  0  0.015774  0  0.096845  0.06581  0  1.006658  0
H  H20  1  0.04472475  0.97695096  0.59941264  1  0  0.048899  0  0.938574  0  0  0.066719  0  1.004231  0  0  0.066846  0  1.004485  0  0.011869  0  0.097165  0.066736  0  1.004026  0
H  H21  1  0.45520828  0.40095648  0.02197196  1  0  0.048325  0  0.94093  0  0  0.065828  0  1.006758  0  0  0.065978  0  1.007003  0  0.015699  0  0.096857  0.065817  0  1.006612  0
H  H22  1  0.79007188  0.06420339  0.55241274  1  0  0.067673  0  0.929217  0  0  0.084973  0  0.992345  0  0  0.085437  0  0.992532  0  0.068101  0  0.106948  0.084418  0  0.992601  0
H  H23  1  0.70994860  0.44653317  0.93692847  1  0  0.067093  0  0.929079  0  0  0.084046  0  0.992457  0  0  0.084496  0  0.992636  0  0.059792  0  0.106386  0.083561  0  0.992655  0
H  H24  1  0.20993042  0.93579579  0.44758551  1  0  0.067654  0  0.929229  0  0  0.084956  0  0.992357  0  0  0.085422  0  0.992543  0  0.068068  0  0.106934  0.084401  0  0.992613  0
H  H25  1  0.29005202  0.55346695  0.06307110  1  0  0.067099  0  0.929076  0  0  0.084045  0  0.992454  0  0  0.084497  0  0.992633  0  0.059788  0  0.106378  0.083562  0  0.992651  0
H  H26  1  0.78489051  0.86697127  0.61195389  1  0  0.059305  0  0.93306  0  0  0.077528  0  0.994122  0  0  0.077665  0  0.994923  0  0.05314  0  0.101567  0.07747  0  0.99328  0
H  H27  1  0.71499738  0.38688500  0.13289006  1  0  0.059258  0  0.933099  0  0  0.077383  0  0.994382  0  0  0.077471  0  0.995212  0  0.049602  0  0.101615  0.07735  0  0.993528  0
H  H28  1  0.21511059  0.13302791  0.38804469  1  0  0.059327  0  0.933048  0  0  0.077533  0  0.994119  0  0  0.077673  0  0.994923  0  0.053117  0  0.10156  0.077475  0  0.993278  0
H  H29  1  0.28500324  0.61311512  0.86711038  1  0  0.059264  0  0.933076  0  0  0.07739  0  0.994365  0  0  0.077479  0  0.995195  0  0.049607  0  0.101612  0.077357  0  0.993512  0
H  H30  1  0.98233042  0.79230631  0.48152070  1  0  0.041371  0  0.917666  0  0  0.060209  0  0.977145  0  0  0.060745  0  0.976976  0  0.012649  0  0.090665  0.058333  0  0.979812  0
H  H31  1  0.51774265  0.51802699  0.20743123  1  0  0.041444  0  0.918214  0  0  0.060343  0  0.977652  0  0  0.060858  0  0.977455  0  0.014529  0  0.090703  0.058501  0  0.980309  0
H  H32  1  0.01767020  0.20769381  0.51847800  1  0  0.041382  0  0.917669  0  0  0.060218  0  0.977144  0  0  0.060755  0  0.976976  0  0.012656  0  0.090667  0.058343  0  0.979811  0
H  H33  1  0.48225965  0.48197219  0.79256876  1  0  0.041427  0  0.918233  0  0  0.060338  0  0.977665  0  0  0.060851  0  0.97747  0  0.014508  0  0.090692  0.058497  0  0.980322  0
H  H34  1  0.86592612  0.63459189  0.53178133  1  0  0.062781  0  0.939931  0  0  0.080106  0  1.004009  0  0  0.080875  0  1.003927  0  0.003128  0  0.08888  0.079641  0  1.004235  0
H  H35  1  0.63369068  0.46802500  0.36369324  1  0  0.061674  0  0.942091  0  0  0.078648  0  1.006871  0  0  0.07937  0  1.006806  0  0.023019  0  0.088679  0.078248  0  1.007036  0
H  H36  1  0.13407618  0.36540729  0.46821692  1  0  0.062785  0  0.939917  0  0  0.080096  0  1.004013  0  0  0.080869  0  1.003928  0  0.003135  0  0.088882  0.079631  0  1.004239  0
H  H37  1  0.36631234  0.53197512  0.63630568  1  0  0.06166  0  0.942082  0  0  0.078632  0  1.006866  0  0  0.079355  0  1.006797  0  0.023089  0  0.088683  0.078232  0  1.00703  0
H  H38  1  0.82346402  0.68736015  0.39812849  1  0  0.090105  0  0.948543  0  0  0.107756  0  1.007886  0  0  0.10903  0  1.008155  0  0.057101  0  0.099449  0.106729  0  1.007791  0
H  H39  1  0.67705756  0.60235320  0.31074940  1  0  0.089213  0  0.949775  0  0  0.106928  0  1.009176  0  0  0.108202  0  1.009412  0  0.07411  0  0.098851  0.105887  0  1.009131  0
H  H40  1  0.17653828  0.31263903  0.60186976  1  0  0.090077  0  0.948531  0  0  0.107737  0  1.007868  0  0  0.109011  0  1.008135  0  0.057118  0  0.099432  0.106709  0  1.007773  0
H  H41  1  0.32294426  0.39764693  0.68924985  1  0  0.089207  0  0.949785  0  0  0.106925  0  1.009174  0  0  0.108197  0  1.009411  0  0.074123  0  0.098856  0.10588  0  1.009135  0
H  H42  1  0.41527833  0.36039542  0.42880939  1  0  0.030455  0  0.930439  0  0  0.046305  0  0.999129  0  0  0.047086  0  0.998539  0  0.005374  0  0.085428  0.04576  0  1.000199  0
H  H43  1  0.08537312  0.57099015  0.64126630  1  0  0.028508  0  0.93167  0  0  0.04433  0  1.00034  0  0  0.045179  0  0.999699  0  -0.003058  0  0.084664  0.043738  0  1.001457  0
H  H44  1  0.58472324  0.63960282  0.57118907  1  0  0.03049  0  0.930414  0  0  0.046322  0  0.999107  0  0  0.047099  0  0.998523  0  0.005188  0  0.085427  0.045776  0  1.000176  0
H  H45  1  0.91462917  0.42900903  0.35873369  1  0  0.028523  0  0.931684  0  0  0.044341  0  1.000349  0  0  0.045192  0  0.999707  0  -0.003065  0  0.084665  0.043744  0  1.001471  0
H  H46  1  0.44260154  0.22817348  0.33201282  1  0  0.057215  0  0.94569  0  0  0.073832  0  1.013181  0  0  0.074672  0  1.012537  0  0.068249  0  0.10145  0.073103  0  1.013852  0
H  H47  1  0.05764878  0.66928238  0.77209225  1  0  0.056609  0  0.9457  0  0  0.073089  0  1.013006  0  0  0.07388  0  1.012446  0  0.031777  0  0.101297  0.072427  0  1.013579  0
H  H48  1  0.55740051  0.77182382  0.66798638  1  0  0.05724  0  0.945689  0  0  0.073846  0  1.01317  0  0  0.074686  0  1.012526  0  0.068267  0  0.10146  0.073116  0  1.013841  0
H  H49  1  0.94235231  0.33071681  0.22790720  1  0  0.056625  0  0.945704  0  0  0.073105  0  1.012998  0  0  0.073897  0  1.012437  0  0.031767  0  0.101294  0.072443  0  1.013571  0
H  H50  1  0.55664638  0.19383419  0.93792228  1  0  0.090299  0  0.960049  0  0  0.100643  0  1.021317  0  0  0.104444  0  1.018732  0  0.07371  0  0.099327  0.097507  0  1.024266  0
H  H51  1  0.94423302  0.06130718  0.80698401  1  0  0.090772  0  0.959164  0  0  0.100504  0  1.021014  0  0  0.104304  0  1.018413  0  0.069684  0  0.099431  0.097384  0  1.023938  0
H  H52  1  0.44335351  0.80616499  0.06207836  1  0  0.090298  0  0.960032  0  0  0.100646  0  1.021293  0  0  0.104446  0  1.018709  0  0.073699  0  0.099331  0.097509  0  1.024241  0
H  H53  1  0.05576639  0.93869294  0.19301589  1  0  0.090796  0  0.959175  0  0  0.100516  0  1.021031  0  0  0.104316  0  1.018429  0  0.069629  0  0.099435  0.097397  0  1.023951  0
H  H54  1  0.42251356  0.88523264  0.86183867  1  0  0.091416  0  0.960789  0  0  0.100262  0  1.025416  0  0  0.104035  0  1.023066  0  0.063741  0  0.098533  0.098041  0  1.026255  0
H  H55  1  0.07775806  0.13997938  0.11279757  1  0  0.089895  0  0.962949  0  0  0.099018  0  1.027493  0  0  0.102853  0  1.025035  0  0.071726  0  0.098267  0.096749  0  1.028369  0
H  H56  1  0.57748779  0.11476842  0.13816156  1  0  0.091388  0  0.960811  0  0  0.100278  0  1.025375  0  0  0.104048  0  1.023029  0  0.063713  0  0.098557  0.098059  0  1.026208  0
H  H57  1  0.92223775  0.86002074  0.88720331  1  0  0.089879  0  0.962975  0  0  0.098991  0  1.027527  0  0  0.102827  0  1.025069  0  0.071723  0  0.098252  0.096722  0  1.028403  0
C  C58  1  0.70559403  0.15103130  0.40766514  1  0  0.016132  0  3.646131  0  0  -0.044812  0  3.912963  0  0  -0.04152  0  3.926016  0  0.316735  0  -0.069958  -0.046863  0  3.904115  0
C  C59  1  0.79423655  0.59247351  0.85015374  1  0  0.014583  0  3.65245  0  0  -0.044201  0  3.91706  0  0  -0.040848  0  3.930121  0  0.264492  0  -0.069886  -0.046352  0  3.908241  0
C  C60  1  0.29440779  0.84896882  0.59233323  1  0  0.016121  0  3.64621  0  0  -0.044857  0  3.913078  0  0  -0.041564  0  3.926129  0  0.316643  0  -0.069966  -0.046911  0  3.904231  0
C  C61  1  0.20576695  0.40752567  0.14984505  1  0  0.014618  0  3.6524  0  0  -0.04422  0  3.917041  0  0  -0.040869  0  3.930105  0  0.264205  0  -0.069881  -0.046365  0  3.908216  0
C  C62  1  0.81756156  0.03981817  0.45285033  1  0  0.006563  0  3.653268  0  0  -0.056908  0  3.928605  0  0  -0.053409  0  3.941273  0  0.272208  0  -0.070769  -0.059248  0  3.919469  0
C  C63  1  0.68248957  0.54676876  0.96106744  1  0  0.006304  0  3.656727  0  0  -0.056586  0  3.930459  0  0  -0.053097  0  3.943058  0  0.296118  0  -0.070837  -0.058958  0  3.921365  0
C  C64  1  0.18244073  0.96018101  0.54714879  1  0  0.006629  0  3.653243  0  0  -0.056848  0  3.928589  0  0  -0.053348  0  3.941259  0  0.272248  0  -0.070741  -0.059185  0  3.919451  0
C  C65  1  0.31751105  0.45323136  0.03893300  1  0  0.006254  0  3.656685  0  0  -0.056607  0  3.930411  0  0  -0.053122  0  3.94301  0  0.296387  0  -0.070842  -0.058981  0  3.921317  0
C  C66  1  0.83968620  0.82664937  0.51290093  1  0  0.050809  0  3.640683  0  0  -0.008161  0  3.907438  0  0  -0.003919  0  3.920111  0  0.293075  0  -0.070199  -0.010681  0  3.898713  0
C  C67  1  0.66040127  0.48657543  0.17287266  1  0  0.049951  0  3.64036  0  0  -0.009022  0  3.907286  0  0  -0.004714  0  3.919786  0  0.295756  0  -0.070405  -0.011614  0  3.898721  0
C  C68  1  0.16031442  0.17335075  0.48709777  1  0  0.050777  0  3.640693  0  0  -0.008171  0  3.907414  0  0  -0.003934  0  3.920098  0  0.293091  0  -0.07018  -0.010689  0  3.89869  0
C  C69  1  0.33959982  0.51342375  0.82712678  1  0  0.049933  0  3.640423  0  0  -0.009064  0  3.907365  0  0  -0.004758  0  3.919869  0  0.295779  0  -0.070405  -0.011658  0  3.898803  0
C  C70  1  0.78692600  0.71485248  0.49853238  1  0  -0.157597  0  3.657159  0  0  -0.196729  0  3.920301  0  0  -0.198983  0  3.934387  0  -0.025265  0  -0.162166  -0.195187  0  3.910055  0
C  C71  1  0.71319942  0.50127586  0.28374149  1  0  -0.156597  0  3.656057  0  0  -0.195985  0  3.919054  0  0  -0.198193  0  3.933062  0  -0.058026  0  -0.162446  -0.194456  0  3.908797  0
C  C72  1  0.21307389  0.28514670  0.50146739  1  0  -0.157545  0  3.657078  0  0  -0.196669  0  3.920247  0  0  -0.198925  0  3.934329  0  -0.025288  0  -0.162138  -0.195127  0  3.910001  0
C  C73  1  0.28679952  0.49872520  0.71625766  1  0  -0.156638  0  3.656071  0  0  -0.195996  0  3.91905  0  0  -0.1982  0  3.933053  0  -0.058107  0  -0.162477  -0.194469  0  3.908795  0
C  C74  1  0.40287284  0.26707081  0.42987739  1  0  0.048195  0  3.659237  0  0  -0.014867  0  3.932925  0  0  -0.010694  0  3.945836  0  0.299354  0  -0.072215  -0.017612  0  3.923572  0
C  C75  1  0.09720388  0.57058811  0.73409215  1  0  0.050504  0  3.659966  0  0  -0.011163  0  3.9324  0  0  -0.007047  0  3.945251  0  0.341641  0  -0.071491  -0.013887  0  3.923037  0
C  C76  1  0.59712826  0.73292837  0.57012119  1  0  0.048111  0  3.659334  0  0  -0.014913  0  3.932972  0  0  -0.010742  0  3.94588  0  0.299531  0  -0.072241  -0.017658  0  3.923619  0
C  C77  1  0.90279554  0.42941202  0.26590775  1  0  0.050399  0  3.660062  0  0  -0.011261  0  3.932445  0  0  -0.007147  0  3.945298  0  0.341669  0  -0.071503  -0.013982  0  3.923083  0
C  C78  1  0.48732916  0.04465963  0.88839878  1  0  -0.0616  0  3.758032  0  0  -0.041791  0  3.993002  0  0  -0.047704  0  4.015465  0  -0.043018  0  -0.022087  -0.037685  0  3.977249  0
C  C79  1  0.01343099  0.11158880  0.95482710  1  0  -0.063592  0  3.765899  0  0  -0.043716  0  4.000786  0  0  -0.049762  0  4.023374  0  -0.039178  0  -0.02264  -0.039524  0  3.984962  0
C  C80  1  0.51266785  0.95534050  0.11160264  1  0  -0.061481  0  3.757878  0  0  -0.041725  0  3.992879  0  0  -0.047637  0  4.015341  0  -0.043049  0  -0.022123  -0.037677  0  3.9772  0
C  C81  1  0.98656435  0.88841226  0.04517303  1  0  -0.063475  0  3.765759  0  0  -0.043595  0  4.000623  0  0  -0.049643  0  4.023213  0  -0.038965  0  -0.022585  -0.039405  0  3.9848  0
C  C82  1  0.52958098  0.10989778  0.96686956  1  0  -0.086632  0  3.771752  0  0  -0.107614  0  4.02041  0  0  -0.108979  0  4.041238  0  -0.062065  0  -0.09135  -0.106744  0  4.006547  0
C  C83  1  0.97096169  0.03246749  0.89044965  1  0  -0.084724  0  3.77356  0  0  -0.10531  0  4.022275  0  0  -0.106616  0  4.043073  0  -0.048721  0  -0.090536  -0.104485  0  4.008431  0
C  C84  1  0.47041748  0.89010423  0.03313145  1  0  -0.086716  0  3.771733  0  0  -0.107682  0  4.020394  0  0  -0.109048  0  4.041224  0  -0.062344  0  -0.091366  -0.106793  0  4.006545  0
C  C85  1  0.02903364  0.96753358  0.10955134  1  0  -0.084798  0  3.773543  0  0  -0.105372  0  4.02226  0  0  -0.106678  0  4.043058  0  -0.048642  0  -0.090545  -0.104551  0  4.008424  0
C  C86  1  0.45821477  0.93408311  0.92255258  1  0  -0.077278  0  3.763572  0  0  -0.098632  0  4.012934  0  0  -0.100048  0  4.034162  0  -0.030325  0  -0.089105  -0.097422  0  3.997616  0
C  C87  1  0.04199881  0.07834454  0.06493144  1  0  -0.075572  0  3.763457  0  0  -0.097455  0  4.012915  0  0  -0.098874  0  4.034026  0  -0.032967  0  -0.088791  -0.096238  0  3.997697  0
C  C88  1  0.54178465  0.06591701  0.07744905  1  0  -0.077401  0  3.76352  0  0  -0.098774  0  4.01294  0  0  -0.100188  0  4.034165  0  -0.030255  0  -0.089164  -0.097547  0  3.997642  0
C  C89  1  0.95799605  0.92165747  0.93506968  1  0  -0.07559  0  3.763439  0  0  -0.097465  0  4.012906  0  0  -0.098885  0  4.034018  0  -0.032944  0  -0.088784  -0.096247  0  3.997685  0
C  C90  1  0.47589849  0.09049525  0.76759377  1  0  0.6401  0  3.928883  0  0  0.588414  0  4.232886  0  0  0.62163  0  4.224887  0  1.591578  0  0.200247  0.565815  0  4.238068  0
C  C91  1  0.02525451  0.23267785  0.90879423  1  0  0.63936  0  3.932787  0  0  0.587495  0  4.236251  0  0  0.62073  0  4.22823  0  1.572163  0  0.199786  0.564888  0  4.241471  0
C  C92  1  0.52409253  0.90950958  0.23241097  1  0  0.640153  0  3.928702  0  0  0.588538  0  4.232608  0  0  0.621754  0  4.224606  0  1.591921  0  0.200352  0.565955  0  4.237794  0
C  C93  1  0.97474250  0.76732227  0.09120632  1  0  0.639363  0  3.932793  0  0  0.587504  0  4.236235  0  0  0.620741  0  4.228214  0  1.571984  0  0.199781  0.564897  0  4.241457  0
N  N94  1  0.52165019  0.17995761  0.48151874  1  0  -0.4137  0  3.259581  0  0  -0.332062  0  3.507894  0  0  -0.349562  0  3.517088  0  -1.107735  0  -0.492542  -0.319082  0  3.500314  0
N  N95  1  0.97813222  0.51877364  0.82102010  1  0  -0.415931  0  3.263172  0  0  -0.337016  0  3.512526  0  0  -0.354446  0  3.521678  0  -1.138459  0  -0.49333  -0.324024  0  3.504864  0
N  N96  1  0.47834923  0.82004251  0.51848116  1  0  -0.413692  0  3.259698  0  0  -0.332039  0  3.507977  0  0  -0.349534  0  3.517166  0  -1.107674  0  -0.492525  -0.319057  0  3.500393  0
N  N97  1  0.02186960  0.48122648  0.17897914  1  0  -0.415893  0  3.263098  0  0  -0.336901  0  3.51236  0  0  -0.354329  0  3.521515  0  -1.138425  0  -0.493327  -0.323911  0  3.504699  0
N  N98  1  0.77683987  0.92713917  0.44119436  1  0  -0.413592  0  3.224022  0  0  -0.336437  0  3.476629  0  0  -0.353484  0  3.485974  0  -1.108152  0  -0.488305  -0.323402  0  3.469082  0
N  N99  1  0.72315965  0.55875282  0.07279875  1  0  -0.411881  0  3.224208  0  0  -0.335278  0  3.476919  0  0  -0.352184  0  3.486124  0  -1.121825  0  -0.488527  -0.322335  0  3.469501  0
N  N100  1  0.22316123  0.07286001  0.55880509  1  0  -0.413628  0  3.224062  0  0  -0.33647  0  3.476662  0  0  -0.353517  0  3.486008  0  -1.107997  0  -0.488321  -0.323437  0  3.469119  0
N  N101  1  0.27684145  0.44124637  0.92720070  1  0  -0.411903  0  3.224236  0  0  -0.335292  0  3.476937  0  0  -0.352198  0  3.486144  0  -1.121819  0  -0.488515  -0.322349  0  3.46952  0
O  O102  1  0.46942853  0.01144643  0.69338350  1  0  -0.650868  0  2.073552  0  0  -0.586234  0  2.339247  0  0  -0.612594  0  2.330012  0  -1.200802  0  -0.328923  -0.568333  0  2.345288  0
O  O103  1  0.03144994  0.30729668  0.98745561  1  0  -0.647934  0  2.089845  0  0  -0.582651  0  2.356707  0  0  -0.60895  0  2.347298  0  -1.203564  0  -0.327465  -0.564726  0  2.362661  0
O  O104  1  0.53056850  0.98855840  0.30661961  1  0  -0.650918  0  2.073497  0  0  -0.586341  0  2.339225  0  0  -0.61271  0  2.329994  0  -1.200884  0  -0.328959  -0.568439  0  2.345257  0
O  O105  1  0.96854996  0.69270250  0.01254330  1  0  -0.64794  0  2.089917  0  0  -0.582651  0  2.356765  0  0  -0.60895  0  2.347353  0  -1.203628  0  -0.327447  -0.564721  0  2.362711  0
O  O106  1  0.47656156  0.19965768  0.74667622  1  0  -0.635861  0  1.91554  0  0  -0.588606  0  2.135005  0  0  -0.610622  0  2.125276  0  -1.19999  0  -0.334804  -0.572866  0  2.141426  0
O  O107  1  0.02502350  0.25352096  0.80028401  1  0  -0.633899  0  1.916918  0  0  -0.586827  0  2.136319  0  0  -0.608873  0  2.126624  0  -1.195012  0  -0.333772  -0.571096  0  2.142734  0
O  O108  1  0.52342898  0.80034809  0.25333038  1  0  -0.635824  0  1.915461  0  0  -0.588589  0  2.134865  0  0  -0.610599  0  2.125134  0  -1.199951  0  -0.334824  -0.57285  0  2.141283  0
O  O109  1  0.97497712  0.74647916  0.19971642  1  0  -0.633922  0  1.916934  0  0  -0.58685  0  2.136316  0  0  -0.608894  0  2.12662  0  -1.194961  0  -0.333777  -0.571119  0  2.14273  0
