# generated using pymatgen
data_Mg3H8C14(NO5)2
_symmetry_space_group_name_H-M   'P 1'
_cell_length_a   11.07540703
_cell_length_b   11.08436360
_cell_length_c   11.08437497
_cell_angle_alpha   67.64886148
_cell_angle_beta   79.74226685
_cell_angle_gamma   79.74230672
_symmetry_Int_Tables_number   1
_chemical_formula_structural   Mg3H8C14(NO5)2
_chemical_formula_sum   'Mg6 H16 C28 N4 O20'
_cell_volume   1229.27356612
_cell_formula_units_Z   2
loop_
 _symmetry_equiv_pos_site_id
 _symmetry_equiv_pos_as_xyz
  1  'x, y, z'
loop_
 _atom_site_type_symbol
 _atom_site_label
 _atom_site_symmetry_multiplicity
 _atom_site_fract_x
 _atom_site_fract_y
 _atom_site_fract_z
 _atom_site_occupancy
 _atom_site_hle17_bader_spin_density
 _atom_site_hle17_ddec_charge
 _atom_site_hle17_ddec_spin_density
 _atom_site_hle17_ddec_sum_bond_order
 _atom_site_hle17_magmom
 _atom_site_hse06_10hf_bader_spin_density
 _atom_site_hse06_10hf_ddec_charge
 _atom_site_hse06_10hf_ddec_spin_density
 _atom_site_hse06_10hf_ddec_sum_bond_order
 _atom_site_hse06_10hf_magmom
 _atom_site_hse06_bader_spin_density
 _atom_site_hse06_ddec_charge
 _atom_site_hse06_ddec_spin_density
 _atom_site_hse06_ddec_sum_bond_order
 _atom_site_hse06_magmom
 _atom_site_pbe_bader_spin_density
 _atom_site_pbe_cm5_charge
 _atom_site_pbe_ddec_charge
 _atom_site_pbe_ddec_spin_density
 _atom_site_pbe_ddec_sum_bond_order
 _atom_site_pbe_magmom
Mg  Mg0  1  0.24999982  0.89911294  0.10088687  1  0  1.517121  0  1.136094  0  0  1.410752  0  1.384734  0  0  1.435431  0  1.346732  0  0  0.805205  1.392855  0  1.411614  0
Mg  Mg1  1  0.75000003  0.10088554  0.89911366  1  0  1.517102  0  1.136113  0  0  1.410728  0  1.384765  0  0  1.43541  0  1.346758  0  0  0.80517  1.392828  0  1.411616  0
Mg  Mg2  1  0.03855878  0.87780074  0.95503198  1  0  1.479571  0  1.163756  0  0  1.367676  0  1.416699  0  0  1.392937  0  1.379102  0  0  0.812421  1.349687  0  1.443042  0
Mg  Mg3  1  0.46144147  0.04496978  0.12219764  1  0  1.479533  0  1.16384  0  0  1.367691  0  1.416679  0  0  1.392952  0  1.379081  0  0  0.812436  1.349701  0  1.443037  0
Mg  Mg4  1  0.96144187  0.12219872  0.04496803  1  0  1.479661  0  1.163634  0  0  1.367742  0  1.416592  0  0  1.393004  0  1.378992  0  0  0.812458  1.349753  0  1.442942  0
Mg  Mg5  1  0.53855907  0.95503066  0.87780201  1  0  1.479546  0  1.163772  0  0  1.367702  0  1.416649  0  0  1.392962  0  1.379054  0  0  0.812422  1.349713  0  1.442989  0
H  H6  1  0.02592352  0.88200080  0.20222707  1  0  0.42767  0  0.850987  0  0  0.406804  0  0.894437  0  0  0.414998  0  0.882337  0  0  0.309043  0.400946  0  0.903125  0
H  H7  1  0.47407614  0.79777375  0.11799852  1  0  0.427663  0  0.851002  0  0  0.406796  0  0.894453  0  0  0.41499  0  0.882354  0  0  0.309024  0.400937  0  0.903139  0
H  H8  1  0.97407610  0.11799964  0.79777275  1  0  0.427662  0  0.850997  0  0  0.406796  0  0.894447  0  0  0.41499  0  0.882347  0  0  0.309037  0.400934  0  0.90314  0
H  H9  1  0.52592348  0.20222670  0.88200040  1  0  0.427678  0  0.850974  0  0  0.406814  0  0.89442  0  0  0.415008  0  0.882322  0  0  0.309044  0.400956  0  0.903106  0
H  H10  1  0.37387309  0.96129134  0.54669639  1  0  0.140478  0  0.918315  0  0  0.147746  0  0.977959  0  0  0.152728  0  0.974055  0  0  0.121766  0.144091  0  0.980976  0
H  H11  1  0.12612668  0.45330362  0.03871028  1  0  0.140463  0  0.918263  0  0  0.147723  0  0.977921  0  0  0.152705  0  0.974015  0  0  0.121741  0.144069  0  0.980932  0
H  H12  1  0.62612756  0.03870812  0.45330452  1  0  0.140461  0  0.918285  0  0  0.147731  0  0.97794  0  0  0.152712  0  0.974034  0  0  0.121742  0.144076  0  0.980957  0
H  H13  1  0.87387295  0.54669682  0.96129044  1  0  0.140491  0  0.918292  0  0  0.147753  0  0.977941  0  0  0.152735  0  0.974037  0  0  0.121761  0.144096  0  0.980952  0
H  H14  1  0.05559493  0.82868051  0.48422928  1  0  0.119698  0  0.929988  0  0  0.128301  0  0.986753  0  0  0.13276  0  0.984167  0  0  0.114793  0.125164  0  0.988581  0
H  H15  1  0.44440459  0.51577016  0.17132112  1  0  0.119702  0  0.929963  0  0  0.128314  0  0.986722  0  0  0.132774  0  0.984133  0  0  0.11478  0.125176  0  0.988547  0
H  H16  1  0.94440549  0.17132092  0.51576912  1  0  0.119686  0  0.929977  0  0  0.128294  0  0.986746  0  0  0.132753  0  0.98416  0  0  0.114789  0.12516  0  0.988577  0
H  H17  1  0.55559606  0.48422930  0.82867979  1  0  0.119705  0  0.929965  0  0  0.128306  0  0.986732  0  0  0.132765  0  0.984144  0  0  0.114791  0.125169  0  0.988561  0
H  H18  1  0.95983492  0.81969498  0.71144323  1  0  0.080645  0  0.928351  0  0  0.088251  0  0.989933  0  0  0.090773  0  0.98861  0  0  0.120674  0.086392  0  0.990955  0
H  H19  1  0.54016660  0.28855798  0.18030343  1  0  0.080653  0  0.928326  0  0  0.088281  0  0.989879  0  0  0.090811  0  0.988555  0  0  0.120672  0.086424  0  0.990904  0
H  H20  1  0.04016561  0.18030546  0.28855552  1  0  0.080647  0  0.928352  0  0  0.088251  0  0.989926  0  0  0.090775  0  0.988604  0  0  0.120668  0.08639  0  0.990952  0
H  H21  1  0.45983475  0.71144345  0.81969571  1  0  0.080654  0  0.928353  0  0  0.088274  0  0.989919  0  0  0.0908  0  0.988596  0  0  0.12069  0.086415  0  0.990944  0
C  C22  1  0.22361017  0.91923988  0.70472752  1  0  0.088219  0  3.744927  0  0  0.093854  0  3.991392  0  0  0.09256  0  4.011169  0  0  0.113415  0.094409  0  3.978307  0
C  C23  1  0.27638953  0.29527260  0.08076114  1  0  0.088235  0  3.744913  0  0  0.093857  0  3.9914  0  0  0.092583  0  4.01115  0  0  0.113453  0.094414  0  3.97831  0
C  C24  1  0.77638945  0.08076056  0.29527230  1  0  0.088208  0  3.744977  0  0  0.093907  0  3.991373  0  0  0.092611  0  4.011153  0  0  0.11342  0.094458  0  3.978289  0
C  C25  1  0.72361021  0.70472686  0.91923993  1  0  0.088267  0  3.744907  0  0  0.09391  0  3.991374  0  0  0.092616  0  4.011152  0  0  0.113471  0.094463  0  3.978281  0
C  C26  1  0.28228382  0.92923519  0.57972049  1  0  -0.105991  0  3.656197  0  0  -0.139053  0  3.899017  0  0  -0.141611  0  3.918263  0  0  -0.063912  -0.137266  0  3.88625  0
C  C27  1  0.21771603  0.42027939  0.07076726  1  0  -0.105951  0  3.656119  0  0  -0.138979  0  3.89893  0  0  -0.141545  0  3.918169  0  0  -0.063881  -0.137198  0  3.88616  0
C  C28  1  0.71771672  0.07076526  0.42027916  1  0  -0.105999  0  3.656017  0  0  -0.139077  0  3.898846  0  0  -0.141632  0  3.918091  0  0  -0.063894  -0.137291  0  3.88608  0
C  C29  1  0.78228370  0.57972007  0.92923472  1  0  -0.105985  0  3.656124  0  0  -0.139059  0  3.898924  0  0  -0.141619  0  3.91817  0  0  -0.063914  -0.137274  0  3.886149  0
C  C30  1  0.22081602  0.89773381  0.49776275  1  0  -0.001855  0  3.700916  0  0  0.017869  0  3.935796  0  0  0.014365  0  3.956537  0  0  0.006765  0.020045  0  3.92176  0
C  C31  1  0.27918341  0.50223668  0.10226843  1  0  -0.001818  0  3.700836  0  0  0.017871  0  3.935747  0  0  0.014369  0  3.956488  0  0  0.006799  0.020048  0  3.921712  0
C  C32  1  0.77918452  0.10226664  0.50223691  1  0  -0.001838  0  3.700746  0  0  0.017857  0  3.935682  0  0  0.01435  0  3.956424  0  0  0.00676  0.020037  0  3.92165  0
C  C33  1  0.72081552  0.49776180  0.89773316  1  0  -0.001912  0  3.700917  0  0  0.017861  0  3.935706  0  0  0.014358  0  3.956445  0  0  0.006751  0.020038  0  3.921675  0
C  C34  1  0.10412061  0.85559926  0.54577126  1  0  -0.11225  0  3.699699  0  0  -0.137298  0  3.951866  0  0  -0.140987  0  3.971599  0  0  -0.07062  -0.134612  0  3.93845  0
C  C35  1  0.39587895  0.45422736  0.14440300  1  0  -0.112315  0  3.69971  0  0  -0.137376  0  3.951895  0  0  -0.141067  0  3.971632  0  0  -0.070644  -0.134684  0  3.938475  0
C  C36  1  0.89587993  0.14440119  0.45422749  1  0  -0.11227  0  3.699732  0  0  -0.137345  0  3.951922  0  0  -0.141035  0  3.971657  0  0  -0.070667  -0.134662  0  3.938513  0
C  C37  1  0.60412171  0.54577210  0.85559791  1  0  -0.112262  0  3.699705  0  0  -0.13733  0  3.95186  0  0  -0.141021  0  3.971595  0  0  -0.070627  -0.134646  0  3.938452  0
C  C38  1  0.05134101  0.85060656  0.67120827  1  0  0.142719  0  3.715039  0  0  0.11261  0  3.980525  0  0  0.117188  0  3.997346  0  0  0.057078  0.109515  0  3.969127  0
C  C39  1  0.44865920  0.32879242  0.14939302  1  0  0.142742  0  3.715061  0  0  0.11263  0  3.980534  0  0  0.117196  0  3.997369  0  0  0.057082  0.109532  0  3.969144  0
C  C40  1  0.94865953  0.14939388  0.32879049  1  0  0.142769  0  3.71509  0  0  0.112696  0  3.980541  0  0  0.117273  0  3.997365  0  0  0.057166  0.109606  0  3.969144  0
C  C41  1  0.55134134  0.67120802  0.85060664  1  0  0.142711  0  3.715049  0  0  0.112595  0  3.980535  0  0  0.11717  0  3.997361  0  0  0.057058  0.109499  0  3.969144  0
C  C42  1  0.28545588  0.94500519  0.80200698  1  0  0.680055  0  3.881385  0  0  0.621499  0  4.186665  0  0  0.655433  0  4.175422  0  0  0.241177  0.598656  0  4.19364  0
C  C43  1  0.21454481  0.19799215  0.05499539  1  0  0.679978  0  3.881391  0  0  0.621381  0  4.186735  0  0  0.655309  0  4.17549  0  0  0.241148  0.598547  0  4.193697  0
C  C44  1  0.71454180  0.05499623  0.19799372  1  0  0.680044  0  3.881371  0  0  0.621456  0  4.186681  0  0  0.655389  0  4.175438  0  0  0.241137  0.598615  0  4.193654  0
C  C45  1  0.78545687  0.80200633  0.94500571  1  0  0.679972  0  3.881461  0  0  0.621392  0  4.186786  0  0  0.655326  0  4.175543  0  0  0.241118  0.598562  0  4.193743  0
C  C46  1  0.27662275  0.91249161  0.35883968  1  0  0.677082  0  3.915707  0  0  0.62547  0  4.216569  0  0  0.658776  0  4.207099  0  0  0.221228  0.602931  0  4.22222  0
C  C47  1  0.22337660  0.64115892  0.08751215  1  0  0.677166  0  3.915785  0  0  0.625578  0  4.216625  0  0  0.658884  0  4.207152  0  0  0.221285  0.603031  0  4.222287  0
C  C48  1  0.72337779  0.08750883  0.64115907  1  0  0.677205  0  3.915696  0  0  0.625621  0  4.216525  0  0  0.658929  0  4.207052  0  0  0.221235  0.603066  0  4.222193  0
C  C49  1  0.77662417  0.35883955  0.91249092  1  0  0.677268  0  3.91571  0  0  0.625691  0  4.216484  0  0  0.658998  0  4.207011  0  0  0.221372  0.603137  0  4.222154  0
N  N50  1  0.10893231  0.88271259  0.74930842  1  0  -0.380071  0  3.218053  0  0  -0.33117  0  3.470509  0  0  -0.340541  0  3.485985  0  0  -0.332113  -0.324687  0  3.460239  0
N  N51  1  0.39106832  0.25069268  0.11728665  1  0  -0.380058  0  3.218084  0  0  -0.331168  0  3.47055  0  0  -0.340545  0  3.486025  0  0  -0.332113  -0.324685  0  3.460286  0
N  N52  1  0.89106834  0.11728688  0.25069068  1  0  -0.380091  0  3.218138  0  0  -0.331223  0  3.470577  0  0  -0.340594  0  3.486054  0  0  -0.332129  -0.324734  0  3.460301  0
N  N53  1  0.60893222  0.74930777  0.88271301  1  0  -0.380073  0  3.21808  0  0  -0.331187  0  3.470541  0  0  -0.340558  0  3.48602  0  0  -0.332125  -0.324702  0  3.460269  0
O  O54  1  0.21732786  0.94250952  0.90843199  1  0  -0.762413  0  2.166589  0  0  -0.697253  0  2.408507  0  0  -0.720225  0  2.394435  0  0  -0.355677  -0.681294  0  2.41766  0
O  O55  1  0.28267261  0.09156751  0.05749144  1  0  -0.762365  0  2.166606  0  0  -0.697202  0  2.408542  0  0  -0.720176  0  2.394477  0  0  -0.355669  -0.68125  0  2.417699  0
O  O56  1  0.78267268  0.05749092  0.09156767  1  0  -0.762429  0  2.166525  0  0  -0.697258  0  2.408441  0  0  -0.720236  0  2.394382  0  0  -0.355674  -0.681297  0  2.417587  0
O  O57  1  0.71732701  0.90843293  0.94250928  1  0  -0.762412  0  2.166626  0  0  -0.697248  0  2.408542  0  0  -0.720227  0  2.394482  0  0  -0.355676  -0.681298  0  2.417687  0
O  O58  1  0.39741685  0.96322250  0.77485927  1  0  -0.656253  0  2.002297  0  0  -0.605818  0  2.242489  0  0  -0.627322  0  2.228397  0  0  -0.326313  -0.591008  0  2.251778  0
O  O59  1  0.10258261  0.22513926  0.03677954  1  0  -0.656289  0  2.002305  0  0  -0.605792  0  2.242499  0  0  -0.627295  0  2.228406  0  0  -0.326337  -0.590984  0  2.251781  0
O  O60  1  0.60258357  0.03677893  0.22514004  1  0  -0.656233  0  2.002383  0  0  -0.605792  0  2.242594  0  0  -0.627293  0  2.228502  0  0  -0.32628  -0.590983  0  2.251881  0
O  O61  1  0.89741633  0.77485921  0.96322296  1  0  -0.656219  0  2.002393  0  0  -0.605757  0  2.242592  0  0  -0.627258  0  2.2285  0  0  -0.326297  -0.590957  0  2.251878  0
O  O62  1  0.37095474  0.97302713  0.31357838  1  0  -0.690819  0  2.012058  0  0  -0.642609  0  2.246306  0  0  -0.665406  0  2.234167  0  0  -0.340838  -0.626712  0  2.25416  0
O  O63  1  0.12904367  0.68641988  0.02697820  1  0  -0.690896  0  2.012166  0  0  -0.642687  0  2.246418  0  0  -0.665484  0  2.234276  0  0  -0.340882  -0.626787  0  2.254275  0
O  O64  1  0.62904568  0.02697430  0.68642002  1  0  -0.690892  0  2.012126  0  0  -0.642689  0  2.246363  0  0  -0.665483  0  2.234221  0  0  -0.340852  -0.626785  0  2.254217  0
O  O65  1  0.87095423  0.31357958  0.97302140  1  0  -0.690889  0  2.012192  0  0  -0.642688  0  2.246439  0  0  -0.665482  0  2.234296  0  0  -0.340877  -0.626789  0  2.254296  0
O  O66  1  0.22182611  0.86537244  0.29846437  1  0  -0.704298  0  1.992719  0  0  -0.654313  0  2.225715  0  0  -0.676731  0  2.212458  0  0  -0.352547  -0.638599  0  2.234433  0
O  O67  1  0.27817437  0.70153566  0.13462883  1  0  -0.704346  0  1.992825  0  0  -0.65437  0  2.225825  0  0  -0.676788  0  2.212567  0  0  -0.352578  -0.638652  0  2.234542  0
O  O68  1  0.77817535  0.13462801  0.70153421  1  0  -0.704353  0  1.992723  0  0  -0.654367  0  2.225705  0  0  -0.676785  0  2.212446  0  0  -0.352534  -0.638645  0  2.23442  0
O  O69  1  0.72182456  0.29846283  0.86537005  1  0  -0.704399  0  1.992641  0  0  -0.654446  0  2.225635  0  0  -0.676865  0  2.212377  0  0  -0.352641  -0.638725  0  2.234351  0
O  O70  1  0.05413544  0.93125375  0.11140896  1  0  -1.180741  0  1.725716  0  0  -1.107947  0  1.925559  0  0  -1.127415  0  1.894174  0  0  -0.678943  -1.094087  0  1.947275  0
O  O71  1  0.44586505  0.88859173  0.06874573  1  0  -1.180703  0  1.725725  0  0  -1.107945  0  1.925576  0  0  -1.127413  0  1.894195  0  0  -0.67892  -1.094086  0  1.94729  0
O  O72  1  0.94586510  0.06874670  0.88859069  1  0  -1.180728  0  1.725731  0  0  -1.107939  0  1.925587  0  0  -1.127407  0  1.894203  0  0  -0.678931  -1.094076  0  1.947304  0
O  O73  1  0.55413549  0.11140871  0.93125393  1  0  -1.180715  0  1.725718  0  0  -1.107945  0  1.925551  0  0  -1.127412  0  1.89417  0  0  -0.678941  -1.094088  0  1.947261  0
