# generated using pymatgen
data_ZnH15C12N3O5
_symmetry_space_group_name_H-M   'P 1'
_cell_length_a   9.21471474
_cell_length_b   11.09532965
_cell_length_c   14.05400000
_cell_angle_alpha   90.00000000
_cell_angle_beta   92.07713840
_cell_angle_gamma   90.00000000
_symmetry_Int_Tables_number   1
_chemical_formula_structural   ZnH15C12N3O5
_chemical_formula_sum   'Zn4 H60 C48 N12 O20'
_cell_volume   1435.94101695
_cell_formula_units_Z   4
loop_
 _symmetry_equiv_pos_site_id
 _symmetry_equiv_pos_as_xyz
  1  'x, y, z'
loop_
 _atom_site_type_symbol
 _atom_site_label
 _atom_site_symmetry_multiplicity
 _atom_site_fract_x
 _atom_site_fract_y
 _atom_site_fract_z
 _atom_site_occupancy
 _atom_site_hle17_bader_spin_density
 _atom_site_hle17_ddec_charge
 _atom_site_hle17_ddec_spin_density
 _atom_site_hle17_ddec_sum_bond_order
 _atom_site_hle17_magmom
 _atom_site_hse06_10hf_bader_spin_density
 _atom_site_hse06_10hf_ddec_charge
 _atom_site_hse06_10hf_ddec_spin_density
 _atom_site_hse06_10hf_ddec_sum_bond_order
 _atom_site_hse06_10hf_magmom
 _atom_site_hse06_bader_spin_density
 _atom_site_hse06_ddec_charge
 _atom_site_hse06_ddec_spin_density
 _atom_site_hse06_ddec_sum_bond_order
 _atom_site_hse06_magmom
 _atom_site_pbe_bader_charge
 _atom_site_pbe_bader_spin_density
 _atom_site_pbe_cm5_charge
 _atom_site_pbe_ddec_charge
 _atom_site_pbe_ddec_spin_density
 _atom_site_pbe_ddec_sum_bond_order
 _atom_site_pbe_magmom
Zn  Zn0  1  0.78337347  0.78332328  0.15599520  1  0  1.018691  0  1.822393  0  0  0.832529  0  2.277308  0  0  0.881277  0  2.223154  0  1.279373  0  0.685087  0.797848  0  2.314838  0
Zn  Zn1  1  0.71662760  0.28332371  0.84400486  1  0  1.018655  0  1.822416  0  0  0.832507  0  2.277302  0  0  0.88125  0  2.223157  0  1.279366  0  0.685082  0.797819  0  2.314849  0
Zn  Zn2  1  0.21662761  0.21667585  0.84400461  1  0  1.018661  0  1.82243  0  0  0.832515  0  2.277326  0  0  0.881257  0  2.223168  0  1.279361  0  0.68508  0.797825  0  2.314866  0
Zn  Zn3  1  0.28337022  0.71667812  0.15599630  1  0  1.018613  0  1.822474  0  0  0.832478  0  2.277361  0  0  0.881222  0  2.223201  0  1.279399  0  0.685085  0.797794  0  2.314894  0
H  H4  1  0.54279884  0.15399092  0.14830281  1  0  0.115794  0  0.947707  0  0  0.129054  0  1.002805  0  0  0.132896  0  1.001726  0  0.069494  0  0.107676  0.126265  0  1.003865  0
H  H5  1  0.95720223  0.65399229  0.85169725  1  0  0.115779  0  0.947729  0  0  0.12904  0  1.002823  0  0  0.132882  0  1.001744  0  0.069483  0  0.107669  0.126251  0  1.003883  0
H  H6  1  0.45720224  0.84600821  0.85169700  1  0  0.115789  0  0.947719  0  0  0.129052  0  1.002811  0  0  0.132893  0  1.001733  0  0.069488  0  0.107676  0.126263  0  1.003872  0
H  H7  1  0.04279993  0.34600865  0.14830117  1  0  0.115775  0  0.947663  0  0  0.129001  0  1.002816  0  0  0.132843  0  1.001738  0  0.069465  0  0.107662  0.126214  0  1.003873  0
H  H8  1  0.55550210  0.32100083  0.26801056  1  0  0.101925  0  0.966644  0  0  0.108041  0  1.035414  0  0  0.110997  0  1.033024  0  0.117481  0  0.107079  0.105688  0  1.037376  0
H  H9  1  0.94450006  0.82100039  0.73198810  1  0  0.101925  0  0.966651  0  0  0.108045  0  1.035418  0  0  0.111001  0  1.033029  0  0.117172  0  0.107084  0.105693  0  1.03738  0
H  H10  1  0.44450115  0.67899920  0.73198859  1  0  0.101929  0  0.966627  0  0  0.108048  0  1.035397  0  0  0.111004  0  1.033009  0  0.117173  0  0.107083  0.105695  0  1.037362  0
H  H11  1  0.05550210  0.17899874  0.26801032  1  0  0.101933  0  0.966636  0  0  0.108049  0  1.03541  0  0  0.111006  0  1.033021  0  0.117477  0  0.10709  0.105697  0  1.03737  0
H  H12  1  0.85714859  0.11325306  0.44162562  1  0  0.11748  0  0.951859  0  0  0.119121  0  1.026178  0  0  0.123388  0  1.021037  0  0.140121  0  0.111799  0.115997  0  1.029852  0
H  H13  1  0.64285466  0.61325352  0.55837449  1  0  0.117418  0  0.951966  0  0  0.119068  0  1.026277  0  0  0.123335  0  1.021136  0  0.140145  0  0.111775  0.115945  0  1.029949  0
H  H14  1  0.14285140  0.88674517  0.55837559  1  0  0.11745  0  0.951923  0  0  0.119088  0  1.02625  0  0  0.123353  0  1.021113  0  0.140121  0  0.111793  0.115968  0  1.029922  0
H  H15  1  0.35714751  0.38674651  0.44162464  1  0  0.11747  0  0.951886  0  0  0.119111  0  1.026212  0  0  0.123378  0  1.021071  0  0.140147  0  0.111792  0.115987  0  1.029885  0
H  H16  1  0.92166612  0.92494142  0.40831468  1  0  0.073133  0  0.929492  0  0  0.081877  0  0.999439  0  0  0.083746  0  0.9957  0  0.12063  0  0.115969  0.080332  0  1.002406  0
H  H17  1  0.57833278  0.42494276  0.59168604  1  0  0.073104  0  0.929509  0  0  0.081844  0  0.999459  0  0  0.083714  0  0.995718  0  0.12064  0  0.115948  0.080275  0  1.00245  0
H  H18  1  0.07833279  0.07505590  0.59168579  1  0  0.073101  0  0.929511  0  0  0.081838  0  0.999463  0  0  0.083707  0  0.995723  0  0.120626  0  0.115941  0.080269  0  1.002455  0
H  H19  1  0.42166612  0.57505817  0.40831443  1  0  0.073121  0  0.929486  0  0  0.081867  0  0.999438  0  0  0.083736  0  0.995698  0  0.120648  0  0.11597  0.080319  0  1.002408  0
H  H20  1  0.96908887  0.72839386  0.40723731  1  0  0.079033  0  0.927837  0  0  0.096706  0  0.986128  0  0  0.096457  0  0.98666  0  0.033942  0  0.107392  0.096723  0  0.985873  0
H  H21  1  0.53091220  0.22839430  0.59276276  1  0  0.078975  0  0.927857  0  0  0.096691  0  0.986123  0  0  0.096442  0  0.986655  0  0.033953  0  0.107388  0.096709  0  0.985866  0
H  H22  1  0.03091221  0.27160527  0.59276180  1  0  0.078987  0  0.927857  0  0  0.096709  0  0.986117  0  0  0.096459  0  0.986649  0  0.033948  0  0.107389  0.096726  0  0.98586  0
H  H23  1  0.46908996  0.77160664  0.40723779  1  0  0.078992  0  0.927845  0  0  0.096708  0  0.986105  0  0  0.096459  0  0.986637  0  0.033964  0  0.107383  0.096724  0  0.985851  0
H  H24  1  0.06272031  0.72030848  0.29921786  1  0  0.075272  0  0.926778  0  0  0.093328  0  0.990591  0  0  0.093202  0  0.991172  0  0.068789  0  0.108405  0.09292  0  0.990739  0
H  H25  1  0.43728077  0.22030981  0.70078171  1  0  0.075268  0  0.926756  0  0  0.093334  0  0.99058  0  0  0.093208  0  0.991159  0  0.068795  0  0.108414  0.092927  0  0.990727  0
H  H26  1  0.93728077  0.27968975  0.70078124  1  0  0.075291  0  0.926759  0  0  0.093362  0  0.99058  0  0  0.093234  0  0.991163  0  0.068791  0  0.10842  0.092953  0  0.990728  0
H  H27  1  0.56272030  0.77969112  0.29921739  1  0  0.075255  0  0.926754  0  0  0.09332  0  0.990573  0  0  0.093193  0  0.991153  0  0.068785  0  0.108404  0.092912  0  0.99072  0
H  H28  1  0.93749904  0.52653866  0.32953127  1  0  0.062378  0  0.921691  0  0  0.081083  0  0.980316  0  0  0.080596  0  0.982125  0  0.068821  0  0.100035  0.081276  0  0.979185  0
H  H29  1  0.56250095  0.02653909  0.67046876  1  0  0.06238  0  0.921698  0  0  0.081086  0  0.980325  0  0  0.080601  0  0.982132  0  0.068822  0  0.100039  0.081281  0  0.979193  0
H  H30  1  0.06250095  0.47346047  0.67046851  1  0  0.06238  0  0.921685  0  0  0.081088  0  0.980313  0  0  0.080601  0  0.982123  0  0.068832  0  0.100032  0.081281  0  0.979183  0
H  H31  1  0.43749905  0.97346094  0.32953102  1  0  0.062389  0  0.921694  0  0  0.081096  0  0.980319  0  0  0.080609  0  0.982127  0  0.068823  0  0.100038  0.081289  0  0.979187  0
H  H32  1  0.76817908  0.60221194  0.33359412  1  0  0.073356  0  0.917799  0  0  0.092844  0  0.974344  0  0  0.092649  0  0.975258  0  0.064272  0  0.106139  0.092954  0  0.973738  0
H  H33  1  0.73182091  0.10221147  0.66640662  1  0  0.073364  0  0.9178  0  0  0.092858  0  0.974341  0  0  0.092662  0  0.975258  0  0.06427  0  0.106148  0.092967  0  0.973735  0
H  H34  1  0.23182091  0.39778719  0.66640637  1  0  0.073358  0  0.917784  0  0  0.092848  0  0.974329  0  0  0.092653  0  0.975243  0  0.064274  0  0.106142  0.092958  0  0.973722  0
H  H35  1  0.26817908  0.89778766  0.33359388  1  0  0.073359  0  0.917801  0  0  0.092851  0  0.974343  0  0  0.092655  0  0.975259  0  0.06427  0  0.106137  0.09296  0  0.973737  0
H  H36  1  0.80058770  0.41264569  0.20173516  1  0  0.069579  0  0.964174  0  0  0.087631  0  1.03722  0  0  0.087154  0  1.03953  0  0.064466  0  0.086929  0.087896  0  1.03563  0
H  H37  1  0.69941120  0.91264526  0.79826485  1  0  0.069604  0  0.964113  0  0  0.08767  0  1.037147  0  0  0.087193  0  1.039453  0  0.064457  0  0.086948  0.087935  0  1.035557  0
H  H38  1  0.19941120  0.58735434  0.79826460  1  0  0.069587  0  0.964162  0  0  0.087631  0  1.037229  0  0  0.087153  0  1.039539  0  0.064466  0  0.086926  0.087896  0  1.035639  0
H  H39  1  0.30058879  0.08735567  0.20173493  1  0  0.069568  0  0.964093  0  0  0.087652  0  1.037113  0  0  0.087172  0  1.03942  0  0.064445  0  0.086953  0.087917  0  1.035523  0
H  H40  1  0.76681732  0.48481480  0.08979415  1  0  0.099551  0  0.941119  0  0  0.122591  0  0.998306  0  0  0.123968  0  0.997522  0  0.043428  0  0.103237  0.121434  0  0.999123  0
H  H41  1  0.73318159  0.98481436  0.91020657  1  0  0.099583  0  0.941082  0  0  0.122614  0  0.998276  0  0  0.123989  0  0.997493  0  0.04331  0  0.103239  0.121457  0  0.999092  0
H  H42  1  0.23318050  0.51518523  0.91020629  1  0  0.099575  0  0.941087  0  0  0.122612  0  0.998276  0  0  0.123988  0  0.997492  0  0.043315  0  0.103248  0.121454  0  0.999092  0
H  H43  1  0.26681732  0.01518567  0.08979390  1  0  0.09954  0  0.94113  0  0  0.122581  0  0.998327  0  0  0.123957  0  0.997542  0  0.043429  0  0.103216  0.121424  0  0.999144  0
H  H44  1  0.65084930  0.51366387  0.18573539  1  0  0.089978  0  0.94244  0  0  0.110942  0  1.005163  0  0  0.111189  0  1.006163  0  0.062128  0  0.097475  0.110798  0  1.004323  0
H  H45  1  0.84915068  0.01366341  0.81426535  1  0  0.090006  0  0.942422  0  0  0.110972  0  1.005141  0  0  0.111218  0  1.006142  0  0.06214  0  0.09748  0.110827  0  1.004301  0
H  H46  1  0.34915069  0.48633616  0.81426582  1  0  0.089994  0  0.94243  0  0  0.11096  0  1.005147  0  0  0.111206  0  1.006149  0  0.062139  0  0.097481  0.110816  0  1.004307  0
H  H47  1  0.15084931  0.98633663  0.18573586  1  0  0.089998  0  0.942402  0  0  0.110965  0  1.005127  0  0  0.11121  0  1.006128  0  0.062133  0  0.097473  0.110821  0  1.004286  0
H  H48  1  0.68972575  0.72292760  0.94327020  1  0  0.1474  0  0.959328  0  0  0.163399  0  1.022972  0  0  0.166039  0  1.022428  0  0.087295  0  0.09802  0.161103  0  1.024077  0
H  H49  1  0.81026881  0.22292983  0.05672757  1  0  0.147392  0  0.959259  0  0  0.163375  0  1.022933  0  0  0.166018  0  1.022386  0  0.087166  0  0.098006  0.161079  0  1.024037  0
H  H50  1  0.31026990  0.27707063  0.05672806  1  0  0.147389  0  0.959311  0  0  0.163367  0  1.022992  0  0  0.166009  0  1.022445  0  0.087193  0  0.09801  0.161071  0  1.024097  0
H  H51  1  0.18973119  0.77707200  0.94327293  1  0  0.147387  0  0.959326  0  0  0.163363  0  1.023005  0  0  0.166006  0  1.022457  0  0.087146  0  0.098002  0.161067  0  1.02411  0
H  H52  1  0.53088723  0.65155883  0.88950330  1  0  0.131516  0  0.95859  0  0  0.151669  0  1.017747  0  0  0.153325  0  1.018088  0  0.077988  0  0.094763  0.150538  0  1.017432  0
H  H53  1  0.96910516  0.15155926  0.11049869  1  0  0.131433  0  0.958579  0  0  0.151595  0  1.017732  0  0  0.153251  0  1.018074  0  0.07809  0  0.094725  0.150463  0  1.017418  0
H  H54  1  0.46910516  0.34844120  0.11049915  1  0  0.131473  0  0.958608  0  0  0.151633  0  1.017759  0  0  0.15329  0  1.018101  0  0.078086  0  0.094754  0.150502  0  1.017444  0
H  H55  1  0.03089592  0.84844077  0.88950184  1  0  0.131444  0  0.958595  0  0  0.15161  0  1.017741  0  0  0.153266  0  1.018084  0  0.078104  0  0.094735  0.150478  0  1.017427  0
H  H56  1  0.65404738  0.56864647  0.96373796  1  0  0.152997  0  0.946818  0  0  0.16946  0  1.009751  0  0  0.172402  0  1.008948  0  0.10918  0  0.103224  0.167443  0  1.010091  0
H  H57  1  0.84594718  0.06864780  0.03626266  1  0  0.153011  0  0.946823  0  0  0.169475  0  1.009757  0  0  0.172418  0  1.008953  0  0.109166  0  0.103237  0.167458  0  1.010096  0
H  H58  1  0.34594610  0.43135266  0.03626238  1  0  0.152998  0  0.94684  0  0  0.169477  0  1.009762  0  0  0.172421  0  1.008958  0  0.109144  0  0.103235  0.167459  0  1.010103  0
H  H59  1  0.15405281  0.93135313  0.96373784  1  0  0.153012  0  0.946828  0  0  0.169488  0  1.009754  0  0  0.172433  0  1.008952  0  0.109087  0  0.103244  0.16747  0  1.010095  0
H  H60  1  0.95525190  0.59125778  0.16877343  1  0  0.25388  0  0.93234  0  0  0.246822  0  0.984302  0  0  0.25243  0  0.981208  0  0.463308  0  0.290083  0.242677  0  0.986743  0
H  H61  1  0.54474809  0.09125822  0.83122732  1  0  0.253882  0  0.932333  0  0  0.246824  0  0.984296  0  0  0.252432  0  0.981202  0  0.463305  0  0.290084  0.242679  0  0.986736  0
H  H62  1  0.04474810  0.40874135  0.83122707  1  0  0.253906  0  0.932319  0  0  0.246846  0  0.984277  0  0  0.252455  0  0.981181  0  0.463308  0  0.290088  0.242701  0  0.986717  0
H  H63  1  0.45525190  0.90874181  0.16877246  1  0  0.25392  0  0.932244  0  0  0.246856  0  0.98421  0  0  0.252465  0  0.981118  0  0.463307  0  0.29011  0.242711  0  0.98665  0
C  C64  1  0.69108208  0.03644326  0.22601270  1  0  0.380078  0  3.821931  0  0  0.360457  0  4.083732  0  0  0.382583  0  4.094936  0  0.789913  0  0.112763  0.345831  0  4.075502  0
C  C65  1  0.80892007  0.53644373  0.77398739  1  0  0.380053  0  3.821964  0  0  0.360431  0  4.083779  0  0  0.382558  0  4.094982  0  0.789922  0  0.112742  0.345805  0  4.07555  0
C  C66  1  0.30892008  0.96355587  0.77398714  1  0  0.380054  0  3.82196  0  0  0.360428  0  4.083777  0  0  0.382553  0  4.09498  0  0.789912  0  0.112741  0.345802  0  4.075549  0
C  C67  1  0.19108100  0.46355720  0.22601171  1  0  0.380099  0  3.821898  0  0  0.360497  0  4.083685  0  0  0.382624  0  4.094887  0  0.789927  0  0.112791  0.34587  0  4.075459  0
C  C68  1  0.61073163  0.14647875  0.21304230  1  0  -0.199392  0  3.712186  0  0  -0.220676  0  3.972644  0  0  -0.232236  0  3.992173  0  -0.103198  0  -0.106036  -0.213301  0  3.959465  0
C  C69  1  0.88927053  0.64647921  0.78695779  1  0  -0.199351  0  3.712221  0  0  -0.220631  0  3.972679  0  0  -0.232189  0  3.992205  0  -0.10321  0  -0.106016  -0.213257  0  3.959499  0
C  C70  1  0.38927053  0.85352128  0.78695754  1  0  -0.199356  0  3.712253  0  0  -0.220633  0  3.972706  0  0  -0.232194  0  3.992235  0  -0.103186  0  -0.106006  -0.21326  0  3.959526  0
C  C71  1  0.11073164  0.35352172  0.21304062  1  0  -0.199341  0  3.712065  0  0  -0.2206  0  3.9725  0  0  -0.232163  0  3.99203  0  -0.103204  0  -0.106013  -0.213228  0  3.959323  0
C  C72  1  0.61824956  0.23861031  0.27822096  1  0  -0.068411  0  3.782832  0  0  -0.094419  0  4.044369  0  0  -0.08795  0  4.06319  0  -0.015431  0  -0.080657  -0.098054  0  4.03096  0
C  C73  1  0.88175369  0.73861077  0.72177845  1  0  -0.068377  0  3.782797  0  0  -0.094385  0  4.044333  0  0  -0.087918  0  4.063154  0  -0.015164  0  -0.080617  -0.09802  0  4.030925  0
C  C74  1  0.38175261  0.76138973  0.72177817  1  0  -0.068359  0  3.782819  0  0  -0.094369  0  4.044345  0  0  -0.087899  0  4.063167  0  -0.015176  0  -0.080618  -0.098003  0  4.030936  0
C  C75  1  0.11824847  0.26139016  0.27822068  1  0  -0.068377  0  3.782717  0  0  -0.094387  0  4.044238  0  0  -0.087917  0  4.063059  0  -0.015421  0  -0.080638  -0.098021  0  4.03083  0
C  C76  1  0.70969500  0.22694053  0.36056987  1  0  0.020839  0  3.766268  0  0  0.009755  0  4.02741  0  0  -0.001221  0  4.053101  0  0.20005  0  0.054821  0.016814  0  4.009326  0
C  C77  1  0.79030607  0.72693919  0.63943091  1  0  0.020789  0  3.766289  0  0  0.009695  0  4.027462  0  0  -0.001278  0  4.053149  0  0.200054  0  0.054782  0.016753  0  4.009379  0
C  C78  1  0.29030608  0.77305950  0.63943066  1  0  0.020759  0  3.766292  0  0  0.009677  0  4.027441  0  0  -0.001301  0  4.053135  0  0.20012  0  0.054779  0.016736  0  4.009358  0
C  C79  1  0.20969392  0.27305994  0.36056888  1  0  0.020784  0  3.766248  0  0  0.009704  0  4.027392  0  0  -0.001275  0  4.053089  0  0.200139  0  0.054796  0.016762  0  4.00931  0
C  C80  1  0.78942321  0.12190715  0.37687115  1  0  -0.081534  0  3.721488  0  0  -0.11929  0  3.984175  0  0  -0.11118  0  4.001163  0  0.016984  0  -0.068188  -0.124031  0  3.972229  0
C  C81  1  0.71057569  0.62190852  0.62312957  1  0  -0.081398  0  3.721566  0  0  -0.119166  0  3.984255  0  0  -0.111057  0  4.001241  0  0.016966  0  -0.068144  -0.123905  0  3.972307  0
C  C82  1  0.21057787  0.87809108  0.62312867  1  0  -0.081438  0  3.721498  0  0  -0.119203  0  3.984185  0  0  -0.111093  0  4.00117  0  0.016906  0  -0.068169  -0.123946  0  3.97224  0
C  C83  1  0.28942213  0.37809332  0.37687087  1  0  -0.081454  0  3.721479  0  0  -0.119223  0  3.984165  0  0  -0.111113  0  4.001152  0  0.016898  0  -0.068168  -0.123962  0  3.972217  0
C  C84  1  0.78241350  0.02659948  0.31185256  1  0  -0.109093  0  3.769957  0  0  -0.090485  0  4.014483  0  0  -0.106427  0  4.041625  0  -0.013879  0  -0.030484  -0.080273  0  3.996627  0
C  C85  1  0.71758757  0.52659995  0.68814750  1  0  -0.109223  0  3.769996  0  0  -0.0906  0  4.01453  0  0  -0.106542  0  4.041669  0  -0.013863  0  -0.030521  -0.080387  0  3.996669  0
C  C86  1  0.21758757  0.97339785  0.68814725  1  0  -0.109183  0  3.769922  0  0  -0.090555  0  4.014442  0  0  -0.106495  0  4.041579  0  -0.013836  0  -0.030488  -0.080343  0  3.996582  0
C  C87  1  0.28241351  0.47340009  0.31185232  1  0  -0.109229  0  3.770009  0  0  -0.090614  0  4.014546  0  0  -0.106555  0  4.041684  0  -0.013872  0  -0.030525  -0.080403  0  3.99669  0
C  C88  1  0.86408228  0.92004477  0.33850806  1  0  0.189808  0  3.691985  0  0  0.139958  0  3.954767  0  0  0.156289  0  3.967026  0  0.652252  0  0.084774  0.129227  0  3.946553  0
C  C89  1  0.63591771  0.42004610  0.66149198  1  0  0.189878  0  3.691939  0  0  0.140025  0  3.954717  0  0  0.156358  0  3.966977  0  0.652238  0  0.084805  0.129314  0  3.946507  0
C  C90  1  0.13591771  0.07995346  0.66149173  1  0  0.189846  0  3.69191  0  0  0.139996  0  3.954684  0  0  0.156328  0  3.966942  0  0.65223  0  0.084779  0.129284  0  3.946474  0
C  C91  1  0.36408228  0.57995483  0.33850781  1  0  0.189863  0  3.691931  0  0  0.139998  0  3.95472  0  0  0.156329  0  3.966978  0  0.652684  0  0.084784  0.129271  0  3.946506  0
C  C92  1  0.95413990  0.72102049  0.32953468  1  0  0.002011  0  3.680395  0  0  -0.056586  0  3.946637  0  0  -0.052744  0  3.960585  0  0.334466  0  -0.067147  -0.058838  0  3.937209  0
C  C93  1  0.54586009  0.22102182  0.67046607  1  0  0.002106  0  3.680286  0  0  -0.056563  0  3.946613  0  0  -0.05272  0  3.960561  0  0.334447  0  -0.067148  -0.058816  0  3.937184  0
C  C94  1  0.04586118  0.27897774  0.67046656  1  0  0.002044  0  3.680367  0  0  -0.056647  0  3.946724  0  0  -0.052804  0  3.960675  0  0.334468  0  -0.067151  -0.058896  0  3.937287  0
C  C95  1  0.45414099  0.77897911  0.32953232  1  0  0.002075  0  3.680335  0  0  -0.056594  0  3.946656  0  0  -0.052753  0  3.960606  0  0.334431  0  -0.067145  -0.058846  0  3.937224  0
C  C96  1  0.87555083  0.60490857  0.30182529  1  0  0.009819  0  3.640576  0  0  -0.047901  0  3.904323  0  0  -0.044693  0  3.917529  0  0.272545  0  -0.072172  -0.04989  0  3.895103  0
C  C97  1  0.62444915  0.10490810  0.69817546  1  0  0.009781  0  3.640516  0  0  -0.047947  0  3.904302  0  0  -0.044739  0  3.917507  0  0.272561  0  -0.072193  -0.049931  0  3.895077  0
C  C98  1  0.12444916  0.39509056  0.69817450  1  0  0.009846  0  3.640495  0  0  -0.047879  0  3.904281  0  0  -0.044668  0  3.917482  0  0.272532  0  -0.072172  -0.049863  0  3.895053  0
C  C99  1  0.37555084  0.89509103  0.30182646  1  0  0.009765  0  3.640547  0  0  -0.047971  0  3.904332  0  0  -0.044762  0  3.917534  0  0.27253  0  -0.072195  -0.049956  0  3.895106  0
C  C100  1  0.76365399  0.49683247  0.16706920  1  0  -0.131313  0  3.680391  0  0  -0.228126  0  3.939536  0  0  -0.22523  0  3.95032  0  0.227899  0  -0.151968  -0.230039  0  3.932293  0
C  C101  1  0.73634600  0.99683203  0.83293084  1  0  -0.131426  0  3.680303  0  0  -0.228244  0  3.939431  0  0  -0.225346  0  3.950211  0  0.228018  0  -0.152016  -0.230156  0  3.932187  0
C  C102  1  0.23634600  0.50316756  0.83293059  1  0  -0.131347  0  3.680368  0  0  -0.228158  0  3.939497  0  0  -0.225262  0  3.950282  0  0.228019  0  -0.151991  -0.23007  0  3.932254  0
C  C103  1  0.26365399  0.00316800  0.16706966  1  0  -0.131326  0  3.680266  0  0  -0.22817  0  3.939413  0  0  -0.225269  0  3.950193  0  0.227909  0  -0.151975  -0.230082  0  3.93217  0
C  C104  1  0.60253826  0.65727024  0.95310232  1  0  -0.472862  0  3.648434  0  0  -0.547846  0  3.878168  0  0  -0.555914  0  3.881171  0  -0.143879  0  -0.24897  -0.54158  0  3.875899  0
C  C105  1  0.89745630  0.15727248  0.04689617  1  0  -0.472795  0  3.648344  0  0  -0.54778  0  3.878067  0  0  -0.55585  0  3.88107  0  -0.14385  0  -0.248952  -0.541514  0  3.875805  0
C  C106  1  0.39745522  0.34272889  0.04689660  1  0  -0.472806  0  3.648421  0  0  -0.547806  0  3.878136  0  0  -0.555878  0  3.88114  0  -0.143868  0  -0.248967  -0.541533  0  3.875855  0
C  C107  1  0.10254478  0.84272755  0.95310436  1  0  -0.47279  0  3.648438  0  0  -0.547784  0  3.878152  0  0  -0.555857  0  3.881157  0  -0.143774  0  -0.248952  -0.541513  0  3.875878  0
C  C108  1  0.51750851  0.68801020  0.03917113  1  0  0.760677  0  3.801803  0  0  0.719806  0  4.086603  0  0  0.754385  0  4.078695  0  1.503633  0  0.219848  0.695826  0  4.091419  0
C  C109  1  0.98248930  0.18800974  0.96082885  1  0  0.760708  0  3.801654  0  0  0.719832  0  4.086463  0  0  0.754408  0  4.078555  0  1.503631  0  0.219859  0.695853  0  4.091276  0
C  C110  1  0.48248930  0.31199073  0.96082860  1  0  0.760689  0  3.8016  0  0  0.719815  0  4.086411  0  0  0.754391  0  4.078504  0  1.503637  0  0.219855  0.695836  0  4.091225  0
C  C111  1  0.01751069  0.81199120  0.03917165  1  0  0.760665  0  3.801628  0  0  0.719782  0  4.08647  0  0  0.754358  0  4.078564  0  1.503624  0  0.219824  0.695804  0  4.091284  0
N  N112  1  0.72090184  0.32356407  0.42797224  1  0  0.489558  0  3.937553  0  0  0.524651  0  4.227516  0  0  0.546886  0  4.23767  0  0.296088  0  0.036092  0.509921  0  4.220293  0
N  N113  1  0.77909923  0.82356453  0.57202853  1  0  0.489526  0  3.93753  0  0  0.524613  0  4.22751  0  0  0.546846  0  4.237667  0  0.296114  0  0.036043  0.509882  0  4.220289  0
N  N114  1  0.27909815  0.67643506  0.57202755  1  0  0.489567  0  3.937469  0  0  0.524661  0  4.227435  0  0  0.546896  0  4.237589  0  0.296117  0  0.036056  0.50993  0  4.220214  0
N  N115  1  0.22090184  0.17643640  0.42797199  1  0  0.489569  0  3.937568  0  0  0.524654  0  4.227539  0  0  0.546891  0  4.237697  0  0.296096  0  0.036077  0.509924  0  4.220319  0
N  N116  1  0.87227131  0.82231446  0.28915734  1  0  -0.358996  0  3.24701  0  0  -0.276687  0  3.540392  0  0  -0.298401  0  3.553489  0  -1.223697  0  -0.350039  -0.262454  0  3.531108  0
N  N117  1  0.62772868  0.32231399  0.71084269  1  0  -0.359003  0  3.246997  0  0  -0.276677  0  3.5404  0  0  -0.298395  0  3.553504  0  -1.223668  0  -0.350028  -0.262442  0  3.531109  0
N  N118  1  0.12772868  0.17768557  0.71084244  1  0  -0.358996  0  3.247036  0  0  -0.276671  0  3.540447  0  0  -0.298384  0  3.553543  0  -1.22367  0  -0.350025  -0.262436  0  3.531152  0
N  N119  1  0.37227240  0.67768604  0.28915712  1  0  -0.358977  0  3.246994  0  0  -0.276649  0  3.540383  0  0  -0.29836  0  3.553477  0  -1.224154  0  -0.350035  -0.262415  0  3.531096  0
N  N120  1  0.85436860  0.59983346  0.19728462  1  0  -0.393325  0  3.251269  0  0  -0.310336  0  3.505632  0  0  -0.328645  0  3.515728  0  -1.141718  0  -0.485453  -0.297461  0  3.498411  0
N  N121  1  0.64563139  0.09983390  0.80271542  1  0  -0.393309  0  3.251266  0  0  -0.310313  0  3.505623  0  0  -0.328622  0  3.515719  0  -1.141723  0  -0.48544  -0.29744  0  3.498401  0
N  N122  1  0.14563139  0.40016567  0.80271517  1  0  -0.393387  0  3.25131  0  0  -0.31038  0  3.505654  0  0  -0.32869  0  3.51575  0  -1.141713  0  -0.485445  -0.297506  0  3.498431  0
N  N123  1  0.35436860  0.90016704  0.19728508  1  0  -0.393323  0  3.251156  0  0  -0.310324  0  3.505545  0  0  -0.328633  0  3.515636  0  -1.141696  0  -0.485466  -0.29745  0  3.498322  0
O  O124  1  0.80636922  0.31299566  0.49888123  1  0  -0.404239  0  1.737523  0  0  -0.385543  0  1.945424  0  0  -0.397103  0  1.941757  0  -0.505555  0  -0.159178  -0.377639  0  1.9478  0
O  O125  1  0.69363294  0.81299522  0.50111814  1  0  -0.40423  0  1.737493  0  0  -0.385524  0  1.945381  0  0  -0.397082  0  1.941714  0  -0.505544  0  -0.159135  -0.377617  0  1.947759  0
O  O126  1  0.19363078  0.68700437  0.50111784  1  0  -0.404277  0  1.737512  0  0  -0.385572  0  1.945403  0  0  -0.397131  0  1.941736  0  -0.505568  0  -0.159168  -0.377667  0  1.94778  0
O  O127  1  0.30636705  0.18700481  0.49888093  1  0  -0.404221  0  1.737562  0  0  -0.385513  0  1.945441  0  0  -0.397073  0  1.941775  0  -0.505537  0  -0.159132  -0.37761  0  1.94782  0
O  O128  1  0.64429135  0.41594348  0.41360858  1  0  -0.420389  0  1.74725  0  0  -0.399182  0  1.963726  0  0  -0.412148  0  1.959185  0  -0.525718  0  -0.160383  -0.390464  0  1.966843  0
O  O129  1  0.85570864  0.91594394  0.58639146  1  0  -0.420372  0  1.74727  0  0  -0.399154  0  1.963743  0  0  -0.412119  0  1.959205  0  -0.525731  0  -0.160369  -0.390437  0  1.966862  0
O  O130  1  0.35570973  0.58405565  0.58639052  1  0  -0.420372  0  1.74719  0  0  -0.399167  0  1.963668  0  0  -0.412132  0  1.959128  0  -0.525751  0  -0.160365  -0.39045  0  1.966787  0
O  O131  1  0.14429135  0.08405609  0.41360762  1  0  -0.420402  0  1.747219  0  0  -0.399187  0  1.963692  0  0  -0.412155  0  1.959154  0  -0.525717  0  -0.16039  -0.390468  0  1.966811  0
O  O132  1  0.67613311  0.95240794  0.16315993  1  0  -0.579794  0  2.045712  0  0  -0.51757  0  2.296801  0  0  -0.543838  0  2.288465  0  -1.154667  0  -0.315493  -0.499045  0  2.301691  0
O  O133  1  0.82386796  0.45240837  0.83684013  1  0  -0.579747  0  2.04567  0  0  -0.517541  0  2.296769  0  0  -0.543812  0  2.288439  0  -1.154665  0  -0.31549  -0.499016  0  2.301659  0
O  O134  1  0.32386905  0.04759210  0.83683991  1  0  -0.579736  0  2.045643  0  0  -0.517532  0  2.296747  0  0  -0.543803  0  2.288418  0  -1.154661  0  -0.315485  -0.499005  0  2.301638  0
O  O135  1  0.17613203  0.54759346  0.16315966  1  0  -0.579798  0  2.045697  0  0  -0.517595  0  2.296783  0  0  -0.543865  0  2.28845  0  -1.1547  0  -0.31553  -0.499068  0  2.301674  0
O  O136  1  0.58107368  0.72241567  0.11637833  1  0  -0.65776  0  2.093815  0  0  -0.584279  0  2.362835  0  0  -0.612468  0  2.347995  0  -1.198005  0  -0.318027  -0.563905  0  2.37218  0
O  O137  1  0.91892522  0.22241340  0.88362168  1  0  -0.657714  0  2.093715  0  0  -0.584247  0  2.362746  0  0  -0.612427  0  2.347901  0  -1.198025  0  -0.318004  -0.563873  0  2.372091  0
O  O138  1  0.41892414  0.27758616  0.88362140  1  0  -0.657718  0  2.093697  0  0  -0.584254  0  2.362735  0  0  -0.612434  0  2.34789  0  -1.19803  0  -0.318028  -0.56388  0  2.37208  0
O  O139  1  0.08107477  0.77758753  0.11637953  1  0  -0.657702  0  2.093701  0  0  -0.584235  0  2.362736  0  0  -0.612413  0  2.347888  0  -1.198027  0  -0.318013  -0.563863  0  2.372081  0
O  O140  1  0.37913659  0.67597271  0.03323941  1  0  -0.63763  0  2.010837  0  0  -0.562782  0  2.2636  0  0  -0.591644  0  2.250514  0  -1.138796  0  -0.317411  -0.542522  0  2.272875  0
O  O141  1  0.12086340  0.17596954  0.96676226  1  0  -0.63769  0  2.010764  0  0  -0.562817  0  2.263521  0  0  -0.591677  0  2.250434  0  -1.138773  0  -0.31742  -0.542556  0  2.272796  0
O  O142  1  0.62086340  0.32402913  0.96676322  1  0  -0.637685  0  2.010757  0  0  -0.562819  0  2.263514  0  0  -0.591679  0  2.250432  0  -1.138759  0  -0.317422  -0.542558  0  2.272791  0
O  O143  1  0.87913659  0.82403050  0.03323681  1  0  -0.637673  0  2.010738  0  0  -0.562815  0  2.263519  0  0  -0.591677  0  2.250434  0  -1.138767  0  -0.31741  -0.542555  0  2.272795  0
