# generated using pymatgen
data_GdPH11C9SNO9
_symmetry_space_group_name_H-M   'P 1'
_cell_length_a   6.78689038
_cell_length_b   7.54442317
_cell_length_c   13.35630349
_cell_angle_alpha   90.68616577
_cell_angle_beta   93.22789573
_cell_angle_gamma   101.86742544
_symmetry_Int_Tables_number   1
_chemical_formula_structural   GdPH11C9SNO9
_chemical_formula_sum   'Gd2 P2 H22 C18 S2 N2 O18'
_cell_volume   668.01178001
_cell_formula_units_Z   2
loop_
 _symmetry_equiv_pos_site_id
 _symmetry_equiv_pos_as_xyz
  1  'x, y, z'
loop_
 _atom_site_type_symbol
 _atom_site_label
 _atom_site_symmetry_multiplicity
 _atom_site_fract_x
 _atom_site_fract_y
 _atom_site_fract_z
 _atom_site_occupancy
 _atom_site_hle17_bader_spin_density
 _atom_site_hle17_ddec_charge
 _atom_site_hle17_ddec_spin_density
 _atom_site_hle17_ddec_sum_bond_order
 _atom_site_hle17_magmom
 _atom_site_hse06_10hf_bader_spin_density
 _atom_site_hse06_10hf_ddec_charge
 _atom_site_hse06_10hf_ddec_spin_density
 _atom_site_hse06_10hf_ddec_sum_bond_order
 _atom_site_hse06_10hf_magmom
 _atom_site_hse06_bader_spin_density
 _atom_site_hse06_ddec_charge
 _atom_site_hse06_ddec_spin_density
 _atom_site_hse06_ddec_sum_bond_order
 _atom_site_hse06_magmom
 _atom_site_pbe_bader_spin_density
 _atom_site_pbe_cm5_charge
 _atom_site_pbe_ddec_charge
 _atom_site_pbe_ddec_spin_density
 _atom_site_pbe_ddec_sum_bond_order
 _atom_site_pbe_magmom
Gd  Gd0  1  0.28510402  0.76857195  0.45497403  1  0  2.295763  0  1.73892  0  0  2.223954  0  2.070425  0  0  2.26513  0  2.0279  0  0  1.506454  2.188283  0  2.110202  0
Gd  Gd1  1  0.71489593  0.23142747  0.54502498  1  0  2.295759  0  1.738914  0  0  2.22394  0  2.070427  0  0  2.265115  0  2.027901  0  0  1.506446  2.188277  0  2.110189  0
P  P2  1  0.25014809  0.38519101  0.62225319  1  0  1.530048  0  4.9262  0  0  1.365999  0  5.435382  0  0  1.418643  0  5.390596  0  0  0.380634  1.329391  0  5.464141  0
P  P3  1  0.74985481  0.61480841  0.37774590  1  0  1.529954  0  4.926307  0  0  1.365879  0  5.435493  0  0  1.418528  0  5.390695  0  0  0.380572  1.329271  0  5.46425  0
H  H4  1  0.16140277  0.10603716  0.77579798  1  0  0.131614  0  0.930384  0  0  0.142549  0  0.983993  0  0  0.146379  0  0.982377  0  0  0.123905  0.139689  0  0.985516  0
H  H5  1  0.83860403  0.89396632  0.22420199  1  0  0.131577  0  0.930578  0  0  0.142583  0  0.984081  0  0  0.146392  0  0.982494  0  0  0.123972  0.139722  0  0.985603  0
H  H6  1  0.16386985  0.12613602  0.96280658  1  0  0.096396  0  0.92681  0  0  0.111509  0  0.98218  0  0  0.113874  0  0.980425  0  0  0.113513  0.109816  0  0.983393  0
H  H7  1  0.83613042  0.87386475  0.03719319  1  0  0.096373  0  0.926812  0  0  0.111509  0  0.982156  0  0  0.113874  0  0.980399  0  0  0.113505  0.109816  0  0.98337  0
H  H8  1  0.21031819  0.32022339  0.12098991  1  0  0.115868  0  0.957854  0  0  0.124987  0  1.018975  0  0  0.12852  0  1.016457  0  0  0.105819  0.122319  0  1.020892  0
H  H9  1  0.78967259  0.67977470  0.87900958  1  0  0.115889  0  0.957831  0  0  0.124951  0  1.019024  0  0  0.128522  0  1.016453  0  0  0.105837  0.122283  0  1.020939  0
H  H10  1  0.27388414  0.62776148  0.19971064  1  0  0.122001  0  0.951926  0  0  0.12998  0  1.013775  0  0  0.13328  0  1.012366  0  0  0.114503  0.127518  0  1.014965  0
H  H11  1  0.72611433  0.37223795  0.80028982  1  0  0.122026  0  0.951909  0  0  0.130003  0  1.013754  0  0  0.133303  0  1.012345  0  0  0.114519  0.127541  0  1.014943  0
H  H12  1  0.33649360  0.89877670  0.09652520  1  0  0.097332  0  0.95008  0  0  0.106912  0  1.011675  0  0  0.109886  0  1.009694  0  0  0.104369  0.104701  0  1.013187  0
H  H13  1  0.66350783  0.10122273  0.90347610  1  0  0.097304  0  0.950023  0  0  0.106885  0  1.011628  0  0  0.109859  0  1.009647  0  0  0.104346  0.104674  0  1.01314  0
H  H14  1  0.33801976  0.86980411  0.90839215  1  0  0.119768  0  0.966679  0  0  0.12789  0  1.029656  0  0  0.131202  0  1.028484  0  0  0.108023  0.125457  0  1.030625  0
H  H15  1  0.66198198  0.13019667  0.09160917  1  0  0.119802  0  0.966661  0  0  0.127922  0  1.029638  0  0  0.131234  0  1.028467  0  0  0.108023  0.125489  0  1.030606  0
H  H16  1  0.31275733  0.67607810  0.76741399  1  0  0.315988  0  0.902319  0  0  0.291529  0  0.969004  0  0  0.30097  0  0.961483  0  0  0.317752  0.284779  0  0.974501  0
H  H17  1  0.68724504  0.32392538  0.23258661  1  0  0.316009  0  0.902284  0  0  0.291555  0  0.968965  0  0  0.300995  0  0.961446  0  0  0.317773  0.284807  0  0.974464  0
H  H18  1  0.22877861  0.38879666  0.34306645  1  0  0.461477  0  0.825045  0  0  0.433206  0  0.882183  0  0  0.4436  0  0.86702  0  0  0.308079  0.425816  0  0.892941  0
H  H19  1  0.77122134  0.61120276  0.65693256  1  0  0.461485  0  0.82503  0  0  0.433217  0  0.882164  0  0  0.443612  0  0.867  0  0  0.308093  0.425827  0  0.892923  0
H  H20  1  0.02255413  0.41786576  0.38384876  1  0  0.432551  0  0.866022  0  0  0.40405  0  0.927  0  0  0.414106  0  0.912014  0  0  0.310529  0.396955  0  0.937514  0
H  H21  1  0.97744613  0.58213502  0.61615101  1  0  0.432615  0  0.865941  0  0  0.404121  0  0.926897  0  0  0.414176  0  0.911911  0  0  0.310565  0.397024  0  0.937413  0
H  H22  1  0.22803239  0.91899225  0.64657060  1  0  0.419277  0  0.892581  0  0  0.389882  0  0.955101  0  0  0.400081  0  0.940014  0  0  0.296784  0.382705  0  0.965703  0
H  H23  1  0.77196841  0.08100446  0.35343066  1  0  0.419278  0  0.892589  0  0  0.389874  0  0.955127  0  0  0.400073  0  0.94004  0  0  0.296741  0.382696  0  0.965731  0
H  H24  1  0.10729690  0.03777268  0.57922329  1  0  0.444759  0  0.853156  0  0  0.418429  0  0.908881  0  0  0.42879  0  0.893801  0  0  0.307939  0.411133  0  0.919432  0
H  H25  1  0.89270095  0.96222405  0.42077939  1  0  0.444798  0  0.853094  0  0  0.418464  0  0.908829  0  0  0.428824  0  0.893749  0  0  0.307946  0.411167  0  0.91938  0
C  C26  1  0.23807616  0.39537546  0.75955695  1  0  0.019536  0  3.550851  0  0  0.026059  0  3.804698  0  0  0.033268  0  3.815346  0  0  0.150027  0.021136  0  3.798047  0
C  C27  1  0.76192706  0.60462531  0.24044216  1  0  0.019444  0  3.550987  0  0  0.026058  0  3.804718  0  0  0.033268  0  3.815363  0  0  0.150014  0.021137  0  3.798069  0
C  C28  1  0.19403706  0.23628392  0.81545486  1  0  -0.073145  0  3.674172  0  0  -0.095348  0  3.929983  0  0  -0.102936  0  3.948654  0  0  -0.06042  -0.09079  0  3.918133  0
C  C29  1  0.80596795  0.76371820  0.18454581  1  0  -0.073116  0  3.67434  0  0  -0.095407  0  3.93015  0  0  -0.102981  0  3.94883  0  0  -0.060477  -0.090848  0  3.918299  0
C  C30  1  0.19454142  0.24837758  0.91847872  1  0  -0.018946  0  3.666892  0  0  -0.047058  0  3.919247  0  0  -0.04107  0  3.934953  0  0  -0.048058  -0.050787  0  3.908724  0
C  C31  1  0.80545916  0.75162455  0.08152032  1  0  -0.018849  0  3.66681  0  0  -0.046984  0  3.919154  0  0  -0.040995  0  3.934855  0  0  -0.048029  -0.050714  0  3.908632  0
C  C32  1  0.23373461  0.41895586  0.96896668  1  0  0.004589  0  3.812739  0  0  0.024102  0  4.040945  0  0  0.019481  0  4.066739  0  0  9.2e-05  0.026855  0  4.023855  0
C  C33  1  0.76626745  0.58104627  0.03103315  1  0  0.004386  0  3.812834  0  0  0.023976  0  4.040992  0  0  0.019352  0  4.066795  0  0  3.5e-05  0.026728  0  4.023903  0
C  C34  1  0.23567667  0.43985946  0.07457632  1  0  -0.100387  0  3.709763  0  0  -0.125437  0  3.965638  0  0  -0.12682  0  3.986775  0  0  -0.083618  -0.124129  0  3.951491  0
C  C35  1  0.76432033  0.56013997  0.92542410  1  0  -0.10029  0  3.709784  0  0  -0.125317  0  3.965637  0  0  -0.126723  0  3.986745  0  0  -0.083593  -0.124008  0  3.951488  0
C  C36  1  0.27291368  0.61050167  0.11867464  1  0  -0.047975  0  3.695343  0  0  -0.067325  0  3.954077  0  0  -0.071307  0  3.976836  0  0  -0.081109  -0.064877  0  3.93916  0
C  C37  1  0.72708806  0.38949911  0.88132593  1  0  -0.048086  0  3.695393  0  0  -0.0674  0  3.95408  0  0  -0.071384  0  3.976847  0  0  -0.081163  -0.064953  0  3.939161  0
C  C38  1  0.30846022  0.76611754  0.05891904  1  0  -0.030863  0  3.742304  0  0  -0.047677  0  3.99824  0  0  -0.0471  0  4.019588  0  0  -0.077145  -0.047793  0  3.983812  0
C  C39  1  0.69154268  0.23388188  0.94108230  1  0  -0.030784  0  3.742259  0  0  -0.047607  0  3.998181  0  0  -0.047031  0  4.019529  0  0  -0.077123  -0.047726  0  3.983758  0
C  C40  1  0.30883516  0.75165320  0.95569057  1  0  -0.178412  0  3.717842  0  0  -0.198072  0  3.971985  0  0  -0.204813  0  3.993355  0  0  -0.092176  -0.193588  0  3.957558  0
C  C41  1  0.69116985  0.24834893  0.04431084  1  0  -0.178573  0  3.717849  0  0  -0.198199  0  3.972024  0  0  -0.204942  0  3.993397  0  0  -0.092198  -0.193715  0  3.957598  0
C  C42  1  0.27236186  0.57728140  0.91000047  1  0  0.216819  0  3.717743  0  0  0.207537  0  3.954515  0  0  0.214595  0  3.976303  0  0  0.124935  0.20292  0  3.939958  0
C  C43  1  0.72763903  0.42272209  0.09000009  1  0  0.217093  0  3.717511  0  0  0.207692  0  3.954401  0  0  0.21475  0  3.97619  0  0  0.125027  0.203074  0  3.939846  0
S  S44  1  0.39822970  0.08154445  0.30839883  1  0  1.584307  0  5.834383  0  0  1.458839  0  6.392453  0  0  1.514739  0  6.353966  0  0  0.561271  1.420235  0  6.417114  0
S  S45  1  0.60176646  0.91845769  0.69160084  1  0  1.584269  0  5.834282  0  0  1.458783  0  6.392375  0  0  1.514686  0  6.353888  0  0  0.561257  1.420181  0  6.417032  0
N  N46  1  0.27388314  0.55632265  0.80778648  1  0  -0.233339  0  3.438859  0  0  -0.169488  0  3.650639  0  0  -0.184623  0  3.666281  0  0  -0.325298  -0.15968  0  3.64055  0
N  N47  1  0.72612008  0.44367813  0.19221338  1  0  -0.233373  0  3.438845  0  0  -0.16951  0  3.650608  0  0  -0.184647  0  3.666254  0  0  -0.325328  -0.159705  0  3.640523  0
O  O48  1  0.24615066  0.57803560  0.58955627  1  0  -0.951823  0  2.052464  0  0  -0.882282  0  2.319731  0  0  -0.907291  0  2.297524  0  0  -0.454634  -0.863659  0  2.334103  0
O  O49  1  0.75385013  0.42196111  0.41044275  1  0  -0.951757  0  2.05247  0  0  -0.88222  0  2.319742  0  0  -0.907225  0  2.297539  0  0  -0.454611  -0.863599  0  2.334113  0
O  O50  1  0.44254426  0.32049918  0.60516136  1  0  -0.922675  0  1.994096  0  0  -0.860644  0  2.272245  0  0  -0.887185  0  2.250637  0  0  -0.456954  -0.840399  0  2.28582  0
O  O51  1  0.55745653  0.67949753  0.39483916  1  0  -0.922656  0  1.994101  0  0  -0.860617  0  2.272236  0  0  -0.887157  0  2.250629  0  0  -0.456927  -0.840378  0  2.285829  0
O  O52  1  0.05921768  0.24842224  0.58629087  1  0  -0.931439  0  2.050618  0  0  -0.855475  0  2.305411  0  0  -0.883346  0  2.286318  0  0  -0.435899  -0.834775  0  2.317652  0
O  O53  1  0.94078375  0.75157719  0.41371118  1  0  -0.93139  0  2.050605  0  0  -0.855464  0  2.305474  0  0  -0.883336  0  2.286382  0  0  -0.435891  -0.834763  0  2.317716  0
O  O54  1  0.27123771  0.89845590  0.28631130  1  0  -0.779618  0  1.982249  0  0  -0.740314  0  2.25341  0  0  -0.761567  0  2.237552  0  0  -0.398007  -0.724566  0  2.263525  0
O  O55  1  0.72876403  0.10154488  0.71368852  1  0  -0.779623  0  1.982283  0  0  -0.740311  0  2.25345  0  0  -0.761564  0  2.237589  0  0  -0.397981  -0.724563  0  2.263564  0
O  O56  1  0.43439033  0.08792735  0.42201554  1  0  -0.902605  0  2.091884  0  0  -0.858478  0  2.370329  0  0  -0.879728  0  2.351551  0  0  -0.45458  -0.842087  0  2.38218  0
O  O57  1  0.56560877  0.91207478  0.57798346  1  0  -0.902547  0  2.091841  0  0  -0.858403  0  2.370268  0  0  -0.879654  0  2.351492  0  0  -0.454542  -0.842018  0  2.382132  0
O  O58  1  0.29952216  0.22724759  0.27387359  1  0  -0.690238  0  1.944819  0  0  -0.630399  0  2.179222  0  0  -0.651244  0  2.161068  0  0  -0.336388  -0.615793  0  2.191357  0
O  O59  1  0.70047157  0.77275048  0.72612449  1  0  -0.690212  0  1.944708  0  0  -0.630378  0  2.179116  0  0  -0.651229  0  2.160967  0  0  -0.3364  -0.615771  0  2.191248  0
O  O60  1  0.59653258  0.09966892  0.26130840  1  0  -0.729535  0  1.979206  0  0  -0.666959  0  2.218499  0  0  -0.689389  0  2.202181  0  0  -0.342107  -0.651115  0  2.229242  0
O  O61  1  0.40346505  0.90033322  0.73869206  1  0  -0.72955  0  1.979169  0  0  -0.666945  0  2.218435  0  0  -0.689386  0  2.202123  0  0  -0.342132  -0.651106  0  2.229183  0
O  O62  1  0.15909874  0.48200356  0.36915554  1  0  -0.920458  0  1.869154  0  0  -0.882174  0  2.061196  0  0  -0.90007  0  2.029227  0  0  -0.639801  -0.868686  0  2.083466  0
O  O63  1  0.84090300  0.51799722  0.63084428  1  0  -0.920531  0  1.869085  0  0  -0.882253  0  2.061121  0  0  -0.900148  0  2.029149  0  0  -0.63985  -0.868766  0  2.083391  0
O  O64  1  0.13864163  0.91459072  0.58470269  1  0  -0.896674  0  1.866126  0  0  -0.860334  0  2.05395  0  0  -0.878104  0  2.023011  0  0  -0.648444  -0.847028  0  2.075426  0
O  O65  1  0.86135801  0.08540735  0.41529855  1  0  -0.896685  0  1.866024  0  0  -0.86034  0  2.053852  0  0  -0.878111  0  2.022915  0  0  -0.648414  -0.847034  0  2.075328  0
