# generated using pymatgen
data_NiH9C13NO5
_symmetry_space_group_name_H-M   'P 1'
_cell_length_a   7.13236473
_cell_length_b   10.09036033
_cell_length_c   9.89284962
_cell_angle_alpha   112.85171827
_cell_angle_beta   96.73598402
_cell_angle_gamma   107.18729489
_symmetry_Int_Tables_number   1
_chemical_formula_structural   NiH9C13NO5
_chemical_formula_sum   'Ni2 H18 C26 N2 O10'
_cell_volume   604.62546577
_cell_formula_units_Z   2
loop_
 _symmetry_equiv_pos_site_id
 _symmetry_equiv_pos_as_xyz
  1  'x, y, z'
loop_
 _atom_site_type_symbol
 _atom_site_label
 _atom_site_symmetry_multiplicity
 _atom_site_fract_x
 _atom_site_fract_y
 _atom_site_fract_z
 _atom_site_occupancy
 _atom_site_hle17_ddec_charge
 _atom_site_hle17_ddec_spin_density
 _atom_site_hle17_ddec_sum_bond_order
 _atom_site_hle17_magmom
 _atom_site_hse06_10hf_ddec_charge
 _atom_site_hse06_10hf_ddec_spin_density
 _atom_site_hse06_10hf_ddec_sum_bond_order
 _atom_site_hse06_10hf_magmom
 _atom_site_hse06_ddec_charge
 _atom_site_hse06_ddec_spin_density
 _atom_site_hse06_ddec_sum_bond_order
 _atom_site_hse06_magmom
 _atom_site_pbe_cm5_charge
 _atom_site_pbe_ddec_charge
 _atom_site_pbe_ddec_spin_density
 _atom_site_pbe_ddec_sum_bond_order
 _atom_site_pbe_magmom
Ni  Ni0  1  0.08459597  0.87982302  0.87695824  1  0.897678  1.767465  1.860032  1.507  0.90356  1.825548  2.25158  1.636  1.005937  1.879634  2.168412  1.724  0.630601  0.825768  1.777827  2.315491  1.56
Ni  Ni1  1  0.91540529  0.12017950  0.12304176  1  0.897678  1.767466  1.860041  1.507  0.903561  1.825552  2.251586  1.636  1.005918  1.879633  2.168444  1.724  0.630604  0.825778  1.777859  2.315471  1.56
H  H2  1  0.43986567  0.99397086  0.82774417  1  0.422844  -0.000151  0.876512  -0.001  0.396176  0.000491  0.93492  0.001  0.407526  0.000239  0.918901  0.0  0.291115  0.388099  0.000767  0.946175  0.001
H  H3  1  0.56013259  0.00602818  0.17225313  1  0.422831  -0.000151  0.876513  -0.001  0.396171  0.000491  0.934922  0.001  0.407521  0.00024  0.918903  0.0  0.291107  0.388091  0.000767  0.946182  0.001
H  H4  1  0.24846050  0.99679301  0.73273905  1  0.408406  -0.001254  0.889148  -0.002  0.381614  -0.00039  0.958008  -0.001  0.392571  -0.000513  0.942373  -0.001  0.291338  0.373822  -0.000228  0.969068  0.0
H  H5  1  0.75153800  0.00320949  0.26725865  1  0.40843  -0.001254  0.889112  -0.002  0.38165  -0.00039  0.95795  -0.001  0.392603  -0.000513  0.94232  -0.001  0.291378  0.37386  -0.000228  0.969006  0.0
H  H6  1  0.11975257  0.42267099  0.83248753  1  0.110971  0.00036  0.937852  0.0  0.118724  0.00026  1.002668  0.0  0.122652  0.000177  0.99986  0.0  0.110409  0.116056  0.000393  1.004445  0.0
H  H7  1  0.88024234  0.57733024  0.16751434  1  0.110946  0.00036  0.937877  0.0  0.118678  0.00026  1.00273  0.0  0.122604  0.000178  0.999921  0.0  0.11039  0.11601  0.000393  1.004503  0.0
H  H8  1  0.45435800  0.81137516  0.26609933  1  0.097102  0.00033  0.959368  0.0  0.107392  0.000342  1.022919  0.0  0.111208  0.000238  1.019471  0.0  0.10764  0.104468  0.000466  1.025686  0.0
H  H9  1  0.54564930  0.18862517  0.73390041  1  0.097062  0.00033  0.959387  0.0  0.107427  0.000342  1.022865  0.0  0.111243  0.000238  1.019415  0.0  0.107673  0.104503  0.000466  1.025631  0.0
H  H10  1  0.39157969  0.34910909  0.19456887  1  0.101513  -5.9e-05  0.953787  0.0  0.110085  -6.6e-05  1.018683  0.0  0.112887  -8.7e-05  1.017241  0.0  0.107997  0.108274  -5e-05  1.019413  0.0
H  H11  1  0.60842854  0.65089012  0.80542951  1  0.101516  -5.9e-05  0.953838  0.0  0.110106  -6.6e-05  1.018715  0.0  0.112911  -8.6e-05  1.017264  0.0  0.108011  0.108296  -5e-05  1.019444  0.0
H  H12  1  0.49226562  0.84898344  0.50988284  1  0.108605  0.00056  0.940374  0.0  0.120549  0.000601  0.995522  0.0  0.124014  0.000409  0.993994  0.0  0.108406  0.117757  0.000792  0.99738  0.001
H  H13  1  0.50773463  0.15101341  0.49010873  1  0.108605  0.00056  0.940349  0.0  0.120533  0.000601  0.995521  0.0  0.124018  0.000409  0.99397  0.0  0.108416  0.117744  0.000792  0.997376  0.001
H  H14  1  0.75396509  0.96057483  0.75327230  1  0.095538  0.000681  0.975645  0.002  0.098057  0.000461  1.045862  0.001  0.100303  0.000226  1.043528  0.001  0.117581  0.096142  0.000703  1.047891  0.002
H  H15  1  0.24602273  0.03942290  0.24672239  1  0.095556  0.000682  0.975537  0.002  0.098046  0.000462  1.045795  0.001  0.100293  0.000226  1.043462  0.001  0.117568  0.096127  0.000703  1.047817  0.002
H  H16  1  0.95750885  0.59865566  0.59546057  1  0.092524  0.000794  0.938738  0.002  0.101592  0.000616  0.999151  0.002  0.103781  0.000398  0.99683  0.001  0.122387  0.099823  0.000839  1.001172  0.002
H  H17  1  0.04249181  0.40134907  0.40454632  1  0.092534  0.000794  0.938743  0.002  0.101581  0.000616  0.999173  0.002  0.103791  0.000398  0.996826  0.001  0.122374  0.099812  0.000839  1.00119  0.002
H  H18  1  0.71435747  0.47545700  0.33978781  1  0.11559  0.000438  0.955844  0.0  0.124315  0.000422  1.018337  0.0  0.127719  0.000282  1.017371  0.0  0.108822  0.121807  0.000543  1.018979  0.001
H  H19  1  0.28565010  0.52454100  0.66021306  1  0.115607  0.000439  0.956004  0.0  0.124309  0.000422  1.018512  0.0  0.127712  0.000282  1.017547  0.0  0.108834  0.121801  0.000543  1.019155  0.001
C  C20  1  0.16638871  0.19826895  0.90501400  1  0.650049  -0.006912  3.856162  -0.006  0.606502  -0.000697  4.151998  -0.001  0.644437  -0.000819  4.144417  -0.001  0.217278  0.579627  -0.000298  4.156474  -0.001
C  C21  1  0.83361763  0.80173248  0.09498811  1  0.650033  -0.006915  3.856129  -0.006  0.606473  -0.000696  4.151963  -0.001  0.644405  -0.000817  4.144387  -0.001  0.217273  0.579598  -0.000298  4.156438  -0.001
C  C22  1  0.24454828  0.36872082  0.00505773  1  -0.062004  0.005415  3.768229  0.008  -0.037461  0.002103  4.003521  0.003  -0.048072  0.001531  4.02669  0.003  -0.01495  -0.030788  0.002582  3.988905  0.004
C  C23  1  0.75545436  0.63128172  0.99494343  1  -0.061976  0.005423  3.768226  0.008  -0.037417  0.002103  4.003486  0.003  -0.048028  0.001531  4.026654  0.003  -0.014955  -0.030743  0.002582  3.988869  0.004
C  C24  1  0.20796537  0.46844152  0.94915607  1  -0.046101  -0.004756  3.673026  -0.003  -0.083644  -0.000438  3.921398  0.0  -0.079432  -0.000961  3.9393  0.0  -0.065735  -0.086976  -0.000208  3.910369  0.0
C  C25  1  0.79203096  0.53155973  0.05084595  1  -0.04606  -0.004772  3.672923  -0.003  -0.083602  -0.000438  3.921272  0.0  -0.079382  -0.000962  3.939174  0.0  -0.065704  -0.086936  -0.000208  3.910245  0.0
C  C26  1  0.28174348  0.62812342  0.04452501  1  -0.076518  0.00446  3.784143  0.005  -0.048233  0.001794  4.018206  0.002  -0.058374  0.001393  4.04079  0.002  -0.02039  -0.042262  0.00233  4.004101  0.003
C  C27  1  0.71825120  0.37187434  0.95547646  1  -0.076488  0.004467  3.784162  0.005  -0.048179  0.001794  4.018214  0.002  -0.058339  0.001394  4.040819  0.002  -0.020395  -0.042205  0.002329  4.004104  0.003
C  C28  1  0.39482385  0.68694742  0.19425380  1  -0.068376  -0.00541  3.664822  -0.003  -0.106462  -0.000932  3.912256  0.0  -0.102394  -0.001246  3.928201  -0.001  -0.069509  -0.108857  -0.000785  3.901827  0.0
C  C29  1  0.60518298  0.31305516  0.80574983  1  -0.068398  -0.005426  3.66492  -0.003  -0.106588  -0.000933  3.912351  0.0  -0.10251  -0.001246  3.928295  -0.001  -0.069571  -0.108983  -0.000786  3.901923  0.0
C  C30  1  0.44143482  0.58838535  0.24933187  1  0.03767  0.002482  3.768227  0.004  0.057153  0.000437  4.006461  0.001  0.052982  0.000525  4.028569  0.001  -0.003438  0.059501  0.000549  3.991703  0.001
C  C31  1  0.55856483  0.41161370  0.75066658  1  0.03769  0.00249  3.768241  0.004  0.057222  0.000438  4.006399  0.001  0.053049  0.000525  4.028506  0.001  -0.003447  0.059571  0.000549  3.991641  0.001
C  C32  1  0.36216874  0.42890834  0.15396231  1  -0.072063  -0.006695  3.662161  -0.004  -0.111613  -0.001742  3.917497  -0.001  -0.108043  -0.00195  3.934697  -0.001  -0.068762  -0.113244  -0.002542  3.905538  -0.001
C  C33  1  0.63783576  0.57109196  0.84603612  1  -0.072101  -0.006712  3.662252  -0.004  -0.111687  -0.001744  3.917551  -0.001  -0.108116  -0.001953  3.934753  -0.001  -0.068731  -0.11332  -0.002543  3.905595  -0.001
C  C34  1  0.58163086  0.65293801  0.40053962  1  0.118653  -0.017759  3.757274  -0.012  0.125257  -0.006463  3.990574  -0.004  0.132394  -0.006246  4.011976  -0.004  0.018968  0.120111  -0.007602  3.976512  -0.005
C  C35  1  0.41837337  0.34705881  0.59945941  1  0.118606  -0.017767  3.757346  -0.012  0.125232  -0.006462  3.990592  -0.004  0.132369  -0.006245  4.011999  -0.004  0.018922  0.120087  -0.007602  3.976525  -0.005
C  C36  1  0.59509540  0.79047895  0.52105372  1  -0.144808  0.010579  3.680924  0.013  -0.159954  0.003572  3.921655  0.005  -0.168188  0.003316  3.940116  0.004  -0.077326  -0.155312  0.004099  3.91087  0.006
C  C37  1  0.40489984  0.20951659  0.47894188  1  -0.144766  0.010582  3.680933  0.013  -0.159943  0.003572  3.921682  0.005  -0.168194  0.003316  3.940138  0.004  -0.077345  -0.155305  0.004099  3.910898  0.006
C  C38  1  0.73904258  0.85304543  0.65851888  1  0.139863  -0.017465  3.670227  -0.012  0.111822  -0.005361  3.929668  -0.003  0.122869  -0.006284  3.946362  -0.004  0.049895  0.103821  -0.00517  3.91941  -0.003
C  C39  1  0.26095175  0.14695462  0.34148347  1  0.139812  -0.017466  3.67017  -0.012  0.111823  -0.005361  3.929587  -0.003  0.122864  -0.006283  3.946288  -0.004  0.049932  0.103831  -0.00517  3.919316  -0.003
C  C40  1  0.85254834  0.65016509  0.56934126  1  0.131554  -0.016753  3.684121  -0.011  0.105892  -0.004583  3.938401  -0.003  0.115853  -0.005495  3.957191  -0.004  0.048964  0.098641  -0.004192  3.926621  -0.002
C  C41  1  0.14744887  0.34983502  0.43066040  1  0.131452  -0.016764  3.684022  -0.011  0.105808  -0.004583  3.938293  -0.003  0.115755  -0.005493  3.957075  -0.004  0.048928  0.098556  -0.004194  3.926509  -0.002
C  C42  1  0.71392985  0.58164363  0.42837350  1  -0.163563  0.010541  3.691606  0.013  -0.181028  0.003596  3.939821  0.005  -0.189835  0.003317  3.959857  0.005  -0.081363  -0.175068  0.004088  3.926886  0.006
C  C43  1  0.28607778  0.41835778  0.57163176  1  -0.16352  0.010547  3.69166  0.013  -0.180969  0.003597  3.939854  0.005  -0.189778  0.003317  3.959896  0.005  -0.0813  -0.175013  0.004089  3.92692  0.006
C  C44  1  0.23818975  0.73272418  0.98400009  1  0.624969  -0.011621  3.880042  -0.01  0.579588  -0.004148  4.177295  -0.004  0.615631  -0.003449  4.175214  -0.003  0.202003  0.554279  -0.004437  4.177142  -0.005
C  C45  1  0.76180332  0.26727590  0.01599811  1  0.624972  -0.011623  3.880047  -0.01  0.579577  -0.004148  4.177294  -0.004  0.615626  -0.003451  4.175211  -0.003  0.202046  0.554267  -0.004438  4.177137  -0.005
N  N46  1  0.86694150  0.78470382  0.68268205  1  -0.303665  0.069142  3.342623  0.108  -0.266626  0.041452  3.643704  0.067  -0.300619  0.031773  3.665002  0.055  -0.339102  -0.243105  0.049203  3.62987  0.076
N  N47  1  0.13305429  0.21529627  0.31731946  1  -0.303601  0.069145  3.342605  0.108  -0.266578  0.041453  3.643676  0.067  -0.300567  0.031774  3.664979  0.055  -0.339122  -0.243055  0.049204  3.629824  0.076
O  O48  1  0.11390368  0.67299763  0.85314513  1  -0.579481  0.059527  2.015536  0.097  -0.555126  0.035369  2.279209  0.06  -0.596358  0.025082  2.275632  0.045  -0.301214  -0.523239  0.045016  2.27985  0.073
O  O49  1  0.88609700  0.32700373  0.14685536  1  -0.579497  0.059533  2.015546  0.097  -0.555136  0.035371  2.279222  0.06  -0.596366  0.025084  2.275645  0.045  -0.301223  -0.523248  0.045017  2.279855  0.073
O  O50  1  0.31559204  0.88077469  0.06254527  1  -0.623037  0.029816  1.989197  0.049  -0.576588  0.021222  2.224492  0.036  -0.611915  0.014812  2.215983  0.026  -0.305876  -0.550305  0.027391  2.229415  0.044
O  O51  1  0.68440392  0.11922546  0.93745223  1  -0.623021  0.029813  1.989224  0.049  -0.576551  0.021221  2.22449  0.036  -0.611885  0.014811  2.215998  0.026  -0.305873  -0.550276  0.027388  2.229416  0.044
O  O52  1  0.30179264  0.92540366  0.75737654  1  -0.787826  0.047335  1.904123  0.077  -0.7626  0.032836  2.095406  0.054  -0.795683  0.023925  2.062942  0.042  -0.569559  -0.736568  0.041259  2.117859  0.065
O  O53  1  0.69820255  0.07459186  0.24262005  1  -0.787846  0.047331  1.904107  0.077  -0.762625  0.032834  2.095381  0.054  -0.7957  0.023924  2.062922  0.042  -0.569599  -0.736603  0.041256  2.117845  0.065
O  O54  1  0.16232244  0.14774786  0.76711277  1  -0.578373  0.006452  1.936013  0.011  -0.531704  0.003747  2.145194  0.007  -0.555563  0.002119  2.13796  0.005  -0.298104  -0.513848  0.00604  2.149562  0.01
O  O55  1  0.83768483  0.85225245  0.23288798  1  -0.578366  0.006454  1.935989  0.011  -0.531692  0.003748  2.145165  0.007  -0.555549  0.002118  2.137934  0.005  -0.298108  -0.513836  0.006041  2.149531  0.01
O  O56  1  0.11355899  0.10941509  0.97245432  1  -0.647706  0.072476  2.184219  0.12  -0.627238  0.04995  2.49589  0.083  -0.678281  0.037653  2.484994  0.065  -0.318072  -0.58842  0.060613  2.502735  0.096
O  O57  1  0.88644833  0.89058863  0.02755083  1  -0.647695  0.072475  2.184164  0.12  -0.627232  0.049949  2.495852  0.083  -0.678276  0.037652  2.48496  0.065  -0.318087  -0.588413  0.060612  2.502695  0.096
