# generated using pymatgen
data_AgP2H24C28O2F3
_symmetry_space_group_name_H-M   'P 1'
_cell_length_a   10.03453915
_cell_length_b   10.95940471
_cell_length_c   12.56634016
_cell_angle_alpha   84.01385804
_cell_angle_beta   78.40468682
_cell_angle_gamma   72.76602252
_symmetry_Int_Tables_number   1
_chemical_formula_structural   AgP2H24C28O2F3
_chemical_formula_sum   'Ag2 P4 H48 C56 O4 F6'
_cell_volume   1291.49099966
_cell_formula_units_Z   2
loop_
 _symmetry_equiv_pos_site_id
 _symmetry_equiv_pos_as_xyz
  1  'x, y, z'
loop_
 _atom_site_type_symbol
 _atom_site_label
 _atom_site_symmetry_multiplicity
 _atom_site_fract_x
 _atom_site_fract_y
 _atom_site_fract_z
 _atom_site_occupancy
 _atom_site_hle17_bader_spin_density
 _atom_site_hle17_ddec_charge
 _atom_site_hle17_ddec_spin_density
 _atom_site_hle17_ddec_sum_bond_order
 _atom_site_hle17_magmom
 _atom_site_hse06_10hf_bader_spin_density
 _atom_site_hse06_10hf_ddec_charge
 _atom_site_hse06_10hf_ddec_spin_density
 _atom_site_hse06_10hf_ddec_sum_bond_order
 _atom_site_hse06_10hf_magmom
 _atom_site_hse06_bader_spin_density
 _atom_site_hse06_ddec_charge
 _atom_site_hse06_ddec_spin_density
 _atom_site_hse06_ddec_sum_bond_order
 _atom_site_hse06_magmom
 _atom_site_pbe_bader_spin_density
 _atom_site_pbe_cm5_charge
 _atom_site_pbe_ddec_charge
 _atom_site_pbe_ddec_spin_density
 _atom_site_pbe_ddec_sum_bond_order
 _atom_site_pbe_magmom
Ag  Ag0  1  0.21084096  0.45869499  0.21752287  1  0  0.198735  0  1.832512  0  0  0.08837  0  2.311326  0  0  0.101554  0  2.275056  0  0  0.407311  0.079565  0  2.335322  0
Ag  Ag1  1  0.78915793  0.54130501  0.78247301  1  0  0.198702  0  1.832512  0  0  0.08836  0  2.311251  0  0  0.101545  0  2.274985  0  0  0.407309  0.079557  0  2.335248  0
P  P2  1  0.34455119  0.38739373  0.04375246  1  0  0.348972  0  3.682797  0  0  0.313433  0  4.145244  0  0  0.323766  0  4.141437  0  0  -0.015447  0.30754  0  4.146042  0
P  P3  1  0.65545073  0.61260623  0.95624613  1  0  0.349044  0  3.682723  0  0  0.313584  0  4.145178  0  0  0.323911  0  4.141386  0  0  -0.015403  0.307683  0  4.145987  0
P  P4  1  0.06266828  0.37270169  0.36062017  1  0  0.343777  0  3.711131  0  0  0.303279  0  4.182797  0  0  0.313038  0  4.178953  0  0  -0.018683  0.296616  0  4.185499  0
P  P5  1  0.93733173  0.62730114  0.63938007  1  0  0.343731  0  3.711199  0  0  0.303273  0  4.182746  0  0  0.313029  0  4.178909  0  0  -0.018692  0.296609  0  4.18545  0
H  H6  1  0.35853814  0.17185299  0.19887740  1  0  0.074057  0  0.978759  0  0  0.080668  0  1.053724  0  0  0.083538  0  1.052045  0  0  0.090237  0.07836  0  1.055459  0
H  H7  1  0.64146419  0.82814885  0.80112494  1  0  0.074037  0  0.978773  0  0  0.080629  0  1.053762  0  0  0.083498  0  1.052084  0  0  0.09021  0.078321  0  1.055498  0
H  H8  1  0.52821042  0.95524726  0.20767952  1  0  0.091719  0  0.971338  0  0  0.100695  0  1.034181  0  0  0.103549  0  1.032762  0  0  0.095733  0.098576  0  1.035344  0
H  H9  1  0.47179252  0.04475269  0.79231971  1  0  0.091735  0  0.971311  0  0  0.100692  0  1.034175  0  0  0.103547  0  1.032755  0  0  0.095728  0.098576  0  1.035336  0
H  H10  1  0.74614952  0.89477693  0.06701637  1  0  0.082886  0  0.99631  0  0  0.092724  0  1.060247  0  0  0.09362  0  1.062872  0  0  0.094904  0.092164  0  1.058171  0
H  H11  1  0.25385038  0.10522305  0.93298174  1  0  0.082868  0  0.996271  0  0  0.092686  0  1.060237  0  0  0.093582  0  1.06286  0  0  0.094883  0.09213  0  1.058157  0
H  H12  1  0.79327885  0.05266844  0.91612670  1  0  0.088604  0  0.949433  0  0  0.102023  0  1.004921  0  0  0.104898  0  1.003419  0  0  0.10077  0.099913  0  1.006199  0
H  H13  1  0.20671929  0.94733059  0.08387176  1  0  0.088579  0  0.949457  0  0  0.101998  0  1.004944  0  0  0.104874  0  1.00344  0  0  0.10076  0.099888  0  1.00622  0
H  H14  1  0.62581612  0.26535698  0.90561647  1  0  0.087873  0  0.986716  0  0  0.099632  0  1.050319  0  0  0.101485  0  1.050236  0  0  0.097217  0.098063  0  1.051036  0
H  H15  1  0.37418407  0.73464204  0.09438168  1  0  0.087868  0  0.986723  0  0  0.099637  0  1.050307  0  0  0.101489  0  1.050226  0  0  0.097229  0.098068  0  1.051023  0
H  H16  1  0.39635007  0.35677111  0.80427648  1  0  0.089176  0  0.974696  0  0  0.098579  0  1.041163  0  0  0.100775  0  1.04046  0  0  0.096892  0.097065  0  1.041719  0
H  H17  1  0.60365158  0.64322982  0.19571888  1  0  0.089154  0  0.974815  0  0  0.098587  0  1.041237  0  0  0.100782  0  1.040537  0  0  0.096902  0.097073  0  1.041793  0
H  H18  1  0.25779598  0.29743515  0.68811359  1  0  0.084991  0  0.972971  0  0  0.095303  0  1.034904  0  0  0.097411  0  1.035356  0  0  0.096525  0.093712  0  1.034778  0
H  H19  1  0.74220434  0.70256673  0.31188428  1  0  0.085002  0  0.972997  0  0  0.095356  0  1.034894  0  0  0.097464  0  1.035345  0  0  0.096534  0.093762  0  1.034771  0
H  H20  1  0.01765847  0.27081939  0.76588181  1  0  0.105944  0  0.974217  0  0  0.114682  0  1.035429  0  0  0.118042  0  1.033297  0  0  0.09904  0.112344  0  1.036894  0
H  H21  1  0.98234171  0.72917962  0.23411714  1  0  0.105934  0  0.974227  0  0  0.114672  0  1.035439  0  0  0.118031  0  1.033308  0  0  0.099044  0.112334  0  1.036905  0
H  H22  1  0.91802627  0.30636515  0.96143281  1  0  0.091418  0  0.946026  0  0  0.104755  0  1.001886  0  0  0.107121  0  1.001832  0  0  0.099471  0.10276  0  1.002563  0
H  H23  1  0.08197726  0.69363288  0.03856729  1  0  0.091355  0  0.946071  0  0  0.104699  0  1.001931  0  0  0.107064  0  1.00188  0  0  0.099448  0.102703  0  1.002609  0
H  H24  1  0.05857904  0.36435286  0.07993768  1  0  0.078066  0  0.992259  0  0  0.085018  0  1.065593  0  0  0.087265  0  1.065426  0  0  0.089978  0.083393  0  1.06577  0
H  H25  1  0.94142916  0.63564325  0.92005947  1  0  0.078047  0  0.992238  0  0  0.084992  0  1.065571  0  0  0.087241  0  1.065383  0  0  0.090015  0.083376  0  1.065735  0
H  H26  1  0.49867485  0.45811474  0.88624099  1  0  0.104748  0  0.958654  0  0  0.120125  0  1.025091  0  0  0.121656  0  1.024866  0  0  0.098798  0.118451  0  1.026249  0
H  H27  1  0.50132708  0.54188522  0.11375760  1  0  0.104766  0  0.95863  0  0  0.120128  0  1.025084  0  0  0.121672  0  1.024842  0  0  0.098805  0.118455  0  1.02624  0
H  H28  1  0.36822831  0.58483000  0.95463761  1  0  0.108274  0  0.943816  0  0  0.127566  0  1.001404  0  0  0.128317  0  1.003248  0  0  0.102607  0.126968  0  1.000225  0
H  H29  1  0.63177332  0.41517092  0.04536094  1  0  0.108275  0  0.943827  0  0  0.127563  0  1.001416  0  0  0.128311  0  1.003264  0  0  0.102601  0.126965  0  1.000238  0
H  H30  1  0.74670231  0.45511078  0.37355951  1  0  0.094608  0  0.946925  0  0  0.109536  0  1.001611  0  0  0.112001  0  1.000671  0  0  0.105513  0.107673  0  1.00247  0
H  H31  1  0.25329740  0.54489299  0.62644308  1  0  0.094638  0  0.946924  0  0  0.109581  0  1.001583  0  0  0.112047  0  1.000641  0  0  0.105562  0.107718  0  1.002441  0
H  H32  1  0.59194526  0.37471084  0.28871559  1  0  0.103256  0  0.959287  0  0  0.115673  0  1.018069  0  0  0.118668  0  1.01626  0  0  0.101478  0.113437  0  1.019519  0
H  H33  1  0.40805605  0.62529101  0.71128770  1  0  0.103278  0  0.959249  0  0  0.115682  0  1.018049  0  0  0.118677  0  1.01624  0  0  0.101485  0.113447  0  1.0195  0
H  H34  1  0.69316796  0.18115246  0.17688647  1  0  0.07488  0  1.017858  0  0  0.083009  0  1.086113  0  0  0.083931  0  1.088836  0  0  0.090803  0.082151  0  1.084496  0
H  H35  1  0.30682899  0.81885037  0.82311663  1  0  0.07489  0  1.017852  0  0  0.083012  0  1.086119  0  0  0.083935  0  1.088841  0  0  0.090784  0.082154  0  1.084503  0
H  H36  1  0.95182153  0.07155686  0.15076485  1  0  0.085579  0  0.944054  0  0  0.099231  0  0.998603  0  0  0.101991  0  0.997659  0  0  0.100832  0.097464  0  0.998911  0
H  H37  1  0.04817572  0.92844503  0.84923590  1  0  0.085594  0  0.9441  0  0  0.09926  0  0.998638  0  0  0.10202  0  0.997694  0  0  0.100864  0.097494  0  0.998944  0
H  H38  1  0.10973475  0.15456820  0.23435715  1  0  0.087621  0  0.953697  0  0  0.098955  0  1.017259  0  0  0.101565  0  1.016092  0  0  0.097833  0.096667  0  1.018863  0
H  H39  1  0.89026251  0.84543370  0.76564280  1  0  0.087614  0  0.953665  0  0  0.09891  0  1.017268  0  0  0.101521  0  1.016104  0  0  0.097835  0.096622  0  1.018873  0
H  H40  1  0.98382048  0.15776351  0.49395139  1  0  0.09037  0  0.971387  0  0  0.09822  0  1.039584  0  0  0.100831  0  1.038682  0  0  0.095175  0.096283  0  1.040337  0
H  H41  1  0.01617983  0.84223837  0.50604808  1  0  0.090341  0  0.971392  0  0  0.098192  0  1.039589  0  0  0.100805  0  1.038686  0  0  0.095165  0.096255  0  1.04034  0
H  H42  1  0.10943051  0.99430512  0.61919285  1  0  0.088598  0  0.972724  0  0  0.097989  0  1.035588  0  0  0.100131  0  1.03589  0  0  0.096727  0.096358  0  1.035817  0
H  H43  1  0.89057232  0.00569199  0.38080186  1  0  0.088587  0  0.972712  0  0  0.097977  0  1.035591  0  0  0.100116  0  1.035896  0  0  0.096724  0.096344  0  1.035822  0
H  H44  1  0.35444149  0.98398047  0.63747590  1  0  0.08583  0  0.956527  0  0  0.096876  0  1.018071  0  0  0.099008  0  1.018256  0  0  0.100191  0.09545  0  1.017788  0
H  H45  1  0.64556134  0.01601664  0.36251881  1  0  0.085862  0  0.9565  0  0  0.096877  0  1.018069  0  0  0.09901  0  1.018253  0  0  0.10018  0.09545  0  1.017786  0
H  H46  1  0.47550490  0.13657596  0.52811586  1  0  0.09052  0  0.971278  0  0  0.099087  0  1.034027  0  0  0.10224  0  1.03232  0  0  0.09624  0.096842  0  1.03534  0
H  H47  1  0.52449528  0.86342306  0.47188308  1  0  0.090513  0  0.971251  0  0  0.099078  0  1.034005  0  0  0.102231  0  1.032297  0  0  0.096239  0.096833  0  1.035318  0
H  H48  1  0.35047211  0.30090745  0.40249577  1  0  0.09214  0  0.956609  0  0  0.103817  0  1.019494  0  0  0.10708  0  1.017228  0  0  0.098754  0.101426  0  1.021217  0
H  H49  1  0.64952762  0.69909633  0.59750443  1  0  0.092169  0  0.956642  0  0  0.103869  0  1.019498  0  0  0.107133  0  1.01723  0  0  0.098772  0.101479  0  1.021221  0
H  H50  1  0.88708471  0.56384469  0.42885352  1  0  0.104197  0  0.952687  0  0  0.12365  0  1.009388  0  0  0.124173  0  1.011357  0  0  0.101684  0.123402  0  1.00779  0
H  H51  1  0.11291706  0.43615909  0.57114556  1  0  0.104248  0  0.952619  0  0  0.123622  0  1.009385  0  0  0.124149  0  1.011354  0  0  0.101687  0.123373  0  1.007789  0
H  H52  1  0.88157560  0.43144915  0.52245577  1  0  0.110765  0  0.934842  0  0  0.128942  0  0.993197  0  0  0.129629  0  0.994508  0  0  0.101599  0.128026  0  0.993052  0
H  H53  1  0.11842383  0.56855558  0.47754519  1  0  0.110765  0  0.934843  0  0  0.128936  0  0.993166  0  0  0.129626  0  0.994478  0  0  0.101588  0.128021  0  0.993019  0
C  C54  1  0.30449108  0.65752180  0.30498090  1  0  0.455858  0  4.090085  0  0  0.408013  0  4.392204  0  0  0.43709  0  4.38681  0  0  0.17041  0.388214  0  4.395866  0
C  C55  1  0.69549617  0.34247637  0.69501536  1  0  0.456042  0  4.090299  0  0  0.408147  0  4.392478  0  0  0.437227  0  4.387086  0  0  0.170465  0.388351  0  4.396147  0
C  C56  1  0.30539150  0.78516760  0.34968127  1  0  0.66216  0  3.645947  0  0  0.597378  0  3.981245  0  0  0.624412  0  3.954813  0  0  0.292995  0.577972  0  4.000282  0
C  C57  1  0.69460692  0.21482375  0.65032418  1  0  0.662161  0  3.645836  0  0  0.597404  0  3.981099  0  0  0.624421  0  3.954719  0  0  0.293071  0.577982  0  4.000176  0
C  C58  1  0.47777982  0.23274672  0.05055108  1  0  -0.104732  0  3.764694  0  0  -0.064979  0  3.997503  0  0  -0.070996  0  4.025042  0  0  -0.028026  -0.060844  0  3.978182  0
C  C59  1  0.52222108  0.76725324  0.94944767  1  0  -0.104609  0  3.764581  0  0  -0.064864  0  3.997411  0  0  -0.070885  0  4.024959  0  0  -0.027993  -0.060729  0  3.978088  0
C  C60  1  0.45308997  0.14463042  0.13604579  1  0  -0.083481  0  3.769432  0  0  -0.099032  0  4.008111  0  0  -0.100813  0  4.030663  0  0  -0.08818  -0.098127  0  3.993191  0
C  C61  1  0.54690932  0.85537146  0.86395464  1  0  -0.083519  0  3.76954  0  0  -0.09906  0  4.008236  0  0  -0.10084  0  4.030786  0  0  -0.088169  -0.098156  0  3.993318  0
C  C62  1  0.54901670  0.02334925  0.14157080  1  0  -0.065634  0  3.755773  0  0  -0.077012  0  4.0003  0  0  -0.079727  0  4.021768  0  0  -0.089737  -0.074652  0  3.985401  0
C  C63  1  0.45098492  0.97665166  0.85842935  1  0  -0.065622  0  3.755807  0  0  -0.076981  0  4.00032  0  0  -0.079696  0  4.021787  0  0  -0.089691  -0.074624  0  3.98543  0
C  C64  1  0.67146781  0.98941547  0.06249093  1  0  -0.054326  0  3.743688  0  0  -0.067039  0  3.986585  0  0  -0.067616  0  4.008607  0  0  -0.085852  -0.066825  0  3.971138  0
C  C65  1  0.32853382  0.01058545  0.93750842  1  0  -0.054348  0  3.743656  0  0  -0.067042  0  3.986553  0  0  -0.067618  0  4.008574  0  0  -0.08587  -0.066831  0  3.971108  0
C  C66  1  0.69783924  0.07755294  0.97818517  1  0  -0.070528  0  3.759211  0  0  -0.082011  0  4.005635  0  0  -0.084782  0  4.026347  0  0  -0.08911  -0.080096  0  3.991675  0
C  C67  1  0.30215962  0.92244703  0.02181549  1  0  -0.070493  0  3.759194  0  0  -0.081976  0  4.005622  0  0  -0.084747  0  4.026334  0  0  -0.089115  -0.08006  0  3.991662  0
C  C68  1  0.60165929  0.19850491  0.97190430  1  0  -0.07558  0  3.74235  0  0  -0.096601  0  3.986895  0  0  -0.097655  0  4.009719  0  0  -0.088938  -0.095867  0  3.971932  0
C  C69  1  0.39833957  0.80149506  0.02809557  1  0  -0.075651  0  3.742388  0  0  -0.096679  0  3.986953  0  0  -0.097733  0  4.009777  0  0  -0.088953  -0.095942  0  3.971984  0
C  C70  1  0.23755745  0.36263399  0.95091033  1  0  -0.106708  0  3.756142  0  0  -0.066551  0  3.989121  0  0  -0.073191  0  4.016456  0  0  -0.028617  -0.062142  0  3.970462  0
C  C71  1  0.76244539  0.63736313  0.04908279  1  0  -0.106656  0  3.756145  0  0  -0.066676  0  3.989383  0  0  -0.073319  0  4.016716  0  0  -0.028661  -0.062258  0  3.970711  0
C  C72  1  0.29197182  0.34602381  0.83984713  1  0  -0.056011  0  3.727741  0  0  -0.076636  0  3.970161  0  0  -0.077106  0  3.992819  0  0  -0.081261  -0.076309  0  3.954898  0
C  C73  1  0.70803071  0.65397425  0.16014994  1  0  -0.055952  0  3.727696  0  0  -0.076539  0  3.970156  0  0  -0.077007  0  3.992813  0  0  -0.081215  -0.076216  0  3.954889  0
C  C74  1  0.21289396  0.31362034  0.77366451  1  0  -0.073928  0  3.762157  0  0  -0.086411  0  4.012392  0  0  -0.090205  0  4.035046  0  0  -0.092304  -0.083734  0  3.99682  0
C  C75  1  0.78710666  0.68638058  0.22633340  1  0  -0.074125  0  3.762139  0  0  -0.086659  0  4.0124  0  0  -0.090457  0  4.035056  0  0  -0.092402  -0.083979  0  3.996821  0
C  C76  1  0.07877620  0.29833523  0.81690715  1  0  -0.074588  0  3.750507  0  0  -0.085417  0  3.995244  0  0  -0.0853  0  4.013608  0  0  -0.092991  -0.085507  0  3.982334  0
C  C77  1  0.92122675  0.70166473  0.18309048  1  0  -0.074442  0  3.75043  0  0  -0.085265  0  3.995169  0  0  -0.08515  0  4.013534  0  0  -0.092913  -0.085355  0  3.982253  0
C  C78  1  0.02265271  0.31801443  0.92707163  1  0  -0.077687  0  3.76625  0  0  -0.086127  0  4.008718  0  0  -0.089234  0  4.029435  0  0  -0.094124  -0.083851  0  3.994316  0
C  C79  1  0.97735183  0.68198360  0.07292751  1  0  -0.077635  0  3.766202  0  0  -0.086071  0  4.008648  0  0  -0.08918  0  4.029364  0  0  -0.094094  -0.083796  0  3.994248  0
C  C80  1  0.10168369  0.35010987  0.99382519  1  0  -0.079963  0  3.777082  0  0  -0.096343  0  4.01356  0  0  -0.097562  0  4.036984  0  0  -0.087787  -0.095139  0  3.997279  0
C  C81  1  0.89832086  0.64988816  0.00617395  1  0  -0.080003  0  3.776988  0  0  -0.096335  0  4.013545  0  0  -0.097535  0  4.036951  0  0  -0.087861  -0.095138  0  3.997262  0
C  C82  1  0.44625154  0.49258023  0.96756991  1  0  -0.255053  0  3.668732  0  0  -0.279108  0  3.91722  0  0  -0.283254  0  3.930477  0  0  -0.165377  -0.276347  0  3.908372  0
C  C83  1  0.55374936  0.50741973  0.03242884  1  0  -0.255055  0  3.668594  0  0  -0.279148  0  3.917189  0  0  -0.283298  0  3.93043  0  0  -0.165382  -0.276389  0  3.90834  0
C  C84  1  0.93959348  0.31107807  0.30933132  1  0  -0.113709  0  3.782626  0  0  -0.075303  0  4.022356  0  0  -0.080568  0  4.048197  0  0  -0.029772  -0.072111  0  4.005046  0
C  C85  1  0.06040624  0.68892571  0.69066967  1  0  -0.113719  0  3.782623  0  0  -0.075377  0  4.022477  0  0  -0.080646  0  4.04833  0  0  -0.029757  -0.072184  0  4.005171  0
C  C86  1  0.79356550  0.37188740  0.32411526  1  0  -0.05769  0  3.732386  0  0  -0.07909  0  3.974303  0  0  -0.079581  0  3.995885  0  0  -0.083345  -0.07888  0  3.960087  0
C  C87  1  0.20643481  0.62811447  0.67588501  1  0  -0.057639  0  3.732287  0  0  -0.079036  0  3.974195  0  0  -0.079531  0  3.995784  0  0  -0.083347  -0.078826  0  3.959981  0
C  C88  1  0.70520041  0.32541149  0.27631551  1  0  -0.064161  0  3.732085  0  0  -0.074632  0  3.973476  0  0  -0.07736  0  3.994428  0  0  -0.089047  -0.072995  0  3.959613  0
C  C89  1  0.29479726  0.67459229  0.72368739  1  0  -0.064257  0  3.732027  0  0  -0.074722  0  3.973421  0  0  -0.077452  0  3.994376  0  0  -0.089084  -0.073085  0  3.959561  0
C  C90  1  0.76195512  0.21783265  0.21378014  1  0  -0.072154  0  3.769699  0  0  -0.08437  0  4.013728  0  0  -0.085108  0  4.035711  0  0  -0.093366  -0.083451  0  3.998743  0
C  C91  1  0.23803993  0.78217306  0.78622221  1  0  -0.072131  0  3.769645  0  0  -0.084334  0  4.013658  0  0  -0.085072  0  4.035642  0  0  -0.093329  -0.083415  0  3.998676  0
C  C92  1  0.90758907  0.15621398  0.19900546  1  0  -0.070304  0  3.780969  0  0  -0.081676  0  4.027129  0  0  -0.08423  0  4.048247  0  0  -0.090243  -0.080031  0  4.012287  0
C  C93  1  0.09240861  0.84378981  0.80099585  1  0  -0.070362  0  3.781072  0  0  -0.081747  0  4.027234  0  0  -0.084303  0  4.048353  0  0  -0.090275  -0.080102  0  4.012394  0
C  C94  1  0.99611594  0.20272313  0.24607841  1  0  -0.08903  0  3.772317  0  0  -0.108396  0  4.019394  0  0  -0.109785  0  4.04097  0  0  -0.089682  -0.107005  0  4.004923  0
C  C95  1  0.00388277  0.79728066  0.75392195  1  0  -0.088979  0  3.772359  0  0  -0.108309  0  4.019475  0  0  -0.109699  0  4.041055  0  0  -0.089728  -0.10692  0  4.005008  0
C  C96  1  0.15899170  0.23976425  0.44016927  1  0  -0.111174  0  3.787355  0  0  -0.069302  0  4.019457  0  0  -0.075719  0  4.047687  0  0  -0.031748  -0.065144  0  4.000287  0
C  C97  1  0.84100772  0.76024048  0.55983249  1  0  -0.111054  0  3.78711  0  0  -0.0692  0  4.01925  0  0  -0.075614  0  4.04748  0  0  -0.031726  -0.065046  0  4.000093  0
C  C98  1  0.09165609  0.15304099  0.50122044  1  0  -0.068016  0  3.730472  0  0  -0.089538  0  3.973319  0  0  -0.090654  0  3.995423  0  0  -0.087285  -0.088228  0  3.958195  0
C  C99  1  0.90834422  0.84696088  0.49878062  1  0  -0.067983  0  3.730375  0  0  -0.0895  0  3.973238  0  0  -0.090603  0  3.995306  0  0  -0.087266  -0.088185  0  3.958104  0
C  C100  1  0.16224426  0.06116556  0.57160615  1  0  -0.060047  0  3.755394  0  0  -0.071847  0  4.002414  0  0  -0.073815  0  4.023089  0  0  -0.08905  -0.070945  0  3.988932  0
C  C101  1  0.83775535  0.93883537  0.42839112  1  0  -0.060068  0  3.755362  0  0  -0.071873  0  4.002371  0  0  -0.073836  0  4.023048  0  0  -0.089038  -0.070969  0  3.988887  0
C  C102  1  0.30015294  0.05541748  0.58159826  1  0  -0.060096  0  3.752533  0  0  -0.07511  0  4.000306  0  0  -0.076071  0  4.02128  0  0  -0.085576  -0.074318  0  3.985946  0
C  C103  1  0.69984826  0.94458153  0.41839973  1  0  -0.060113  0  3.752546  0  0  -0.075084  0  4.000298  0  0  -0.076047  0  4.021273  0  0  -0.085566  -0.074291  0  3.985933  0
C  C104  1  0.36811314  0.14088069  0.52036692  1  0  -0.073731  0  3.770746  0  0  -0.084242  0  4.014695  0  0  -0.087194  0  4.036637  0  0  -0.092855  -0.082049  0  3.999616  0
C  C105  1  0.63188674  0.85911927  0.47963358  1  0  -0.07365  0  3.770696  0  0  -0.084168  0  4.014643  0  0  -0.087121  0  4.036589  0  0  -0.092844  -0.081975  0  3.999564  0
C  C106  1  0.29813527  0.23282468  0.44938672  1  0  -0.089551  0  3.764389  0  0  -0.104544  0  3.997553  0  0  -0.106339  0  4.020432  0  0  -0.088352  -0.103244  0  3.982075  0
C  C107  1  0.70186344  0.76717911  0.55061443  1  0  -0.089741  0  3.764415  0  0  -0.104761  0  3.997619  0  0  -0.106557  0  4.020494  0  0  -0.088428  -0.10346  0  3.982141  0
C  C108  1  0.95298704  0.47987856  0.46839061  1  0  -0.247774  0  3.6596  0  0  -0.271542  0  3.90893  0  0  -0.275545  0  3.922759  0  0  -0.161961  -0.268772  0  3.899838  0
C  C109  1  0.04701472  0.52012521  0.53160927  1  0  -0.247755  0  3.659581  0  0  -0.271394  0  3.908828  0  0  -0.275363  0  3.922547  0  0  -0.161875  -0.26863  0  3.899758  0
O  O110  1  0.21072829  0.66892174  0.24739858  1  0  -0.542944  0  2.066621  0  0  -0.491233  0  2.319721  0  0  -0.515863  0  2.310668  0  0  -0.333218  -0.473591  0  2.325542  0
O  O111  1  0.78927185  0.33107054  0.75261130  1  0  -0.543125  0  2.066105  0  0  -0.491399  0  2.319218  0  0  -0.516032  0  2.310163  0  0  -0.333255  -0.473747  0  2.325034  0
O  O112  1  0.39532129  0.55960162  0.33129671  1  0  -0.560828  0  1.931562  0  0  -0.532071  0  2.152043  0  0  -0.552367  0  2.142612  0  0  -0.33319  -0.517624  0  2.158555  0
O  O113  1  0.60468694  0.44038112  0.66870158  1  0  -0.560772  0  1.932441  0  0  -0.531994  0  2.152936  0  0  -0.55228  0  2.143505  0  0  -0.333168  -0.517553  0  2.15945  0
F  F114  1  0.20925527  0.89097853  0.31555403  1  0  -0.25289  0  1.167125  0  0  -0.210641  0  1.324641  0  0  -0.219981  0  1.309966  0  0  -0.104947  -0.203815  0  1.335054  0
F  F115  1  0.79074140  0.10901189  0.68445177  1  0  -0.252926  0  1.167198  0  0  -0.21069  0  1.324713  0  0  -0.220031  0  1.31005  0  0  -0.105016  -0.20386  0  1.335139  0
F  F116  1  0.43585264  0.80680774  0.31867691  1  0  -0.248527  0  1.186224  0  0  -0.211335  0  1.360987  0  0  -0.221353  0  1.345424  0  0  -0.092331  -0.204049  0  1.372036  0
F  F117  1  0.56414414  0.19318551  0.68133420  1  0  -0.248581  0  1.186173  0  0  -0.211389  0  1.360921  0  0  -0.221401  0  1.345366  0  0  -0.092406  -0.204096  0  1.371978  0
F  F118  1  0.27752533  0.78021028  0.46079981  1  0  -0.244827  0  1.178504  0  0  -0.209131  0  1.349161  0  0  -0.219881  0  1.335699  0  0  -0.097367  -0.201209  0  1.358628  0
F  F119  1  0.72246928  0.21978014  0.53920869  1  0  -0.244786  0  1.178518  0  0  -0.20909  0  1.349161  0  0  -0.219837  0  1.335709  0  0  -0.097315  -0.201164  0  1.358637  0
