# generated using pymatgen
data_Cu2H24C12S3Cl2
_symmetry_space_group_name_H-M   'P 1'
_cell_length_a   9.74996075
_cell_length_b   9.89589600
_cell_length_c   9.89594892
_cell_angle_alpha   107.44224355
_cell_angle_beta   102.54137004
_cell_angle_gamma   102.54010911
_symmetry_Int_Tables_number   1
_chemical_formula_structural   Cu2H24C12S3Cl2
_chemical_formula_sum   'Cu4 H48 C24 S6 Cl4'
_cell_volume   847.35802184
_cell_formula_units_Z   2
loop_
 _symmetry_equiv_pos_site_id
 _symmetry_equiv_pos_as_xyz
  1  'x, y, z'
loop_
 _atom_site_type_symbol
 _atom_site_label
 _atom_site_symmetry_multiplicity
 _atom_site_fract_x
 _atom_site_fract_y
 _atom_site_fract_z
 _atom_site_occupancy
 _atom_site_pbe_bader_spin_density
 _atom_site_pbe_cm5_charge
 _atom_site_pbe_ddec_charge
 _atom_site_pbe_ddec_spin_density
 _atom_site_pbe_ddec_sum_bond_order
 _atom_site_pbe_magmom
Cu  Cu0  1  0.87657726  0.39076161  0.97650573  1  0  0.29432  0.153311  0  2.7359  0
Cu  Cu1  1  0.62342269  0.02349725  0.60923541  1  0  0.294341  0.153338  0  2.735924  0
Cu  Cu2  1  0.12342129  0.60923427  0.02349725  1  0  0.294327  0.153299  0  2.735953  0
Cu  Cu3  1  0.37657363  0.97650511  0.39076181  1  0  0.294312  0.153301  0  2.735935  0
H  H4  1  0.64726022  0.47115607  0.77367655  1  0  0.086109  0.100586  0  1.038089  0
H  H5  1  0.85274443  0.22631568  0.52884932  1  0  0.08612  0.100539  0  1.038148  0
H  H6  1  0.35274758  0.52884949  0.22631998  1  0  0.086108  0.100546  0  1.038128  0
H  H7  1  0.14726669  0.77368357  0.47115933  1  0  0.086132  0.10063  0  1.038035  0
H  H8  1  0.51200393  0.29898851  0.64539621  1  0  0.086907  0.101337  0  1.034837  0
H  H9  1  0.98799582  0.35459802  0.70101861  1  0  0.086923  0.101316  0  1.034888  0
H  H10  1  0.48799617  0.70101940  0.35460335  1  0  0.086945  0.101333  0  1.034884  0
H  H11  1  0.01200550  0.64540359  0.29899261  1  0  0.08695  0.101364  0  1.034808  0
H  H12  1  0.62749876  0.50547906  0.53890768  1  0  0.085451  0.081184  0  1.02734  0
H  H13  1  0.87250199  0.46108564  0.49452146  1  0  0.085459  0.081206  0  1.027316  0
H  H14  1  0.37250527  0.49452095  0.46108650  1  0  0.085461  0.081177  0  1.027417  0
H  H15  1  0.12750562  0.53891239  0.50548206  1  0  0.085467  0.081218  0  1.02736  0
H  H16  1  0.61358497  0.31589250  0.44435329  1  0  0.082587  0.083087  0  1.02684  0
H  H17  1  0.88641245  0.55564125  0.68410411  1  0  0.082563  0.083094  0  1.026809  0
H  H18  1  0.38641913  0.68410432  0.55564508  1  0  0.082576  0.083079  0  1.026783  0
H  H19  1  0.11358952  0.44435896  0.31589676  1  0  0.082565  0.083079  0  1.026836  0
H  H20  1  0.65926893  0.10482640  0.13963346  1  0  0.084864  0.101648  0  1.033246  0
H  H21  1  0.84073707  0.86038899  0.89519028  1  0  0.084857  0.10163  0  1.033286  0
H  H22  1  0.34072039  0.89518418  0.86037968  1  0  0.08485  0.101642  0  1.03316  0
H  H23  1  0.15925282  0.13963043  0.10482340  1  0  0.084866  0.101613  0  1.033163  0
H  H24  1  0.64550453  0.11580418  0.95938325  1  0  0.087501  0.091035  0  1.033898  0
H  H25  1  0.85451022  0.04063509  0.88419788  1  0  0.0875  0.09104  0  1.033967  0
H  H26  1  0.35450530  0.88418735  0.04062501  1  0  0.087539  0.091091  0  1.033959  0
H  H27  1  0.14549190  0.95937952  0.11580498  1  0  0.087538  0.091069  0  1.03388  0
H  H28  1  0.46542472  0.20781625  0.16705281  1  0  0.08246  0.081629  0  1.019202  0
H  H29  1  0.03457598  0.83293425  0.79219835  1  0  0.082487  0.081658  0  1.019013  0
H  H30  1  0.53455610  0.79218332  0.83291906  1  0  0.08249  0.081692  0  1.019047  0
H  H31  1  0.96541129  0.16704877  0.20781482  1  0  0.082475  0.081655  0  1.019203  0
H  H32  1  0.40553636  0.12599976  0.96942508  1  0  0.091048  0.097367  0  1.01205  0
H  H33  1  0.09447396  0.03056475  0.87400775  1  0  0.091011  0.097298  0  1.012088  0
H  H34  1  0.59446818  0.87400179  0.03054538  1  0  0.091025  0.097373  0  1.012079  0
H  H35  1  0.90552685  0.96942480  0.12600611  1  0  0.09101  0.097317  0  1.012045  0
H  H36  1  0.52745704  0.35890197  0.94842564  1  0  0.089776  0.092595  0  0.996179  0
H  H37  1  0.97255691  0.05156385  0.64110124  1  0  0.089832  0.092708  0  0.996049  0
H  H38  1  0.47255632  0.64110102  0.05155925  1  0  0.089842  0.092754  0  0.995989  0
H  H39  1  0.02745600  0.94843437  0.35891054  1  0  0.089765  0.092606  0  0.996158  0
H  H40  1  0.42433571  0.40441461  0.07353912  1  0  0.087544  0.091887  0  1.031063  0
H  H41  1  0.07567155  0.92643712  0.59559328  1  0  0.087596  0.09191  0  1.031044  0
H  H42  1  0.57566497  0.59558809  0.92643184  1  0  0.087613  0.091958  0  1.031102  0
H  H43  1  0.92433492  0.07354683  0.40441924  1  0  0.087581  0.091969  0  1.031096  0
H  H44  1  0.71083015  0.56580812  0.16441925  1  0  0.091135  0.110194  0  1.02597  0
H  H45  1  0.78917691  0.83557165  0.43419947  1  0  0.091179  0.110243  0  1.025984  0
H  H46  1  0.28917591  0.43419514  0.83557324  1  0  0.091136  0.110173  0  1.026094  0
H  H47  1  0.21082894  0.16443103  0.56581202  1  0  0.091141  0.110209  0  1.025974  0
H  H48  1  0.65013088  0.48536847  0.28975200  1  0  0.09282  0.104467  0  1.000442  0
H  H49  1  0.84987099  0.71024098  0.51464533  1  0  0.092853  0.104508  0  1.000446  0
H  H50  1  0.34986054  0.51462803  0.71023142  1  0  0.092844  0.104486  0  1.000263  0
H  H51  1  0.15012441  0.28975841  0.48536401  1  0  0.092807  0.104416  0  1.000469  0
C  C52  1  0.62497832  0.37150356  0.67579189  1  0  -0.153811  -0.166408  0  3.815901  0
C  C53  1  0.87502044  0.32420331  0.62849665  1  0  -0.15383  -0.166299  0  3.815976  0
C  C54  1  0.37502359  0.62849992  0.32420785  1  0  -0.1539  -0.166372  0  3.816002  0
C  C55  1  0.12498571  0.67580034  0.37151012  1  0  -0.1539  -0.16647  0  3.816071  0
C  C56  1  0.66604288  0.41147508  0.54955595  1  0  -0.170579  -0.144231  0  3.937865  0
C  C57  1  0.83395587  0.45043672  0.58852326  1  0  -0.170615  -0.144378  0  3.938028  0
C  C58  1  0.33396258  0.58852276  0.45043997  1  0  -0.170552  -0.144243  0  3.937858  0
C  C59  1  0.16604544  0.54956132  0.41147890  1  0  -0.170597  -0.144301  0  3.937901  0
C  C60  1  0.63988100  0.17151648  0.07100979  1  0  -0.150362  -0.164497  0  3.819097  0
C  C61  1  0.86012840  0.92899783  0.82849141  1  0  -0.150346  -0.164465  0  3.819093  0
C  C62  1  0.36011995  0.82848387  0.92899596  1  0  -0.15044  -0.164628  0  3.819345  0
C  C63  1  0.13986799  0.07100486  0.17151805  1  0  -0.150476  -0.16458  0  3.818896  0
C  C64  1  0.49486989  0.20872297  0.06600745  1  0  -0.167199  -0.133899  0  3.909038  0
C  C65  1  0.00513620  0.93399235  0.79128312  1  0  -0.167206  -0.133815  0  3.909044  0
C  C66  1  0.50512288  0.79127450  0.93397147  1  0  -0.167165  -0.133917  0  3.909304  0
C  C67  1  0.99485843  0.06601146  0.20872626  1  0  -0.167135  -0.133752  0  3.90894  0
C  C68  1  0.51781832  0.36313098  0.05821124  1  0  -0.169015  -0.144843  0  3.94894  0
C  C69  1  0.98218642  0.94177166  0.63687647  1  0  -0.169162  -0.145051  0  3.94904  0
C  C70  1  0.48218731  0.63687074  0.94176557  1  0  -0.16918  -0.1451  0  3.949083  0
C  C71  1  0.01780883  0.05821337  0.36313190  1  0  -0.169027  -0.144934  0  3.948808  0
C  C72  1  0.66171053  0.46170251  0.17778372  1  0  -0.153891  -0.181361  0  3.875353  0
C  C73  1  0.83829103  0.82220884  0.53830398  1  0  -0.15393  -0.181435  0  3.875578  0
C  C74  1  0.33828378  0.53829318  0.82221122  1  0  -0.153854  -0.18129  0  3.875298  0
C  C75  1  0.16170612  0.17778938  0.46170339  1  0  -0.153906  -0.1814  0  3.875365  0
S  S76  1  0.74999940  0.26918887  0.73081029  1  0  -0.063522  0.088819  0  3.572944  0
S  S77  1  0.24999837  0.73081135  0.26918968  1  0  -0.063497  0.088836  0  3.573015  0
S  S78  1  0.78891101  0.35033894  0.15759866  1  0  -0.039847  0.036948  0  3.097924  0
S  S79  1  0.71109654  0.84241093  0.64966975  1  0  -0.03986  0.036913  0  3.097991  0
S  S80  1  0.21108573  0.64966136  0.84240415  1  0  -0.039866  0.036939  0  3.097944  0
S  S81  1  0.28890361  0.15759718  0.35033695  1  0  -0.039811  0.037023  0  3.097868  0
Cl  Cl82  1  0.10744383  0.35214279  0.98995611  1  0  -0.306028  -0.436408  0  1.51121  0
Cl  Cl83  1  0.39255737  0.01004537  0.64785569  1  0  -0.306034  -0.436434  0  1.511161  0
Cl  Cl84  1  0.89255396  0.64785397  0.01003887  1  0  -0.306038  -0.436422  0  1.511183  0
Cl  Cl85  1  0.60743864  0.98995602  0.35214625  1  0  -0.306028  -0.436411  0  1.511246  0
