# generated using pymatgen
data_ZnH6C9N7Cl
_symmetry_space_group_name_H-M   'P 1'
_cell_length_a   9.50585029
_cell_length_b   10.59172550
_cell_length_c   11.20350898
_cell_angle_alpha   90.00005232
_cell_angle_beta   94.84950438
_cell_angle_gamma   89.99997644
_symmetry_Int_Tables_number   1
_chemical_formula_structural   ZnH6C9N7Cl
_chemical_formula_sum   'Zn4 H24 C36 N28 Cl4'
_cell_volume   1123.96884125
_cell_formula_units_Z   4
loop_
 _symmetry_equiv_pos_site_id
 _symmetry_equiv_pos_as_xyz
  1  'x, y, z'
loop_
 _atom_site_type_symbol
 _atom_site_label
 _atom_site_symmetry_multiplicity
 _atom_site_fract_x
 _atom_site_fract_y
 _atom_site_fract_z
 _atom_site_occupancy
 _atom_site_hle17_bader_spin_density
 _atom_site_hle17_ddec_charge
 _atom_site_hle17_ddec_spin_density
 _atom_site_hle17_ddec_sum_bond_order
 _atom_site_hle17_magmom
 _atom_site_hse06_10hf_bader_spin_density
 _atom_site_hse06_10hf_ddec_charge
 _atom_site_hse06_10hf_ddec_spin_density
 _atom_site_hse06_10hf_ddec_sum_bond_order
 _atom_site_hse06_10hf_magmom
 _atom_site_hse06_bader_spin_density
 _atom_site_hse06_ddec_charge
 _atom_site_hse06_ddec_spin_density
 _atom_site_hse06_ddec_sum_bond_order
 _atom_site_hse06_magmom
 _atom_site_pbe_bader_spin_density
 _atom_site_pbe_cm5_charge
 _atom_site_pbe_ddec_charge
 _atom_site_pbe_ddec_spin_density
 _atom_site_pbe_ddec_sum_bond_order
 _atom_site_pbe_magmom
Zn  Zn0  1  0.22374159  0.08601070  0.41922926  1  0  0.864922  0  2.072181  0  0  0.672417  0  2.563629  0  0  0.710758  0  2.518301  0  0  0.666182  0.645688  0  2.594657  0
Zn  Zn1  1  0.27625883  0.58601051  0.58077008  1  0  0.864883  0  2.072183  0  0  0.672373  0  2.563625  0  0  0.710716  0  2.518296  0  0  0.666175  0.645641  0  2.594659  0
Zn  Zn2  1  0.77625882  0.91398908  0.58077045  1  0  0.864894  0  2.072177  0  0  0.672392  0  2.563605  0  0  0.710734  0  2.51828  0  0  0.666174  0.64566  0  2.594639  0
Zn  Zn3  1  0.72374052  0.41398927  0.41922955  1  0  0.864875  0  2.072184  0  0  0.672365  0  2.563639  0  0  0.710705  0  2.518309  0  0  0.66617  0.645631  0  2.59467  0
H  H4  1  0.03959136  0.16140838  0.65365220  1  0  0.113241  0  0.947082  0  0  0.113992  0  1.026352  0  0  0.117397  0  1.021406  0  0  0.137084  0.111291  0  1.0298  0
H  H5  1  0.46041114  0.66140412  0.34634734  1  0  0.113227  0  0.947145  0  0  0.113981  0  1.026383  0  0  0.11739  0  1.021444  0  0  0.137087  0.11128  0  1.029832  0
H  H6  1  0.96040799  0.83859234  0.34634654  1  0  0.113245  0  0.947092  0  0  0.113995  0  1.026353  0  0  0.1174  0  1.021407  0  0  0.137091  0.111294  0  1.029803  0
H  H7  1  0.53958927  0.33859566  0.65365237  1  0  0.113234  0  0.947139  0  0  0.113985  0  1.026388  0  0  0.117394  0  1.021448  0  0  0.137092  0.111284  0  1.02984  0
H  H8  1  0.43579903  0.98766460  0.63258757  1  0  0.096568  0  0.944599  0  0  0.102285  0  1.011982  0  0  0.103805  0  1.010786  0  0  0.1326  0.10092  0  1.013106  0
H  H9  1  0.06420124  0.48766575  0.36741211  1  0  0.096574  0  0.944604  0  0  0.102293  0  1.011967  0  0  0.103812  0  1.010772  0  0  0.132604  0.100928  0  1.013092  0
H  H10  1  0.56420032  0.01233517  0.36741207  1  0  0.096553  0  0.944616  0  0  0.102265  0  1.012004  0  0  0.103785  0  1.010808  0  0  0.132595  0.100901  0  1.013128  0
H  H11  1  0.93579812  0.51233592  0.63258753  1  0  0.09657  0  0.944613  0  0  0.102289  0  1.011979  0  0  0.10381  0  1.010781  0  0  0.132604  0.100924  0  1.013102  0
H  H12  1  0.24488954  0.96007818  0.98496356  1  0  0.114959  0  0.942961  0  0  0.123263  0  1.00489  0  0  0.126203  0  1.004071  0  0  0.110731  0.121192  0  1.005418  0
H  H13  1  0.25511075  0.46007703  0.01503699  1  0  0.114916  0  0.942986  0  0  0.123229  0  1.004913  0  0  0.126162  0  1.004115  0  0  0.11072  0.121158  0  1.005442  0
H  H14  1  0.75510982  0.03992254  0.01503608  1  0  0.114945  0  0.942972  0  0  0.12325  0  1.004901  0  0  0.126189  0  1.004086  0  0  0.110719  0.121178  0  1.005429  0
H  H15  1  0.74488966  0.53992275  0.98496272  1  0  0.114918  0  0.942992  0  0  0.12323  0  1.004917  0  0  0.126164  0  1.004119  0  0  0.11072  0.121156  0  1.00545  0
H  H16  1  0.15944719  0.00878333  0.18136715  1  0  0.087922  0  1.012125  0  0  0.096573  0  1.080977  0  0  0.099379  0  1.07888  0  0  0.085821  0.094422  0  1.082677  0
H  H17  1  0.34055220  0.50878145  0.81863206  1  0  0.087913  0  1.012079  0  0  0.096559  0  1.080945  0  0  0.099365  0  1.078847  0  0  0.085812  0.094409  0  1.082643  0
H  H18  1  0.84055321  0.99121739  0.81863256  1  0  0.087919  0  1.012123  0  0  0.09657  0  1.080975  0  0  0.099375  0  1.078881  0  0  0.085813  0.094418  0  1.082675  0
H  H19  1  0.65944822  0.49121832  0.18136855  1  0  0.087903  0  1.012086  0  0  0.096546  0  1.080961  0  0  0.099353  0  1.078863  0  0  0.085805  0.094398  0  1.082659  0
H  H20  1  0.95810459  0.34672332  0.03355867  1  0  0.106679  0  0.951109  0  0  0.113664  0  1.016835  0  0  0.116732  0  1.014921  0  0  0.107793  0.111453  0  1.018262  0
H  H21  1  0.54189584  0.84672265  0.96644224  1  0  0.106711  0  0.951046  0  0  0.113701  0  1.016765  0  0  0.116769  0  1.014851  0  0  0.107814  0.111488  0  1.018192  0
H  H22  1  0.04189583  0.65327645  0.96644283  1  0  0.106689  0  0.951083  0  0  0.113676  0  1.016805  0  0  0.116745  0  1.014891  0  0  0.107805  0.111465  0  1.018232  0
H  H23  1  0.45810457  0.15327807  0.03355746  1  0  0.106678  0  0.951077  0  0  0.113663  0  1.016811  0  0  0.116732  0  1.014896  0  0  0.107801  0.111452  0  1.018237  0
H  H24  1  0.04610333  0.29851549  0.83657127  1  0  0.112176  0  0.965817  0  0  0.117591  0  1.033963  0  0  0.120405  0  1.033237  0  0  0.102872  0.115469  0  1.034708  0
H  H25  1  0.45389702  0.79851389  0.16343004  1  0  0.112162  0  0.965844  0  0  0.117579  0  1.033992  0  0  0.120393  0  1.033268  0  0  0.102867  0.115458  0  1.034736  0
H  H26  1  0.95389603  0.70148617  0.16342926  1  0  0.11218  0  0.965821  0  0  0.117601  0  1.033963  0  0  0.120414  0  1.033238  0  0  0.102886  0.11548  0  1.034709  0
H  H27  1  0.54610445  0.20148589  0.83657064  1  0  0.112165  0  0.965844  0  0  0.11758  0  1.033993  0  0  0.120394  0  1.033269  0  0  0.102877  0.115458  0  1.034737  0
C  C28  1  0.14218349  0.11847580  0.67613170  1  0  0.21028  0  3.593044  0  0  0.131974  0  3.857483  0  0  0.147892  0  3.866875  0  0  0.171388  0.122706  0  3.849882  0
C  C29  1  0.35781798  0.61847250  0.32386953  1  0  0.210252  0  3.592897  0  0  0.13197  0  3.857334  0  0  0.14788  0  3.866733  0  0  0.171367  0.122703  0  3.849728  0
C  C30  1  0.85781692  0.88152492  0.32386801  1  0  0.210231  0  3.592992  0  0  0.131978  0  3.857448  0  0  0.147895  0  3.866841  0  0  0.171367  0.122706  0  3.849851  0
C  C31  1  0.64218243  0.38152728  0.67613107  1  0  0.210222  0  3.592903  0  0  0.131929  0  3.857347  0  0  0.147836  0  3.866749  0  0  0.171335  0.122658  0  3.849744  0
C  C32  1  0.34320455  0.02784086  0.66828133  1  0  0.21006  0  3.687494  0  0  0.155701  0  3.974507  0  0  0.167532  0  3.987168  0  0  0.150557  0.148161  0  3.965485  0
C  C33  1  0.15679484  0.52784142  0.33171789  1  0  0.210025  0  3.687554  0  0  0.155677  0  3.974553  0  0  0.167508  0  3.987216  0  0  0.150547  0.148136  0  3.965537  0
C  C34  1  0.65679375  0.97215892  0.33171824  1  0  0.210037  0  3.687518  0  0  0.155684  0  3.974512  0  0  0.167513  0  3.987178  0  0  0.150524  0.148143  0  3.965495  0
C  C35  1  0.84320452  0.47215930  0.66828174  1  0  0.21002  0  3.687556  0  0  0.155673  0  3.974554  0  0  0.167504  0  3.987214  0  0  0.150546  0.148131  0  3.965533  0
C  C36  1  0.14908339  0.12522835  0.89989327  1  0  0.167643  0  3.771265  0  0  0.145489  0  4.021384  0  0  0.150267  0  4.044273  0  0  0.099364  0.142663  0  4.005675  0
C  C37  1  0.35091490  0.62522955  0.10010685  1  0  0.167631  0  3.771278  0  0  0.145536  0  4.021352  0  0  0.15032  0  4.044238  0  0  0.099364  0.142707  0  4.005654  0
C  C38  1  0.85091702  0.87477048  0.10010733  1  0  0.16769  0  3.771304  0  0  0.14559  0  4.021409  0  0  0.150368  0  4.044296  0  0  0.09942  0.142759  0  4.005706  0
C  C39  1  0.64908657  0.37477022  0.89989382  1  0  0.167581  0  3.771311  0  0  0.145566  0  4.021267  0  0  0.150347  0  4.044152  0  0  0.09939  0.142736  0  4.005567  0
C  C40  1  0.18239432  0.04461735  0.99674057  1  0  -0.125602  0  3.723015  0  0  -0.146067  0  3.981417  0  0  -0.149862  0  4.001285  0  0  -0.081969  -0.143385  0  3.967554  0
C  C41  1  0.31760506  0.54461659  0.00326045  1  0  -0.125482  0  3.723088  0  0  -0.145984  0  3.981503  0  0  -0.149784  0  4.001366  0  0  -0.081927  -0.143304  0  3.967647  0
C  C42  1  0.81760503  0.95538243  0.00325907  1  0  -0.125633  0  3.723067  0  0  -0.146101  0  3.981459  0  0  -0.149897  0  4.001326  0  0  -0.081989  -0.143419  0  3.967598  0
C  C43  1  0.68239535  0.45538225  0.99674015  1  0  -0.125455  0  3.723113  0  0  -0.145978  0  3.981503  0  0  -0.149777  0  4.001366  0  0  -0.081918  -0.143297  0  3.967645  0
C  C44  1  0.13369686  0.07311937  0.10690456  1  0  -0.067431  0  3.748666  0  0  -0.093076  0  3.999828  0  0  -0.09346  0  4.020153  0  0  -0.082652  -0.092637  0  3.986266  0
C  C45  1  0.36629829  0.57311944  0.89309531  1  0  -0.067476  0  3.748794  0  0  -0.093123  0  3.999997  0  0  -0.093503  0  4.020313  0  0  -0.082696  -0.092683  0  3.986433  0
C  C46  1  0.86630250  0.92688041  0.89309508  1  0  -0.067473  0  3.748647  0  0  -0.093121  0  3.999821  0  0  -0.093507  0  4.020154  0  0  -0.08268  -0.09268  0  3.986255  0
C  C47  1  0.63370212  0.42688033  0.10690530  1  0  -0.067456  0  3.748766  0  0  -0.093142  0  3.999954  0  0  -0.093526  0  4.020279  0  0  -0.082711  -0.092702  0  3.986393  0
C  C48  1  0.05219079  0.18161446  0.12114592  1  0  -0.005004  0  3.788022  0  0  0.010884  0  4.026051  0  0  0.007594  0  4.048632  0  0  -0.00586  0.012664  0  4.010852  0
C  C49  1  0.44780643  0.68161166  0.87885418  1  0  -0.005105  0  3.788191  0  0  0.010801  0  4.026227  0  0  0.007509  0  4.048807  0  0  -0.005847  0.012588  0  4.011022  0
C  C50  1  0.94780962  0.81838531  0.87885379  1  0  -0.004966  0  3.788001  0  0  0.010921  0  4.026029  0  0  0.007632  0  4.048611  0  0  -0.00582  0.012706  0  4.010824  0
C  C51  1  0.55219187  0.31838812  0.12114539  1  0  -0.005167  0  3.788301  0  0  0.010825  0  4.026203  0  0  0.007536  0  4.048784  0  0  -0.005835  0.012609  0  4.011006  0
C  C52  1  0.01964164  0.26149942  0.02240731  1  0  -0.057843  0  3.698133  0  0  -0.080591  0  3.946144  0  0  -0.080249  0  3.965176  0  0  -0.075504  -0.08063  0  3.93315  0
C  C53  1  0.48035871  0.76149670  0.97759218  1  0  -0.057797  0  3.698065  0  0  -0.080549  0  3.946089  0  0  -0.080209  0  3.965124  0  0  -0.075512  -0.08059  0  3.933101  0
C  C54  1  0.98035877  0.73850130  0.97759329  1  0  -0.057803  0  3.698097  0  0  -0.080548  0  3.946113  0  0  -0.080207  0  3.965145  0  0  -0.075501  -0.080588  0  3.933121  0
C  C55  1  0.51963853  0.23850402  0.02240642  1  0  -0.057772  0  3.698212  0  0  -0.080562  0  3.946218  0  0  -0.080222  0  3.965252  0  0  -0.075531  -0.080596  0  3.933217  0
C  C56  1  0.06801578  0.23395098  0.91155277  1  0  -0.14322  0  3.725118  0  0  -0.162326  0  3.979431  0  0  -0.167049  0  4.000698  0  0  -0.088264  -0.159265  0  3.965313  0
C  C57  1  0.43198564  0.73395120  0.08844677  1  0  -0.143238  0  3.725157  0  0  -0.162359  0  3.979464  0  0  -0.167084  0  4.000732  0  0  -0.088261  -0.159301  0  3.965349  0
C  C58  1  0.93198357  0.76604974  0.08844687  1  0  -0.143252  0  3.725246  0  0  -0.162365  0  3.979545  0  0  -0.167091  0  4.000819  0  0  -0.088274  -0.159306  0  3.965433  0
C  C59  1  0.56801477  0.26604858  0.91155294  1  0  -0.143183  0  3.72514  0  0  -0.162326  0  3.979414  0  0  -0.16705  0  4.000683  0  0  -0.088244  -0.159265  0  3.965299  0
C  C60  1  0.99950570  0.21421809  0.23605677  1  0  0.286103  0  3.756897  0  0  0.259976  0  4.026247  0  0  0.271311  0  4.042077  0  0  0.223352  0.252613  0  4.014998  0
C  C61  1  0.50049372  0.71421818  0.76394396  1  0  0.286158  0  3.756864  0  0  0.259989  0  4.026245  0  0  0.27134  0  4.04206  0  0  0.223341  0.252619  0  4.015  0
C  C62  1  0.00049365  0.78578074  0.76394287  1  0  0.286062  0  3.756812  0  0  0.259932  0  4.026169  0  0  0.271267  0  4.041996  0  0  0.223314  0.252566  0  4.01492  0
C  C63  1  0.49950669  0.28578160  0.23605575  1  0  0.286119  0  3.756957  0  0  0.259956  0  4.026294  0  0  0.271296  0  4.042118  0  0  0.223343  0.252587  0  4.015053  0
N  N64  1  0.23072084  0.07634286  0.59839103  1  0  -0.393128  0  3.271408  0  0  -0.308394  0  3.575303  0  0  -0.330162  0  3.584647  0  0  -0.353499  -0.293803  0  3.568305  0
N  N65  1  0.26927959  0.57634061  0.40161009  1  0  -0.393026  0  3.271332  0  0  -0.308293  0  3.575216  0  0  -0.330059  0  3.584561  0  0  -0.35343  -0.2937  0  3.568221  0
N  N66  1  0.76927852  0.92365692  0.40160861  1  0  -0.39308  0  3.271409  0  0  -0.308337  0  3.575274  0  0  -0.330108  0  3.584622  0  0  -0.353456  -0.293747  0  3.568279  0
N  N67  1  0.73071976  0.42365917  0.59839044  1  0  -0.393013  0  3.271336  0  0  -0.308282  0  3.575219  0  0  -0.330047  0  3.584562  0  0  -0.353425  -0.293689  0  3.568222  0
N  N68  1  0.32928753  0.03745408  0.78415756  1  0  -0.245408  0  2.819439  0  0  -0.243844  0  3.081935  0  0  -0.25087  0  3.094506  0  0  -0.209732  -0.239235  0  3.073666  0
N  N69  1  0.17071185  0.53745358  0.21584256  1  0  -0.245427  0  2.819445  0  0  -0.243852  0  3.081944  0  0  -0.250877  0  3.094514  0  0  -0.209751  -0.239247  0  3.073677  0
N  N70  1  0.67071182  0.96254664  0.21584207  1  0  -0.245442  0  2.81941  0  0  -0.243832  0  3.081923  0  0  -0.250858  0  3.094493  0  0  -0.209723  -0.239226  0  3.073655  0
N  N71  1  0.82928750  0.46254620  0.78415708  1  0  -0.245402  0  2.81942  0  0  -0.243831  0  3.081924  0  0  -0.250858  0  3.094493  0  0  -0.209743  -0.239229  0  3.073655  0
N  N72  1  0.20075840  0.09550697  0.78782753  1  0  0.017034  0  3.561741  0  0  0.134776  0  3.737282  0  0  0.12387  0  3.760184  0  0  -0.110852  0.139966  0  3.724343  0
N  N73  1  0.29924307  0.59550547  0.21217189  1  0  0.017045  0  3.561579  0  0  0.134727  0  3.737182  0  0  0.123821  0  3.760082  0  0  -0.110867  0.139938  0  3.724212  0
N  N74  1  0.79924095  0.90449375  0.21217210  1  0  0.017102  0  3.561614  0  0  0.134692  0  3.737335  0  0  0.123788  0  3.760235  0  0  -0.110887  0.139897  0  3.724374  0
N  N75  1  0.70075734  0.40449336  0.78782782  1  0  0.017055  0  3.561585  0  0  0.134723  0  3.737161  0  0  0.123818  0  3.760062  0  0  -0.110872  0.139936  0  3.724183  0
N  N76  1  0.04838034  0.17278598  0.34731598  1  0  -0.325525  0  3.215891  0  0  -0.253426  0  3.521522  0  0  -0.270811  0  3.532322  0  0  -0.238568  -0.241245  0  3.513479  0
N  N77  1  0.45162005  0.67278485  0.65268432  1  0  -0.32553  0  3.215885  0  0  -0.253417  0  3.521532  0  0  -0.270807  0  3.532326  0  0  -0.238563  -0.241235  0  3.513492  0
N  N78  1  0.95162007  0.82721474  0.65268462  1  0  -0.325501  0  3.215847  0  0  -0.253401  0  3.52148  0  0  -0.270784  0  3.532278  0  0  -0.238551  -0.241219  0  3.513436  0
N  N79  1  0.54837931  0.32721493  0.34731531  1  0  -0.325445  0  3.215843  0  0  -0.253343  0  3.521484  0  0  -0.270728  0  3.53228  0  0  -0.238548  -0.241161  0  3.513442  0
N  N80  1  0.96975735  0.22784958  0.42649058  1  0  -0.063541  0  2.930799  0  0  -0.066372  0  3.214608  0  0  -0.063556  0  3.227881  0  0  -0.091893  -0.067665  0  3.205393  0
N  N81  1  0.53024206  0.72785042  0.57350927  1  0  -0.063498  0  2.930735  0  0  -0.066325  0  3.214537  0  0  -0.063509  0  3.22781  0  0  -0.09186  -0.067621  0  3.205324  0
N  N82  1  0.03024200  0.77214925  0.57350906  1  0  -0.063559  0  2.930808  0  0  -0.066395  0  3.214621  0  0  -0.063577  0  3.227892  0  0  -0.091897  -0.067687  0  3.205407  0
N  N83  1  0.46975835  0.27214935  0.42649044  1  0  -0.063617  0  2.930808  0  0  -0.06645  0  3.214614  0  0  -0.063633  0  3.227886  0  0  -0.091922  -0.067741  0  3.205399  0
N  N84  1  0.87729806  0.29958009  0.36412468  1  0  -0.121228  0  3.312339  0  0  -0.055596  0  3.626361  0  0  -0.064385  0  3.638133  0  0  -0.120565  -0.04944  0  3.618638  0
N  N85  1  0.62270133  0.79958001  0.63587523  1  0  -0.121277  0  3.312305  0  0  -0.055653  0  3.626338  0  0  -0.064443  0  3.638111  0  0  -0.120605  -0.049498  0  3.618615  0
N  N86  1  0.12270129  0.70041968  0.63587496  1  0  -0.121227  0  3.312332  0  0  -0.055591  0  3.62635  0  0  -0.06438  0  3.638121  0  0  -0.120574  -0.049437  0  3.618629  0
N  N87  1  0.37729803  0.20041976  0.36412440  1  0  -0.121269  0  3.312401  0  0  -0.055632  0  3.626434  0  0  -0.064422  0  3.638205  0  0  -0.120573  -0.049477  0  3.618712  0
N  N88  1  0.89194270  0.29406441  0.24628340  1  0  -0.26865  0  2.911248  0  0  -0.252239  0  3.180221  0  0  -0.261105  0  3.195296  0  0  -0.208293  -0.246388  0  3.170174  0
N  N89  1  0.60805669  0.79406350  0.75371651  1  0  -0.26867  0  2.911208  0  0  -0.25224  0  3.180188  0  0  -0.261113  0  3.195265  0  0  -0.208288  -0.246386  0  3.17014  0
N  N90  1  0.10805771  0.70593537  0.75371631  1  0  -0.268613  0  2.91114  0  0  -0.2522  0  3.180112  0  0  -0.26107  0  3.195192  0  0  -0.208265  -0.246348  0  3.170064  0
N  N91  1  0.39194372  0.20593533  0.24628320  1  0  -0.268591  0  2.911249  0  0  -0.252175  0  3.180218  0  0  -0.261048  0  3.195303  0  0  -0.208276  -0.246323  0  3.170173  0
Cl  Cl92  1  0.26343613  0.89125150  0.35517204  1  0  -0.570988  0  0.960367  0  0  -0.516642  0  1.251709  0  0  -0.531613  0  1.228957  0  0  -0.320095  -0.505506  0  1.266812  0
Cl  Cl93  1  0.23656419  0.39125191  0.64483023  1  0  -0.570985  0  0.960354  0  0  -0.516632  0  1.251689  0  0  -0.531612  0  1.22895  0  0  -0.320092  -0.505499  0  1.266801  0
Cl  Cl94  1  0.73656428  0.10874733  0.64482767  1  0  -0.570985  0  0.960366  0  0  -0.516634  0  1.251697  0  0  -0.531608  0  1.228955  0  0  -0.320091  -0.505501  0  1.266805  0
Cl  Cl95  1  0.76343728  0.60874692  0.35517044  1  0  -0.570989  0  0.960375  0  0  -0.516629  0  1.251694  0  0  -0.531606  0  1.228956  0  0  -0.320083  -0.505493  0  1.266806  0
