# generated using pymatgen
data_CoH28C20S2(N4O3)2
_symmetry_space_group_name_H-M   'P 1'
_cell_length_a   7.75515782
_cell_length_b   18.79503962
_cell_length_c   19.06149677
_cell_angle_alpha   120.48268920
_cell_angle_beta   90.01586394
_cell_angle_gamma   90.89136152
_symmetry_Int_Tables_number   1
_chemical_formula_structural   CoH28C20S2(N4O3)2
_chemical_formula_sum   'Co3 H84 C60 S6 N24 O18'
_cell_volume   2393.95766570
_cell_formula_units_Z   3
loop_
 _symmetry_equiv_pos_site_id
 _symmetry_equiv_pos_as_xyz
  1  'x, y, z'
loop_
 _atom_site_type_symbol
 _atom_site_label
 _atom_site_symmetry_multiplicity
 _atom_site_fract_x
 _atom_site_fract_y
 _atom_site_fract_z
 _atom_site_occupancy
 _atom_site_pbe_bader_charge
 _atom_site_pbe_bader_spin_density
 _atom_site_pbe_cm5_charge
 _atom_site_pbe_ddec_charge
 _atom_site_pbe_ddec_spin_density
 _atom_site_pbe_ddec_sum_bond_order
 _atom_site_pbe_magmom
Co  Co0  1  0.50061868  0.54738458  0.99747519  1  1.244166  2.588579  0.691473  0.753817  2.793704  2.485156  2.565
Co  Co1  1  0.49913525  0.45261221  0.44997618  1  1.240071  2.588284  0.69114  0.754176  2.793176  2.484861  2.565
Co  Co2  1  0.50046188  0.00001629  0.54593201  1  1.079081  0.975981  0.699062  0.549337  1.028121  2.975278  0.957
H  H3  1  0.69714858  0.68157509  0.98129224  1  0.532191  0.000177  0.321231  0.26962  -0.000186  0.998145  0.0
H  H4  1  0.68390395  0.29797613  0.32154631  1  0.539415  0.000194  0.319956  0.267998  7.5e-05  0.998908  0.0
H  H5  1  0.30244538  0.31843151  0.29961294  1  0.538041  0.000172  0.321174  0.270396  -0.000188  0.997608  0.0
H  H6  1  0.69101676  0.01255682  0.68862333  1  0.556557  -1.4e-05  0.321634  0.269852  -0.000104  1.004841  0.0
H  H7  1  0.30976273  0.98749192  0.67606146  1  0.554645  -1.3e-05  0.32194  0.269869  -0.000104  1.004588  0.0
H  H8  1  0.31625264  0.70191114  0.02359786  1  0.541873  0.000194  0.320009  0.268507  7.7e-05  0.999239  0.0
H  H9  1  0.80961337  0.42571846  0.53113779  1  0.552938  0.000239  0.319924  0.269273  -0.000139  1.006367  0.0
H  H10  1  0.80273998  0.10319285  0.57450216  1  0.549327  0.0  0.322028  0.272887  -0.000129  1.008978  0.0
H  H11  1  0.19001257  0.57426549  0.10537132  1  0.548514  0.00024  0.319984  0.269935  -0.000139  1.006882  0.0
H  H12  1  0.80821076  0.46897566  0.89601315  1  0.535159  0.000194  0.320322  0.270921  -0.000269  1.006899  0.0
H  H13  1  0.19125908  0.53112028  0.42699056  1  0.558109  0.000189  0.320258  0.271162  -0.000267  1.006857  0.0
H  H14  1  0.19822821  0.89704403  0.47158608  1  0.567227  2e-06  0.322237  0.272445  -0.000129  1.008797  0.0
H  H15  1  0.32064869  0.45272647  0.82868079  1  0.056145  -5.2e-05  0.095748  0.139516  -0.000238  1.040933  0.0
H  H16  1  0.31669449  0.37383593  0.54603719  1  0.087941  -6.8e-05  0.095647  0.140469  -0.000263  1.037086  0.0
H  H17  1  0.67940511  0.54716466  0.37597016  1  0.063058  -5e-05  0.095714  0.139346  -0.000237  1.041421  0.0
H  H18  1  0.32425666  0.17283412  0.62176912  1  0.076669  -0.000137  0.097388  0.14397  -0.000189  1.037528  0.0
H  H19  1  0.67629944  0.82704888  0.44891492  1  0.07153  -0.00014  0.097416  0.143729  -0.00019  1.037391  0.0
H  H20  1  0.68179590  0.62548494  0.17231532  1  0.087928  -6.7e-05  0.095731  0.140182  -0.000266  1.037643  0.0
H  H21  1  0.49095006  0.40394870  0.75887751  1  0.048304  0.000626  0.093734  0.132498  0.000249  1.011971  0.0
H  H22  1  0.49087576  0.35636475  0.59568028  1  0.028498  -0.00039  0.092735  0.130137  -0.00033  1.015513  0.0
H  H23  1  0.50901929  0.59608438  0.35514859  1  0.043482  0.000633  0.093769  0.132291  0.000251  1.011834  0.0
H  H24  1  0.50925829  0.23618448  0.63714422  1  0.062863  -0.00028  0.093462  0.129118  -0.000241  1.022391  0.0
H  H25  1  0.49109852  0.76392240  0.40088193  1  0.026739  -0.000283  0.09351  0.12931  -0.000241  1.022683  0.0
H  H26  1  0.50813962  0.64405760  0.23992658  1  0.051319  -0.000386  0.092685  0.129945  -0.00033  1.015751  0.0
H  H27  1  0.33168103  0.45672595  0.73731629  1  0.043214  9.9e-05  0.096591  0.143749  4.8e-05  0.991375  0.0
H  H28  1  0.33098885  0.27827887  0.54412800  1  0.045284  -0.000165  0.094676  0.140681  -9.7e-05  0.993642  0.0
H  H29  1  0.66804721  0.54331284  0.28067432  1  0.026381  0.000102  0.096487  0.143393  4.8e-05  0.991576  0.0
H  H30  1  0.35931130  0.26562928  0.71677516  1  0.022769  -7.4e-05  0.094739  0.139967  -5.1e-05  0.996972  0.0
H  H31  1  0.64079162  0.73420108  0.45098357  1  0.058603  -7.5e-05  0.094768  0.140063  -5.1e-05  0.99661  0.0
H  H32  1  0.66940676  0.72142337  0.26570932  1  0.057567  -0.000168  0.094731  0.140536  -0.0001  0.993746  0.0
H  H33  1  0.83341453  0.75643352  0.91524827  1  0.064119  0.000123  0.103109  0.148305  1.3e-05  0.975636  0.0
H  H34  1  0.80838590  0.15422589  0.24629341  1  0.05559  4.5e-05  0.102006  0.146757  1.4e-05  0.976965  0.0
H  H35  1  0.16470972  0.24393664  0.15884121  1  0.067849  0.000116  0.103133  0.148575  1e-05  0.975601  0.0
H  H36  1  0.79086864  0.07823193  0.83772796  1  0.034122  -3.2e-05  0.102749  0.146937  -1.7e-05  0.97534  0.0
H  H37  1  0.21009439  0.92183119  0.75955726  1  0.03325  -3.2e-05  0.102433  0.146711  -1.7e-05  0.976016  0.0
H  H38  1  0.19245687  0.84586133  0.09208506  1  0.069304  4.6e-05  0.102178  0.146719  1.4e-05  0.97706  0.0
H  H39  1  0.76824704  0.72436204  0.81332847  1  0.039167  0.000534  0.097774  0.137336  0.000193  0.990715  0.0
H  H40  1  0.74114242  0.08317281  0.27742198  1  0.013751  -0.00012  0.097152  0.136345  -0.000107  0.992134  0.0
H  H41  1  0.23142588  0.27551092  0.08878499  1  0.03382  0.000548  0.097712  0.136995  0.000198  0.990523  0.0
H  H42  1  0.74264614  0.18428664  0.90551867  1  0.062221  -9.3e-05  0.097308  0.136525  -8.4e-05  0.991926  0.0
H  H43  1  0.25783527  0.81567907  0.72107541  1  0.018321  -9.4e-05  0.097213  0.136542  -8.3e-05  0.991681  0.0
H  H44  1  0.25940878  0.91675765  0.19439134  1  0.054382  -0.000117  0.096868  0.135935  -0.000106  0.991927  0.0
H  H45  1  0.94046852  0.67463456  0.83224665  1  0.096618  0.001341  0.101304  0.149742  0.000525  0.988776  0.001
H  H46  1  0.91936089  0.15191022  0.32609097  1  0.092493  2.8e-05  0.099714  0.147344  3e-06  0.990733  0.0
H  H47  1  0.05936364  0.32596607  0.15725215  1  0.093727  0.001355  0.101044  0.149282  0.00053  0.98902  0.001
H  H48  1  0.92117307  0.15666113  0.83831641  1  0.09673  -0.000161  0.100328  0.149587  -0.000133  0.989245  0.0
H  H49  1  0.07948316  0.84360897  0.68165330  1  0.101379  -0.000161  0.100494  0.149735  -0.000133  0.989553  0.0
H  H50  1  0.08091653  0.84808889  0.17401166  1  0.060267  3e-05  0.09965  0.146958  3e-06  0.990641  0.0
H  H51  1  0.24754841  0.53350892  0.61177666  1  0.065901  -0.000108  0.097299  0.150873  -0.000117  1.005758  0.0
H  H52  1  0.23101284  0.07437781  0.46775703  1  0.09165  -0.000128  0.09863  0.154561  -0.000161  1.012219  0.0
H  H53  1  0.75195997  0.46642779  0.07828404  1  0.076196  -0.000109  0.09711  0.150404  -0.000117  1.006315  0.0
H  H54  1  0.24200187  0.38365519  0.92080468  1  0.076649  9.9e-05  0.098454  0.15244  -7.6e-05  1.003131  0.0
H  H55  1  0.75808375  0.61630744  0.53670620  1  0.081748  9.9e-05  0.098574  0.152469  -7.6e-05  1.003696  0.0
H  H56  1  0.76946045  0.92521705  0.39305748  1  0.087576  -0.000129  0.098613  0.154067  -0.000162  1.012487  0.0
H  H57  1  0.34783940  0.63241057  0.66031176  1  0.067207  -0.000241  0.092405  0.131691  -0.000224  1.008489  0.0
H  H58  1  0.32783846  0.02073968  0.37084441  1  0.056801  -0.000257  0.093527  0.132228  -0.000224  1.014043  0.0
H  H59  1  0.65156208  0.36756370  0.02805154  1  0.028226  -0.000243  0.092428  0.131501  -0.000223  1.008341  0.0
H  H60  1  0.34036852  0.33632671  0.97002868  1  0.061522  0.000713  0.094491  0.135014  0.000251  1.005326  0.0
H  H61  1  0.65981351  0.66331163  0.63328725  1  0.047294  0.000722  0.094722  0.135337  0.000252  1.004991  0.0
H  H62  1  0.67276567  0.97895531  0.34986240  1  0.03833  -0.000259  0.093566  0.132036  -0.000223  1.013718  0.0
H  H63  1  0.29193076  0.58659196  0.71899511  1  0.028502  -9.4e-05  0.09389  0.135047  -6.6e-05  1.004647  0.0
H  H64  1  0.27869997  0.12656727  0.41293950  1  0.045011  -2.4e-05  0.094766  0.136525  -7e-06  1.00175  0.0
H  H65  1  0.70783889  0.41353284  0.13256436  1  0.021722  -9.5e-05  0.093719  0.134587  -6.6e-05  1.004428  0.0
H  H66  1  0.28319350  0.27498786  0.86532568  1  0.040308  0.000144  0.095427  0.138589  6e-05  0.99946  0.0
H  H67  1  0.71671715  0.72496351  0.59026511  1  0.034739  0.000142  0.095297  0.13856  6e-05  0.99954  0.0
H  H68  1  0.72131086  0.87304573  0.28608426  1  0.05107  -2.4e-05  0.09483  0.136155  -7e-06  1.001865  0.0
H  H69  1  0.02052373  0.43654569  0.63437496  1  0.053528  1.9e-05  0.098516  0.142986  1.5e-05  1.008187  0.0
H  H70  1  0.01445661  0.19556140  0.56090020  1  0.054857  3e-06  0.098961  0.143891  2e-06  1.006131  0.0
H  H71  1  0.97886276  0.56325376  0.19757689  1  0.059929  1.9e-05  0.098609  0.143138  1.5e-05  1.007813  0.0
H  H72  1  0.01600514  0.36636252  0.80297564  1  0.071347  6.1e-05  0.099296  0.145239  -1.5e-05  1.007391  0.0
H  H73  1  0.98408493  0.63371357  0.43628137  1  0.085984  5.9e-05  0.099225  0.145106  -1.5e-05  1.00769  0.0
H  H74  1  0.98616293  0.80460821  0.36589282  1  0.080972  3e-06  0.099014  0.144034  2e-06  1.00688  0.0
H  H75  1  0.90082500  0.42465595  0.70775085  1  0.048239  -0.00015  0.096907  0.141634  -0.000135  0.998391  0.0
H  H76  1  0.89711740  0.28141047  0.57180349  1  0.077121  -0.000144  0.097945  0.143374  -0.00012  0.997812  0.0
H  H77  1  0.09831934  0.57542138  0.28306756  1  0.049628  -0.000148  0.096968  0.141515  -0.000133  0.998845  0.0
H  H78  1  0.89645504  0.28971659  0.71700884  1  0.045689  0.001335  0.098885  0.145868  0.000507  0.995125  0.001
H  H79  1  0.10356341  0.71064174  0.42746455  1  0.062642  0.001318  0.09893  0.14584  0.000507  0.994617  0.001
H  H80  1  0.10312220  0.71867631  0.29080660  1  0.023575  -0.000146  0.098007  0.143374  -0.00012  0.997567  0.0
H  H81  1  0.99454589  0.52102348  0.73602337  1  0.070925  -1.1e-05  0.098374  0.145863  -2.3e-05  1.006694  0.0
H  H82  1  0.98335061  0.21150638  0.47681422  1  0.086384  -9.3e-05  0.099315  0.147799  -7.7e-05  1.004091  0.0
H  H83  1  0.00526413  0.47892264  0.21487940  1  0.06565  -1.3e-05  0.098185  0.145318  -2.4e-05  1.00748  0.0
H  H84  1  0.98810254  0.26336183  0.78448964  1  0.068658  0.001009  0.100483  0.151194  0.000388  1.000805  0.001
H  H85  1  0.01164466  0.73658663  0.52108327  1  0.071413  0.001015  0.100313  0.150848  0.000392  1.000867  0.001
H  H86  1  0.01661057  0.78855782  0.26577973  1  0.082138  -9.3e-05  0.099368  0.147632  -7.7e-05  1.004214  0.0
C  C87  1  0.68989232  0.64226944  0.85482572  1  0.415642  0.015024  0.108277  0.222646  0.008017  3.975521  0.01
C  C88  1  0.67315583  0.20891390  0.35946250  1  0.405881  -0.00104  0.103474  0.215042  -0.001463  3.985782  0.0
C  C89  1  0.30967229  0.35775133  0.21245750  1  0.427601  0.015148  0.108913  0.223807  0.008106  3.974001  0.01
C  C90  1  0.67512125  0.13944757  0.78096156  1  0.441113  -0.001899  0.105309  0.218942  -0.002127  3.985779  -0.001
C  C91  1  0.32556278  0.86062114  0.64149551  1  0.441294  -0.001899  0.105823  0.219108  -0.00213  3.984802  -0.001
C  C92  1  0.32706697  0.79101422  0.15057975  1  0.396993  -0.001021  0.103351  0.214714  -0.00145  3.987122  0.0
C  C93  1  0.60750771  0.57243198  0.79121347  1  0.061035  0.006812  -0.034231  -0.132524  0.00363  4.038152  0.004
C  C94  1  0.59401199  0.21523291  0.42819687  1  0.051054  0.002319  -0.038383  -0.140051  0.001026  4.04776  0.002
C  C95  1  0.39206101  0.42763733  0.21881378  1  0.048859  0.006809  -0.034665  -0.133036  0.003633  4.039431  0.004
C  C96  1  0.60004660  0.20397006  0.77627774  1  0.058885  0.000746  -0.03624  -0.138262  0.000175  4.04975  0.001
C  C97  1  0.40046860  0.79604030  0.57225935  1  0.026661  0.000739  -0.036154  -0.137511  0.000176  4.047137  0.001
C  C98  1  0.40580010  0.78462119  0.21302671  1  0.092577  0.002327  -0.037923  -0.139626  0.00104  4.048166  0.002
C  C99  1  0.51407159  0.53578457  0.82878820  1  0.445774  0.008036  0.101619  0.22377  0.004818  3.980326  0.007
C  C100  1  0.50714154  0.29145527  0.46535461  1  0.48589  -0.001054  0.101068  0.222181  -0.002217  3.983219  0.0
C  C101  1  0.48563804  0.46421342  0.29301831  1  0.483267  0.008151  0.102526  0.224703  0.004851  3.978756  0.007
C  C102  1  0.51923937  0.16716965  0.69875968  1  0.43923  -0.003463  0.10337  0.216067  -0.003841  3.959351  -0.003
C  C103  1  0.48132693  0.83282038  0.53156308  1  0.448003  -0.00348  0.103145  0.216249  -0.003853  3.958895  -0.003
C  C104  1  0.49254696  0.70837579  0.17399950  1  0.43672  -0.000964  0.100337  0.221085  -0.002239  3.984481  0.0
C  C105  1  0.40790589  0.45833389  0.78665355  1  -0.028078  1.9e-05  -0.238607  -0.434903  -0.000325  3.957563  0.0
C  C106  1  0.40540742  0.32719674  0.54177453  1  -0.058357  0.000127  -0.239425  -0.431734  -0.000358  3.953599  0.0
C  C107  1  0.59195725  0.54165540  0.32841244  1  -0.048381  2.5e-05  -0.238998  -0.434645  -0.000325  3.955625  0.0
C  C108  1  0.42224280  0.21233010  0.66638350  1  -0.055368  7.7e-05  -0.240045  -0.435325  -0.000174  3.961151  0.0
C  C109  1  0.57813066  0.78761232  0.45398792  1  -0.047037  8.2e-05  -0.240157  -0.435817  -0.000176  3.960636  0.0
C  C110  1  0.59401739  0.67261499  0.21475438  1  -0.092571  0.000124  -0.239132  -0.430646  -0.000357  3.954655  0.0
C  C111  1  0.81392041  0.70294391  0.85391122  1  -0.069253  0.000678  -0.227105  -0.426253  0.000402  3.97026  0.0
C  C112  1  0.79097167  0.14600150  0.29888651  1  -0.036121  0.000698  -0.228203  -0.424835  0.000263  3.975076  0.001
C  C113  1  0.18537778  0.29723683  0.15080501  1  -0.070422  0.000683  -0.226729  -0.42572  0.000406  3.969517  0.0
C  C114  1  0.78779716  0.13966636  0.84427161  1  -0.060665  -3.7e-05  -0.226863  -0.423801  -0.000126  3.968321  0.0
C  C115  1  0.21290490  0.86044834  0.70458922  1  -0.013747  -3.5e-05  -0.226852  -0.423885  -0.000126  3.969386  0.0
C  C116  1  0.20949587  0.85396683  0.15288306  1  -0.045255  0.000695  -0.227746  -0.423459  0.000264  3.97455  0.001
C  C117  1  0.77044577  0.49006381  0.65901821  1  0.390368  -0.001633  0.102537  0.203988  -0.001915  3.981868  0.0
C  C118  1  0.76039144  0.16555698  0.50914880  1  0.402592  -0.002053  0.105869  0.207687  -0.002266  3.983206  -0.001
C  C119  1  0.22914189  0.51001098  0.16899429  1  0.395479  -0.00163  0.102646  0.204919  -0.001911  3.981204  0.0
C  C120  1  0.76510718  0.33930266  0.83057952  1  0.404331  0.017025  0.11202  0.220723  0.009104  3.965028  0.011
C  C121  1  0.23482615  0.66077710  0.49120664  1  0.421465  0.01703  0.111773  0.220003  0.009113  3.966718  0.011
C  C122  1  0.23988175  0.83450754  0.34382730  1  0.433213  -0.002041  0.105987  0.208186  -0.002259  3.982776  -0.001
C  C123  1  0.62917342  0.53684312  0.70352772  1  0.021323  0.003401  -0.03827  -0.149769  0.001573  4.06542  0.003
C  C124  1  0.61595910  0.16254273  0.46339311  1  0.066797  0.00055  -0.034929  -0.145599  -6e-06  4.065516  0.001
C  C125  1  0.37042703  0.46326142  0.16677961  1  0.032839  0.003384  -0.038557  -0.149874  0.00158  4.066427  0.003
C  C126  1  0.62171683  0.29300990  0.83146128  1  0.037613  0.006152  -0.033458  -0.1444  0.003266  4.051072  0.003
C  C127  1  0.37837130  0.70700300  0.53837515  1  0.025491  0.006156  -0.03382  -0.144402  0.00326  4.048843  0.003
C  C128  1  0.38408319  0.83738622  0.30091022  1  0.014034  0.000549  -0.034814  -0.145678  -7e-06  4.065157  0.001
C  C129  1  0.51266672  0.53432789  0.64491540  1  0.449239  -0.001303  0.09686  0.197548  -0.002128  4.014479  0.0
C  C130  1  0.49791421  0.10607096  0.46678138  1  0.415925  -0.004153  0.101694  0.195372  -0.004707  3.986752  -0.003
C  C131  1  0.48692750  0.46572854  0.11070408  1  0.445209  -0.001304  0.097405  0.198038  -0.002119  4.014164  0.0
C  C132  1  0.50624761  0.35145379  0.88798193  1  0.454665  0.008638  0.102572  0.206902  0.005211  4.003521  0.007
C  C133  1  0.49372125  0.64847208  0.53635041  1  0.461574  0.008638  0.102393  0.206695  0.005224  4.003596  0.007
C  C134  1  0.50242306  0.89383304  0.36065576  1  0.414224  -0.004174  0.101734  0.195263  -0.004715  3.987003  -0.003
C  C135  1  0.34054567  0.57350035  0.65961673  1  -0.05395  0.000379  -0.236206  -0.429368  -2.1e-05  3.960568  0.0
C  C136  1  0.32395508  0.08073368  0.42787638  1  -0.063605  0.000176  -0.236661  -0.431155  -0.000103  3.954751  0.0
C  C137  1  0.65900312  0.42651731  0.08622899  1  -0.018034  0.000383  -0.235903  -0.428159  -2.1e-05  3.959147  0.0
C  C138  1  0.33327919  0.33585760  0.91208973  1  -0.056301  0.000365  -0.23436  -0.430334  -1.3e-05  3.953355  0.0
C  C139  1  0.66681271  0.66400949  0.57594656  1  -0.03779  0.000365  -0.234785  -0.430784  -1.3e-05  3.954173  0.0
C  C140  1  0.67634699  0.91896705  0.34689708  1  -0.051751  0.000176  -0.236724  -0.430054  -0.000104  3.954523  0.0
C  C141  1  0.93056563  0.46691474  0.68520832  1  -0.039047  0.00065  -0.232703  -0.42907  0.000245  3.955522  0.001
C  C142  1  0.92300156  0.21560136  0.53074552  1  -0.075846  -4.1e-05  -0.231754  -0.428128  -0.000129  3.95008  0.0
C  C143  1  0.06893744  0.53308783  0.21822841  1  -0.020283  0.00065  -0.232694  -0.428658  0.000245  3.956269  0.001
C  C144  1  0.92563145  0.31385452  0.78175055  1  -0.02816  0.000823  -0.232574  -0.431503  0.000538  3.943679  0.0
C  C145  1  0.07433623  0.68624071  0.46782504  1  -0.08051  0.00086  -0.23211  -0.430752  0.00054  3.944215  0.0
C  C146  1  0.07721416  0.78447888  0.31557832  1  -0.04354  -3.8e-05  -0.23183  -0.42818  -0.000129  3.950007  0.0
S  S147  1  0.08721344  0.58127450  0.94605306  1  3.068818  0.00399  0.498568  0.967832  0.00257  6.139557  0.004
S  S148  1  0.08096020  0.36299355  0.41789003  1  3.06735  0.004458  0.50042  0.970089  0.002599  6.143072  0.004
S  S149  1  0.91226600  0.41873945  0.36462925  1  3.065619  0.003984  0.499232  0.967662  0.00259  6.139221  0.004
S  S150  1  0.08003764  0.05752470  0.63557851  1  3.066158  0.004636  0.496973  0.959718  0.002897  6.158216  0.004
S  S151  1  0.92051946  0.94249350  0.57797625  1  3.060764  0.004635  0.496466  0.959078  0.002888  6.157192  0.004
S  S152  1  0.91870613  0.63703785  0.05506940  1  3.056572  0.004545  0.500395  0.969348  0.002593  6.144744  0.004
N  N153  1  0.53886767  0.58016137  0.91028161  1  -0.737576  0.059054  -0.265781  -0.263437  0.031959  3.500478  0.047
N  N154  1  0.53251502  0.32931976  0.42215718  1  -0.750062  0.05382  -0.258842  -0.261832  0.029419  3.478515  0.045
N  N155  1  0.46082536  0.41976631  0.33004794  1  -0.7513  0.059193  -0.266104  -0.263979  0.032037  3.50255  0.048
N  N156  1  0.54558582  0.08483166  0.65829212  1  -0.71293  -0.005836  -0.269131  -0.203134  -0.006812  3.564006  -0.004
N  N157  1  0.45516062  0.91517951  0.57345106  1  -0.706444  -0.005838  -0.268654  -0.20282  -0.006796  3.561341  -0.004
N  N158  1  0.46749359  0.67057664  0.09291928  1  -0.72533  0.053798  -0.258885  -0.260002  0.029479  3.478149  0.045
N  N159  1  0.64241239  0.64518751  0.92431211  1  -0.837491  0.000804  -0.28996  -0.154714  -0.001579  3.704183  -0.001
N  N160  1  0.62981006  0.27725446  0.35748234  1  -0.863478  0.003177  -0.293153  -0.158765  0.001206  3.71076  0.002
N  N161  1  0.35724095  0.35475839  0.27899225  1  -0.848048  0.000868  -0.290129  -0.155851  -0.001579  3.704769  -0.001
N  N162  1  0.63573379  0.06957708  0.71039843  1  -0.873327  -0.001801  -0.292043  -0.167184  -0.001876  3.694069  -0.002
N  N163  1  0.36504754  0.93047721  0.64081780  1  -0.861502  -0.001792  -0.292683  -0.167994  -0.001866  3.694469  -0.002
N  N164  1  0.37052841  0.72269541  0.08025243  1  -0.863549  0.003184  -0.29355  -0.160261  0.001229  3.710983  0.002
N  N165  1  0.73460940  0.46370401  0.58027723  1  -0.843  0.001587  -0.284652  -0.13358  -9.4e-05  3.714936  0.0
N  N166  1  0.72568642  0.11342771  0.53643272  1  -0.83866  -0.001718  -0.286291  -0.148399  -0.001746  3.693072  -0.001
N  N167  1  0.26504315  0.53636407  0.11662915  1  -0.835883  0.001584  -0.28495  -0.135608  -9.1e-05  3.716144  0.0
N  N168  1  0.73119818  0.41872834  0.88384501  1  -0.843692  0.000378  -0.285154  -0.137406  -0.002166  3.711145  -0.002
N  N169  1  0.26850683  0.58132393  0.46501452  1  -0.866789  0.000401  -0.284963  -0.136854  -0.002164  3.710229  -0.002
N  N170  1  0.27500445  0.88670134  0.42320127  1  -0.880269  -0.001716  -0.287066  -0.14877  -0.001736  3.693783  -0.001
N  N171  1  0.57987757  0.48922218  0.56981158  1  -0.728606  0.05685  -0.251916  -0.241163  0.031204  3.465937  0.048
N  N172  1  0.56776539  0.07696395  0.51222840  1  -0.717732  -0.007601  -0.264613  -0.174651  -0.008928  3.560832  -0.006
N  N173  1  0.41975146  0.51080285  0.08066232  1  -0.745605  0.057039  -0.252211  -0.241118  0.031272  3.467473  0.048
N  N174  1  0.57563901  0.42842920  0.91956256  1  -0.742804  0.063571  -0.259386  -0.240856  0.034624  3.478699  0.051
N  N175  1  0.42416058  0.57152944  0.49095359  1  -0.73901  0.063711  -0.258856  -0.240655  0.034622  3.47833  0.051
N  N176  1  0.43293116  0.92307658  0.43529095  1  -0.692621  -0.007594  -0.264496  -0.174039  -0.008925  3.561132  -0.006
O  O177  1  0.16205440  0.65015714  0.94018476  1  -1.290965  0.001687  -0.32685  -0.532788  0.000706  2.203267  0.001
O  O178  1  0.14690265  0.28671776  0.34920099  1  -1.29479  0.002159  -0.326154  -0.530827  0.000894  2.199247  0.002
O  O179  1  0.83743866  0.35002405  0.28973231  1  -1.298636  0.001706  -0.32653  -0.532022  0.000714  2.20334  0.001
O  O180  1  0.15584547  0.06687823  0.71054199  1  -1.294695  0.001029  -0.32981  -0.534133  0.000298  2.197338  0.001
O  O181  1  0.84445495  0.93319507  0.64355437  1  -1.289999  0.001023  -0.329681  -0.534456  0.000294  2.198105  0.001
O  O182  1  0.85284114  0.71329111  0.06257577  1  -1.291539  0.002179  -0.325892  -0.53001  0.000904  2.199138  0.002
O  O183  1  0.97117352  0.52740726  0.87824199  1  -1.309042  0.006658  -0.316358  -0.534985  0.003229  2.284985  0.006
O  O184  1  0.96867976  0.34961519  0.47207266  1  -1.303716  0.007577  -0.315082  -0.532607  0.003703  2.28675  0.007
O  O185  1  0.02858977  0.47262315  0.35089459  1  -1.305788  0.006682  -0.31691  -0.535595  0.003238  2.286333  0.006
O  O186  1  0.95943540  0.12300202  0.65059334  1  -1.306075  0.007185  -0.316417  -0.537696  0.003502  2.307716  0.006
O  O187  1  0.04098667  0.87694189  0.52754510  1  -1.310963  0.007207  -0.315981  -0.537019  0.003513  2.308331  0.006
O  O188  1  0.03129547  0.65045194  0.12255682  1  -1.30449  0.007602  -0.314762  -0.532101  0.003717  2.287383  0.007
O  O189  1  0.21320526  0.53462958  0.96493085  1  -1.309082  0.034274  -0.323047  -0.577587  0.01784  2.414189  0.026
O  O190  1  0.21334363  0.42867521  0.46238621  1  -1.302039  0.034783  -0.321645  -0.578843  0.017642  2.428325  0.028
O  O191  1  0.78631766  0.46537128  0.43017774  1  -1.303582  0.034333  -0.323139  -0.577096  0.01784  2.413987  0.026
O  O192  1  0.20529177  0.04078209  0.57089859  1  -1.302893  0.032024  -0.314382  -0.561252  0.016239  2.401939  0.023
O  O193  1  0.79545528  0.95929576  0.52998575  1  -1.304931  0.032143  -0.31439  -0.560766  0.0163  2.400035  0.023
O  O194  1  0.78624472  0.57143470  0.03403205  1  -1.296984  0.034819  -0.321761  -0.578773  0.017692  2.429639  0.028
