# generated using pymatgen
data_CdH19C25N5O4
_symmetry_space_group_name_H-M   'P 1'
_cell_length_a   13.47689282
_cell_length_b   14.60543694
_cell_length_c   14.60546123
_cell_angle_alpha   90.01282304
_cell_angle_beta   89.99966255
_cell_angle_gamma   89.99993705
_symmetry_Int_Tables_number   1
_chemical_formula_structural   CdH19C25N5O4
_chemical_formula_sum   'Cd4 H76 C100 N20 O16'
_cell_volume   2874.87915440
_cell_formula_units_Z   4
loop_
 _symmetry_equiv_pos_site_id
 _symmetry_equiv_pos_as_xyz
  1  'x, y, z'
loop_
 _atom_site_type_symbol
 _atom_site_label
 _atom_site_symmetry_multiplicity
 _atom_site_fract_x
 _atom_site_fract_y
 _atom_site_fract_z
 _atom_site_occupancy
 _atom_site_pbe_bader_charge
 _atom_site_pbe_bader_spin_density
 _atom_site_pbe_cm5_charge
 _atom_site_pbe_ddec_charge
 _atom_site_pbe_ddec_spin_density
 _atom_site_pbe_ddec_sum_bond_order
 _atom_site_pbe_magmom
Cd  Cd0  1  0.50000298  0.26067980  0.26067827  1  1.255837  0  0.765073  0.810633  0  2.229848  0
Cd  Cd1  1  0.00000089  0.73931772  0.73932266  1  1.255814  0  0.765082  0.81064  0  2.229876  0
Cd  Cd2  1  0.75000029  0.76059045  0.23940932  1  1.256207  0  0.764514  0.810003  0  2.229066  0
Cd  Cd3  1  0.24999940  0.23940888  0.76058615  1  1.256127  0  0.764567  0.810059  0  2.228979  0
H  H4  1  0.56667634  0.03144477  0.31131637  1  0.144196  0  0.121877  0.123058  0  1.02019  0
H  H5  1  0.06667429  0.96855063  0.68868352  1  0.144395  0  0.121923  0.123124  0  1.020122  0
H  H6  1  0.68314170  0.53124281  0.18863912  1  0.142823  0  0.121523  0.122589  0  1.020585  0
H  H7  1  0.18314837  0.46875590  0.81135740  1  0.142695  0  0.121541  0.122682  0  1.020647  0
H  H8  1  0.93331843  0.68868643  0.96855339  1  0.144306  0  0.121894  0.123033  0  1.020113  0
H  H9  1  0.43332586  0.31131272  0.03144932  1  0.14435  0  0.121909  0.123097  0  1.020133  0
H  H10  1  0.81685766  0.81134993  0.46875781  1  0.142809  0  0.121571  0.122738  0  1.020553  0
H  H11  1  0.31685905  0.18864180  0.53124278  1  0.142796  0  0.121547  0.122658  0  1.020589  0
H  H12  1  0.73817937  0.98965225  0.40928789  1  0.142905  0  0.122246  0.12602  0  1.027399  0
H  H13  1  0.23817688  0.01034298  0.59070970  1  0.143003  0  0.122244  0.126007  0  1.027458  0
H  H14  1  0.51150827  0.48958171  0.09087081  1  0.141404  0  0.122284  0.125793  0  1.027913  0
H  H15  1  0.01151649  0.51042060  0.90912801  1  0.141153  0  0.122296  0.125826  0  1.027934  0
H  H16  1  0.76181616  0.59071025  0.01034787  1  0.142764  0  0.122305  0.126079  0  1.027448  0
H  H17  1  0.26182621  0.40929112  0.98965438  1  0.142968  0  0.122262  0.126009  0  1.027418  0
H  H18  1  0.98848976  0.90912289  0.51041983  1  0.141385  0  0.122325  0.125824  0  1.027909  0
H  H19  1  0.48849227  0.09087209  0.48958189  1  0.141598  0  0.122289  0.125833  0  1.027881  0
H  H20  1  0.70280448  0.27808326  0.39320613  1  0.13019  0  0.14188  0.112025  0  0.985816  0
H  H21  1  0.20280326  0.72191132  0.60679644  1  0.130322  0  0.141945  0.112181  0  0.985599  0
H  H22  1  0.54757571  0.77797261  0.10633625  1  0.134802  0  0.141679  0.111733  0  0.986048  0
H  H23  1  0.04757546  0.22203035  0.89366100  1  0.134816  0  0.14169  0.111762  0  0.986044  0
H  H24  1  0.79719220  0.60679144  0.72191698  1  0.130278  0  0.141891  0.112084  0  0.985693  0
H  H25  1  0.29719349  0.39320510  0.27808440  1  0.130352  0  0.141914  0.11215  0  0.985629  0
H  H26  1  0.95242749  0.89366145  0.22203155  1  0.134818  0  0.141661  0.111709  0  0.986053  0
H  H27  1  0.45242739  0.10633973  0.77797037  1  0.134821  0  0.141659  0.111731  0  0.986085  0
H  H28  1  0.79357722  0.04199170  0.56468792  1  0.108608  0  0.099691  0.103972  0  1.065977  0
H  H29  1  0.29357089  0.95800485  0.43531075  1  0.108554  0  0.099716  0.10402  0  1.065975  0
H  H30  1  0.45600905  0.54160828  0.93545196  1  0.110245  0  0.099617  0.103933  0  1.065578  0
H  H31  1  0.95600623  0.45839358  0.06454446  1  0.110247  0  0.099638  0.103929  0  1.065596  0
H  H32  1  0.70641765  0.43531191  0.95801040  1  0.108645  0  0.099677  0.103996  0  1.065955  0
H  H33  1  0.20642100  0.56468815  0.04198736  1  0.10855  0  0.099672  0.103984  0  1.065992  0
H  H34  1  0.04398934  0.06454507  0.45839729  1  0.11018  0  0.099641  0.103923  0  1.065642  0
H  H35  1  0.54399846  0.93545652  0.54160957  1  0.110325  0  0.099588  0.103814  0  1.065637  0
H  H36  1  0.93980420  0.06939896  0.66638474  1  0.120036  0  0.106038  0.110672  0  1.017704  0
H  H37  1  0.43979559  0.93060017  0.33361382  1  0.120207  0  0.10605  0.110715  0  1.017787  0
H  H38  1  0.30978797  0.56912577  0.83379620  1  0.115774  0  0.10584  0.110399  0  1.017682  0
H  H39  1  0.80978676  0.43087418  0.16620101  1  0.115776  0  0.105811  0.110371  0  1.017735  0
H  H40  1  0.56019270  0.33361185  0.93060897  1  0.12011  0  0.106005  0.11056  0  1.017667  0
H  H41  1  0.06019500  0.66638493  0.06938821  1  0.120092  0  0.106013  0.11065  0  1.017583  0
H  H42  1  0.19021001  0.16620611  0.43088500  1  0.115484  0  0.105881  0.11053  0  1.017623  0
H  H43  1  0.69021834  0.83379807  0.56912449  1  0.115772  0  0.105851  0.110388  0  1.017768  0
H  H44  1  0.03714702  0.28644621  0.49091615  1  0.084757  0  0.106435  0.106  0  1.018233  0
H  H45  1  0.53715068  0.71356154  0.50908253  1  0.08473  0  0.106472  0.106014  0  1.018305  0
H  H46  1  0.21300186  0.78668261  0.00901494  1  0.083838  0  0.106457  0.10626  0  1.017606  0
H  H47  1  0.71301044  0.21331607  0.99098142  1  0.083733  0  0.106462  0.106333  0  1.017586  0
H  H48  1  0.46284667  0.50907637  0.71356075  1  0.084744  0  0.106462  0.106028  0  1.018288  0
H  H49  1  0.96285203  0.49092205  0.28644385  1  0.084875  0  0.106501  0.106072  0  1.018201  0
H  H50  1  0.28699440  0.99099100  0.21332078  1  0.083811  0  0.106434  0.106229  0  1.017567  0
H  H51  1  0.78699563  0.00901719  0.78668340  1  0.08381  0  0.106477  0.106338  0  1.017738  0
H  H52  1  0.88957605  0.26111157  0.38855547  1  0.085244  0  0.109021  0.116679  0  0.992838  0
H  H53  1  0.38957997  0.73888967  0.61143994  1  0.085358  0  0.108985  0.116635  0  0.992949  0
H  H54  1  0.36066912  0.76129179  0.11124949  1  0.085856  0  0.109146  0.117083  0  0.992525  0
H  H55  1  0.86067387  0.23871222  0.88874334  1  0.086164  0  0.109156  0.11709  0  0.992494  0
H  H56  1  0.61041912  0.61143554  0.73888837  1  0.08545  0  0.108969  0.116654  0  0.992832  0
H  H57  1  0.11042646  0.38856393  0.26111334  1  0.085256  0  0.108972  0.116653  0  0.992835  0
H  H58  1  0.13933052  0.88875254  0.23871051  1  0.085806  0  0.10916  0.117117  0  0.992435  0
H  H59  1  0.63933254  0.11125580  0.76128967  1  0.085832  0  0.109116  0.117049  0  0.992512  0
H  H60  1  0.57091821  0.47065047  0.29364063  1  0.095199  0  0.109521  0.083172  0  1.052811  0
H  H61  1  0.07091806  0.52934698  0.70635650  1  0.094911  0  0.109526  0.083174  0  1.05284  0
H  H62  1  0.67896386  0.97050999  0.20640700  1  0.094649  0  0.109337  0.083046  0  1.053233  0
H  H63  1  0.17896450  0.02949078  0.79359091  1  0.094613  0  0.109336  0.083041  0  1.053224  0
H  H64  1  0.92909334  0.70636082  0.52936486  1  0.094931  0  0.109542  0.083164  0  1.05285  0
H  H65  1  0.42909351  0.29364175  0.47063718  1  0.094938  0  0.109528  0.083169  0  1.052727  0
H  H66  1  0.82103512  0.79359298  0.02948861  1  0.094703  0  0.109344  0.083063  0  1.053156  0
H  H67  1  0.32103366  0.20640901  0.97050717  1  0.094657  0  0.109343  0.083089  0  1.053124  0
H  H68  1  0.57311634  0.59711017  0.40940668  1  0.135045  0  0.104021  0.121999  0  1.033379  0
H  H69  1  0.07311338  0.40288865  0.59058906  1  0.13512  0  0.104033  0.122026  0  1.033404  0
H  H70  1  0.67687006  0.09697849  0.09070456  1  0.135759  0  0.104  0.121906  0  1.033092  0
H  H71  1  0.17687113  0.90302022  0.90929268  1  0.135706  0  0.104006  0.121901  0  1.033079  0
H  H72  1  0.92688114  0.59059799  0.40289237  1  0.134957  0  0.103986  0.121922  0  1.033276  0
H  H73  1  0.42688184  0.40940458  0.59711106  1  0.134915  0  0.104035  0.122014  0  1.033342  0
H  H74  1  0.82312768  0.90929494  0.90301796  1  0.135686  0  0.104013  0.12191  0  1.033077  0
H  H75  1  0.32312530  0.09070705  0.09697780  1  0.135697  0  0.104024  0.121944  0  1.033035  0
H  H76  1  0.50000033  0.56569077  0.56568395  1  0.042626  0  0.100344  0.090489  0  1.009632  0
H  H77  1  0.99999591  0.43431378  0.43431361  1  0.042597  0  0.100399  0.090518  0  1.009719  0
H  H78  1  0.74999847  0.06555584  0.93444483  1  0.041853  0  0.100576  0.090731  0  1.008997  0
H  H79  1  0.24999899  0.93444622  0.06555201  1  0.041769  0  0.100605  0.090731  0  1.008976  0
C  C80  1  0.61967803  0.07653986  0.34423773  1  0.402606  0  0.002212  -0.028093  0  3.98517  0
C  C81  1  0.11967774  0.92345481  0.65576050  1  0.402578  0  0.002099  -0.0282  0  3.985324  0
C  C82  1  0.63024606  0.57640452  0.15569911  1  0.40299  0  0.002486  -0.027324  0  3.985538  0
C  C83  1  0.13025183  0.42359835  0.84429907  1  0.403206  0  0.002371  -0.027607  0  3.985782  0
C  C84  1  0.88031528  0.65576216  0.92345918  1  0.402672  0  0.002207  -0.027834  0  3.985089  0
C  C85  1  0.38032163  0.34423635  0.07654381  1  0.402533  0  0.002095  -0.02815  0  3.985316  0
C  C86  1  0.86975648  0.84429011  0.42359879  1  0.403282  0  0.002474  -0.02743  0  3.985501  0
C  C87  1  0.36975539  0.15570293  0.57640562  1  0.403014  0  0.002447  -0.027392  0  3.985688  0
C  C88  1  0.70386644  0.05462805  0.39260052  1  0.308442  0  0.00204  -0.098104  0  3.891544  0
C  C89  1  0.20386569  0.94536859  0.60739726  1  0.308345  0  0.002095  -0.098079  0  3.891602  0
C  C90  1  0.54597829  0.55451759  0.10745534  1  0.308412  0  0.001623  -0.098918  0  3.892806  0
C  C91  1  0.04598446  0.44548400  0.89254397  1  0.308792  0  0.001665  -0.098822  0  3.892865  0
C  C92  1  0.79612595  0.60739705  0.94537182  1  0.308451  0  0.001997  -0.098328  0  3.89169  0
C  C93  1  0.29613536  0.39260292  0.05462957  1  0.308442  0  0.002057  -0.098107  0  3.89163  0
C  C94  1  0.95402358  0.89253757  0.44548550  1  0.308349  0  0.001533  -0.098912  0  3.892828  0
C  C95  1  0.45402343  0.10745882  0.55451640  1  0.308179  0  0.001614  -0.098985  0  3.892824  0
C  C96  1  0.68801925  0.20576869  0.38342913  1  1.002313  0  0.145355  0.097247  0  3.909807  0
C  C97  1  0.18801788  0.79422522  0.61657216  1  1.0025  0  0.145195  0.096982  0  3.909581  0
C  C98  1  0.56220669  0.70563489  0.11619634  1  0.99896  0  0.144999  0.097199  0  3.909851  0
C  C99  1  0.06221087  0.29436600  0.88379877  1  0.999038  0  0.144969  0.097195  0  3.909729  0
C  C100  1  0.81197652  0.61656849  0.79423139  1  1.001892  0  0.14532  0.097193  0  3.90975  0
C  C101  1  0.31197977  0.38343078  0.20577059  1  1.002068  0  0.145266  0.097077  0  3.909748  0
C  C102  1  0.93779184  0.88379994  0.29436781  1  0.999073  0  0.144955  0.097331  0  3.909931  0
C  C103  1  0.43779442  0.11620057  0.70563350  1  0.999011  0  0.145003  0.097237  0  3.909888  0
C  C104  1  0.83297229  0.15068464  0.47185388  1  0.299729  0  0.093789  0.169493  0  4.020365  0
C  C105  1  0.33296920  0.84931049  0.52814183  1  0.300036  0  0.09381  0.169423  0  4.020367  0
C  C106  1  0.41697842  0.65059354  0.02810229  1  0.300699  0  0.093541  0.169391  0  4.020693  0
C  C107  1  0.91698103  0.34940904  0.97189571  1  0.300539  0  0.093492  0.169333  0  4.020663  0
C  C108  1  0.66702385  0.52814053  0.84931566  1  0.299642  0  0.093818  0.169657  0  4.020518  0
C  C109  1  0.16702883  0.47185956  0.15068573  1  0.299849  0  0.093887  0.169665  0  4.020668  0
C  C110  1  0.08301966  0.97189770  0.34941075  1  0.300483  0  0.093521  0.169311  0  4.020648  0
C  C111  1  0.58302471  0.02810522  0.65059247  1  0.300434  0  0.09349  0.169295  0  4.020821  0
C  C112  1  0.84722314  0.09538644  0.54876614  1  -0.069264  0  -0.094546  -0.172993  0  3.996612  0
C  C113  1  0.34721751  0.90461073  0.45123086  1  -0.069663  0  -0.094588  -0.172976  0  3.996589  0
C  C114  1  0.40249737  0.59514699  0.95130491  1  -0.081815  0  -0.094374  -0.172951  0  3.997796  0
C  C115  1  0.90249917  0.40485355  0.04869248  1  -0.081782  0  -0.094326  -0.172882  0  3.997796  0
C  C116  1  0.65277414  0.45123153  0.90461312  1  -0.0697  0  -0.094625  -0.173342  0  3.996872  0
C  C117  1  0.15277939  0.54876721  0.09538561  1  -0.06966  0  -0.094607  -0.173176  0  3.996732  0
C  C118  1  0.09750037  0.04869563  0.40485718  1  -0.081873  0  -0.094479  -0.172913  0  3.997927  0
C  C119  1  0.59750690  0.95130659  0.59514871  1  -0.081814  0  -0.094258  -0.172617  0  3.997837  0
C  C120  1  0.92866308  0.11087189  0.60526159  1  -0.008832  0  -0.082516  -0.083966  0  3.972859  0
C  C121  1  0.42865932  0.88912726  0.39473497  1  -0.008365  0  -0.082567  -0.084126  0  3.973097  0
C  C122  1  0.32104405  0.61069725  0.89485743  1  0.008485  0  -0.08236  -0.083433  0  3.973734  0
C  C123  1  0.82104699  0.38930269  0.10514177  1  0.008316  0  -0.082334  -0.083382  0  3.973621  0
C  C124  1  0.57133038  0.39473581  0.88913267  1  -0.008344  0  -0.082368  -0.083511  0  3.972433  0
C  C125  1  0.07133546  0.60526301  0.11086650  1  -0.008338  0  -0.082497  -0.083831  0  3.972376  0
C  C126  1  0.17895536  0.10514338  0.38931224  1  0.008945  0  -0.082386  -0.083706  0  3.973686  0
C  C127  1  0.67896038  0.89485739  0.61069731  1  0.008702  0  -0.082357  -0.083503  0  3.973833  0
C  C128  1  0.99685761  0.18054639  0.58509251  1  -0.069233  0  -0.01831  -0.032914  0  3.956357  0
C  C129  1  0.49685677  0.81945611  0.41490506  1  -0.069585  0  -0.01835  -0.032933  0  3.956416  0
C  C130  1  0.25299562  0.68051053  0.91496681  1  -0.081089  0  -0.018379  -0.033787  0  3.958178  0
C  C131  1  0.75299951  0.31948606  0.08502933  1  -0.080639  0  -0.018388  -0.033756  0  3.957995  0
C  C132  1  0.50313534  0.41490478  0.81945980  1  -0.06941  0  -0.018353  -0.033107  0  3.956621  0
C  C133  1  0.00314074  0.58509548  0.18054111  1  -0.069222  0  -0.018277  -0.032954  0  3.956411  0
C  C134  1  0.24700319  0.08503137  0.31949414  1  -0.081148  0  -0.018334  -0.033586  0  3.958111  0
C  C135  1  0.74700921  0.91496933  0.68051025  1  -0.081101  0  -0.018408  -0.033776  0  3.958162  0
C  C136  1  0.98205620  0.23439294  0.50691412  1  -0.019613  0  -0.081866  -0.081219  0  3.991602  0
C  C137  1  0.48206011  0.76561437  0.49308627  1  -0.01941  0  -0.081809  -0.081135  0  3.991639  0
C  C138  1  0.26803367  0.73454982  0.99299911  1  -0.009244  0  -0.081223  -0.080405  0  3.990661  0
C  C139  1  0.76803813  0.26544949  0.00699421  1  -0.009096  0  -0.081218  -0.080528  0  3.990563  0
C  C140  1  0.51793859  0.49308333  0.76561331  1  -0.019685  0  -0.081817  -0.081157  0  3.991713  0
C  C141  1  0.01794522  0.50691897  0.23438889  1  -0.019804  0  -0.081826  -0.081153  0  3.991681  0
C  C142  1  0.23196433  0.00700233  0.26545566  1  -0.009131  0  -0.081194  -0.080424  0  3.990765  0
C  C143  1  0.73196918  0.99300454  0.73455018  1  -0.009187  0  -0.081286  -0.080546  0  3.990707  0
C  C144  1  0.90051682  0.22015152  0.45014631  1  -0.051748  0  -0.092344  -0.175465  0  3.996247  0
C  C145  1  0.40051961  0.77985108  0.54985178  1  -0.051905  0  -0.092373  -0.175478  0  3.996446  0
C  C146  1  0.34963861  0.72028716  0.04969261  1  -0.050812  0  -0.09281  -0.176335  0  3.995801  0
C  C147  1  0.84964366  0.27971686  0.95030301  1  -0.051484  0  -0.092842  -0.176315  0  3.99575  0
C  C148  1  0.59947659  0.54984936  0.77985385  1  -0.051428  0  -0.092374  -0.17559  0  3.996266  0
C  C149  1  0.09948338  0.45015354  0.22014928  1  -0.051699  0  -0.092412  -0.175616  0  3.996586  0
C  C150  1  0.15035960  0.95030818  0.27971710  1  -0.050872  0  -0.092793  -0.176265  0  3.995626  0
C  C151  1  0.65036418  0.04969673  0.72028439  1  -0.050965  0  -0.092738  -0.176255  0  3.995806  0
C  C152  1  0.08586775  0.19610812  0.64571581  1  1.583169  0  0.183592  0.549177  0  4.260551  0
C  C153  1  0.58586710  0.80389548  0.35428124  1  1.583246  0  0.18358  0.549137  0  4.260543  0
C  C154  1  0.16399235  0.69605006  0.85437776  1  1.57962  0  0.182688  0.548777  0  4.261672  0
C  C155  1  0.66399884  0.30393771  0.14561681  1  1.579488  0  0.182797  0.548933  0  4.261914  0
C  C156  1  0.41412678  0.35428319  0.80389743  1  1.582746  0  0.183549  0.549167  0  4.260701  0
C  C157  1  0.91412957  0.64571870  0.19610332  1  1.583259  0  0.183542  0.549088  0  4.26079  0
C  C158  1  0.33600665  0.14562415  0.30395581  1  1.579149  0  0.182613  0.548619  0  4.261821  0
C  C159  1  0.83600672  0.85438125  0.69606043  1  1.579773  0  0.182679  0.548751  0  4.262149  0
C  C160  1  0.53904195  0.46117119  0.36142799  1  0.501727  0  0.038467  0.085949  0  3.948368  0
C  C161  1  0.03904000  0.53882698  0.63857135  1  0.501879  0  0.038381  0.085879  0  3.948438  0
C  C162  1  0.71089875  0.96105385  0.13865244  1  0.495228  0  0.038477  0.085555  0  3.94931  0
C  C163  1  0.21089819  0.03894688  0.86134667  1  0.495186  0  0.038462  0.085497  0  3.949442  0
C  C164  1  0.96096420  0.63856725  0.53883515  1  0.501178  0  0.038389  0.085814  0  3.948575  0
C  C165  1  0.46096583  0.36143461  0.46116809  1  0.501243  0  0.038432  0.085873  0  3.948643  0
C  C166  1  0.78909891  0.86134896  0.03894480  1  0.495234  0  0.03853  0.085561  0  3.949342  0
C  C167  1  0.28909907  0.13865238  0.96105047  1  0.495252  0  0.038448  0.085495  0  3.949218  0
C  C168  1  0.54029792  0.53087788  0.42662305  1  -0.026796  0  -0.08982  -0.135405  0  3.965297  0
C  C169  1  0.04029500  0.46912235  0.57337424  1  -0.026946  0  -0.089847  -0.135435  0  3.965434  0
C  C170  1  0.70966332  0.03074436  0.07347747  1  -0.024714  0  -0.089502  -0.13455  0  3.965969  0
C  C171  1  0.20966346  0.96925706  0.92651959  1  -0.025114  0  -0.089422  -0.134439  0  3.966109  0
C  C172  1  0.95970378  0.57337482  0.46912653  1  -0.02575  0  -0.089747  -0.135205  0  3.965292  0
C  C173  1  0.45970489  0.42662841  0.53087603  1  -0.025684  0  -0.089842  -0.135438  0  3.965579  0
C  C174  1  0.79033651  0.92652335  0.96925548  1  -0.025106  0  -0.089531  -0.134532  0  3.966061  0
C  C175  1  0.29033458  0.07347936  0.03074115  1  -0.024591  0  -0.089519  -0.134623  0  3.966081  0
C  C176  1  0.49999831  0.51283194  0.51282725  1  -0.138553  0  -0.074518  -0.039799  0  3.998039  0
C  C177  1  0.99999645  0.48717056  0.48717030  1  -0.138185  0  -0.074564  -0.039891  0  3.998163  0
C  C178  1  0.75000129  0.01271020  0.98729038  1  -0.134281  0  -0.075085  -0.041076  0  3.99885  0
C  C179  1  0.24999839  0.98729255  0.01270646  1  -0.134047  0  -0.07522  -0.041146  0  3.999063  0
N  N180  1  0.61078425  0.17068580  0.33973080  1  -1.2444  0  -0.35151  -0.273578  0  3.531879  0
N  N181  1  0.11078107  0.82930818  0.66027022  1  -1.244565  0  -0.351492  -0.273589  0  3.531826  0
N  N182  1  0.63938385  0.67052405  0.15995940  1  -1.243453  0  -0.350892  -0.273129  0  3.530908  0
N  N183  1  0.13938828  0.32947881  0.84003873  1  -1.243969  0  -0.350858  -0.273052  0  3.530822  0
N  N184  1  0.88921080  0.66026843  0.82931474  1  -1.243977  0  -0.351485  -0.273745  0  3.532164  0
N  N185  1  0.38921433  0.33972802  0.17068957  1  -1.244428  0  -0.351463  -0.273578  0  3.531964  0
N  N186  1  0.86061818  0.84003459  0.32947807  1  -1.243883  0  -0.350896  -0.273274  0  3.53092  0
N  N187  1  0.36061574  0.15996189  0.67052366  1  -1.243534  0  -0.350894  -0.273096  0  3.530915  0
N  N188  1  0.74705208  0.13748688  0.41691017  1  -1.26236  0  -0.225582  0.007547  0  3.796093  0
N  N189  1  0.24705010  0.86250698  0.58309148  1  -1.262877  0  -0.22545  0.007788  0  3.795925  0
N  N190  1  0.50294763  0.63737237  0.08296636  1  -1.263251  0  -0.225287  0.00761  0  3.796896  0
N  N191  1  0.00295152  0.36262858  0.91703182  1  -1.262874  0  -0.22526  0.007546  0  3.796708  0
N  N192  1  0.75294417  0.58308863  0.86251322  1  -1.262734  0  -0.225608  0.007631  0  3.796161  0
N  N193  1  0.25295079  0.41691275  0.13748771  1  -1.262486  0  -0.225515  0.007617  0  3.79615  0
N  N194  1  0.99705229  0.91703148  0.36262940  1  -1.262948  0  -0.225189  0.007539  0  3.796799  0
N  N195  1  0.49705461  0.08296965  0.63737091  1  -1.262955  0  -0.225237  0.007584  0  3.796797  0
N  N196  1  0.50000328  0.37797939  0.37797766  1  -1.23529  0  -0.328471  -0.249582  0  3.49563  0
N  N197  1  0.00000282  0.62202088  0.62202463  1  -1.235332  0  -0.328408  -0.249518  0  3.49545  0
N  N198  1  0.74999985  0.87787611  0.12212317  1  -1.228659  0  -0.328093  -0.24871  0  3.494733  0
N  N199  1  0.24999835  0.12212459  0.87787367  1  -1.228776  0  -0.32799  -0.248586  0  3.494719  0
O  O200  1  0.09607391  0.14495551  0.71543466  1  -1.191707  0  -0.340132  -0.578389  0  2.18124  0
O  O201  1  0.59607069  0.85504465  0.28456027  1  -1.191858  0  -0.340144  -0.578366  0  2.181259  0
O  O202  1  0.15388716  0.64498592  0.78455230  1  -1.192342  0  -0.340044  -0.578366  0  2.180859  0
O  O203  1  0.65389092  0.35500666  0.21544027  1  -1.191907  0  -0.340177  -0.578476  0  2.181052  0
O  O204  1  0.40392401  0.28455736  0.85504381  1  -1.191382  0  -0.340148  -0.578396  0  2.181186  0
O  O205  1  0.90392556  0.71543908  0.14495220  1  -1.191921  0  -0.340157  -0.578359  0  2.181285  0
O  O206  1  0.34611041  0.21545112  0.35501916  1  -1.191904  0  -0.340112  -0.578431  0  2.180902  0
O  O207  1  0.84611459  0.78455770  0.64499429  1  -1.19228  0  -0.340154  -0.578467  0  2.181273  0
O  O208  1  0.14620068  0.25992297  0.62383714  1  -1.162413  0  -0.340605  -0.558269  0  2.145438  0
O  O209  1  0.64620145  0.74008331  0.37616369  1  -1.162403  0  -0.340583  -0.558234  0  2.14539  0
O  O210  1  0.10361185  0.75978361  0.87638573  1  -1.160389  0  -0.339958  -0.557995  0  2.145144  0
O  O211  1  0.60362005  0.24020354  0.12361190  1  -1.160698  0  -0.339959  -0.558104  0  2.145219  0
O  O212  1  0.35379630  0.37616108  0.74008282  1  -1.162452  0  -0.340548  -0.558228  0  2.145492  0
O  O213  1  0.85380019  0.62384088  0.25992031  1  -1.162414  0  -0.340546  -0.558208  0  2.14549  0
O  O214  1  0.39638726  0.12361422  0.24022428  1  -1.160252  0  -0.339841  -0.557845  0  2.145276  0
O  O215  1  0.89638392  0.87638496  0.75979847  1  -1.160713  0  -0.339896  -0.557945  0  2.145194  0
